MODEL 1
REMARK VINA RESULT:      -7.4      0.000      0.000
REMARK  8 active torsions:
REMARK  status: ('A' for Active; 'I' for Inactive)
REMARK    1  A    between atoms: N1_2  and  N2_3 
REMARK    2  A    between atoms: C6_8  and  C7_9 
REMARK    3  A    between atoms: N3_10  and  C8_11 
REMARK    4  A    between atoms: C8_11  and  S1_12 
REMARK    5  A    between atoms: S1_12  and  P1_13 
REMARK    6  A    between atoms: C11_16  and  C12_17 
REMARK    7  A    between atoms: C12_17  and  C13_18 
REMARK    8  A    between atoms: C13_18  and  C14_19 
ROOT
HETATM    1  C8  UNL     1      20.879   1.281  52.285  1.00  0.00     0.105 C 
HETATM    2  C9  UNL     1      21.842   0.666  52.951  1.00  0.00    -0.003 C 
HETATM    3  C10 UNL     1      23.292   0.787  53.042  1.00  0.00     0.036 C 
HETATM    4  C11 UNL     1      23.729  -0.312  53.633  1.00  0.00     0.006 C 
HETATM    5  N4  UNL     1      22.659  -1.189  53.955  1.00  0.00    -0.389 N 
HETATM    6  C20 UNL     1      21.401  -0.435  53.846  1.00  0.00     0.161 C 
HETATM    7  H21 UNL     1      22.691  -2.204  54.231  1.00  0.00     0.159 HD
ENDROOT
BRANCH   1   8
HETATM    8  N3  UNL     1      19.470   1.084  52.265  1.00  0.00    -0.251 NA
HETATM    9  C7  UNL     1      18.845   0.397  51.366  1.00  0.00     0.150 C 
BRANCH   9  10
HETATM   10  C6  UNL     1      17.427   0.488  51.775  1.00  0.00     0.081 A 
HETATM   11  N2  UNL     1      16.505   1.451  51.568  1.00  0.00    -0.244 N 
HETATM   12  C2  UNL     1      15.343   1.073  52.142  1.00  0.00     0.119 A 
HETATM   13  C3  UNL     1      15.460  -0.158  52.752  1.00  0.00     0.028 A 
HETATM   14  C4  UNL     1      16.787  -0.512  52.509  1.00  0.00    -0.030 A 
HETATM   15  C5  UNL     1      17.435  -1.790  52.972  1.00  0.00     0.050 C 
BRANCH  11  16
HETATM   16  N1  UNL     1      16.788   2.627  50.858  1.00  0.00    -0.191 NA
HETATM   17  C1  UNL     1      16.926   3.735  51.508  1.00  0.00     0.173 C 
ENDBRANCH  11  16
ENDBRANCH   9  10
ENDBRANCH   1   8
BRANCH   1  18
HETATM   18  S1  UNL     1      20.801   2.622  51.110  1.00  0.00    -0.084 SA
BRANCH  18  19
HETATM   19  P1  UNL     1      21.895   4.285  51.941  1.00  0.00    -0.070 P 
HETATM   20  H9  UNL     1      23.147   3.751  52.461  1.00  0.00     0.066 HD
HETATM   21  H10 UNL     1      22.223   5.181  50.825  1.00  0.00     0.066 HD
ENDBRANCH  18  19
ENDBRANCH   1  18
BRANCH   4  22
HETATM   22  C12 UNL     1      25.168  -0.563  53.908  1.00  0.00     0.061 C 
BRANCH  22  23
HETATM   23  C13 UNL     1      25.976  -0.717  52.662  1.00  0.00     0.044 C 
BRANCH  23  24
HETATM   24  C14 UNL     1      27.415  -0.630  53.025  1.00  0.00    -0.058 A 
HETATM   25  C15 UNL     1      28.137  -1.826  53.014  1.00  0.00     0.007 A 
HETATM   26  C16 UNL     1      29.486  -1.884  53.333  1.00  0.00     0.001 A 
HETATM   27  C17 UNL     1      30.145  -0.722  53.673  1.00  0.00     0.000 A 
HETATM   28  C18 UNL     1      29.446   0.468  53.688  1.00  0.00     0.001 A 
HETATM   29  C19 UNL     1      28.092   0.523  53.368  1.00  0.00     0.007 A 
ENDBRANCH  23  24
ENDBRANCH  22  23
ENDBRANCH   4  22
TORSDOF 8
ENDMDL
MODEL 2
REMARK VINA RESULT:      -7.3      5.531      6.841
REMARK  8 active torsions:
REMARK  status: ('A' for Active; 'I' for Inactive)
REMARK    1  A    between atoms: N1_2  and  N2_3 
REMARK    2  A    between atoms: C6_8  and  C7_9 
REMARK    3  A    between atoms: N3_10  and  C8_11 
REMARK    4  A    between atoms: C8_11  and  S1_12 
REMARK    5  A    between atoms: S1_12  and  P1_13 
REMARK    6  A    between atoms: C11_16  and  C12_17 
REMARK    7  A    between atoms: C12_17  and  C13_18 
REMARK    8  A    between atoms: C13_18  and  C14_19 
ROOT
HETATM    1  C8  UNL     1      24.897   1.568  51.662  1.00  0.00     0.105 C 
HETATM    2  C9  UNL     1      25.024   2.574  50.812  1.00  0.00    -0.003 C 
HETATM    3  C10 UNL     1      26.135   3.275  50.180  1.00  0.00     0.036 C 
HETATM    4  C11 UNL     1      25.642   4.393  49.676  1.00  0.00     0.006 C 
HETATM    5  N4  UNL     1      24.248   4.504  49.925  1.00  0.00    -0.389 N 
HETATM    6  C20 UNL     1      23.753   3.186  50.349  1.00  0.00     0.161 C 
HETATM    7  H21 UNL     1      23.622   5.346  49.842  1.00  0.00     0.159 HD
ENDROOT
BRANCH   1   8
HETATM    8  N3  UNL     1      23.748   0.949  52.227  1.00  0.00    -0.251 NA
HETATM    9  C7  UNL     1      23.328   1.158  53.431  1.00  0.00     0.150 C 
BRANCH   9  10
HETATM   10  C6  UNL     1      22.129   0.300  53.540  1.00  0.00     0.081 A 
HETATM   11  N2  UNL     1      20.926   0.376  52.932  1.00  0.00    -0.244 N 
HETATM   12  C2  UNL     1      20.154  -0.644  53.362  1.00  0.00     0.119 A 
HETATM   13  C3  UNL     1      20.824  -1.431  54.275  1.00  0.00     0.028 A 
HETATM   14  C4  UNL     1      22.073  -0.817  54.374  1.00  0.00    -0.030 A 
HETATM   15  C5  UNL     1      23.197  -1.292  55.256  1.00  0.00     0.050 C 
BRANCH  11  16
HETATM   16  N1  UNL     1      20.609   1.384  52.010  1.00  0.00    -0.191 NA
HETATM   17  C1  UNL     1      20.058   2.473  52.435  1.00  0.00     0.173 C 
ENDBRANCH  11  16
ENDBRANCH   9  10
ENDBRANCH   1   8
BRANCH   1  18
HETATM   18  S1  UNL     1      26.022   0.485  52.527  1.00  0.00    -0.084 SA
BRANCH  18  19
HETATM   19  P1  UNL     1      27.584   1.708  53.377  1.00  0.00    -0.070 P 
HETATM   20  H9  UNL     1      27.320   3.080  52.965  1.00  0.00     0.066 HD
HETATM   21  H10 UNL     1      27.428   1.644  54.837  1.00  0.00     0.066 HD
ENDBRANCH  18  19
ENDBRANCH   1  18
BRANCH   4  22
HETATM   22  C12 UNL     1      26.473   5.386  48.946  1.00  0.00     0.061 C 
BRANCH  22  23
HETATM   23  C13 UNL     1      27.838   4.872  48.626  1.00  0.00     0.044 C 
BRANCH  23  24
HETATM   24  C14 UNL     1      28.631   5.987  48.044  1.00  0.00    -0.058 A 
HETATM   25  C15 UNL     1      27.917   7.118  47.637  1.00  0.00     0.007 A 
HETATM   26  C16 UNL     1      28.536   8.226  47.078  1.00  0.00     0.001 A 
HETATM   27  C17 UNL     1      29.904   8.221  46.916  1.00  0.00     0.000 A 
HETATM   28  C18 UNL     1      30.624   7.112  47.313  1.00  0.00     0.001 A 
HETATM   29  C19 UNL     1      30.001   6.000  47.874  1.00  0.00     0.007 A 
ENDBRANCH  23  24
ENDBRANCH  22  23
ENDBRANCH   4  22
TORSDOF 8
ENDMDL
MODEL 3
REMARK VINA RESULT:      -7.3      5.315      7.003
REMARK  8 active torsions:
REMARK  status: ('A' for Active; 'I' for Inactive)
REMARK    1  A    between atoms: N1_2  and  N2_3 
REMARK    2  A    between atoms: C6_8  and  C7_9 
REMARK    3  A    between atoms: N3_10  and  C8_11 
REMARK    4  A    between atoms: C8_11  and  S1_12 
REMARK    5  A    between atoms: S1_12  and  P1_13 
REMARK    6  A    between atoms: C11_16  and  C12_17 
REMARK    7  A    between atoms: C12_17  and  C13_18 
REMARK    8  A    between atoms: C13_18  and  C14_19 
ROOT
HETATM    1  C8  UNL     1      23.108   2.065  50.535  1.00  0.00     0.105 C 
HETATM    2  C9  UNL     1      24.078   2.956  50.420  1.00  0.00    -0.003 C 
HETATM    3  C10 UNL     1      24.496   3.925  49.414  1.00  0.00     0.036 C 
HETATM    4  C11 UNL     1      25.720   4.304  49.736  1.00  0.00     0.006 C 
HETATM    5  N4  UNL     1      26.174   3.650  50.913  1.00  0.00    -0.389 N 
HETATM    6  C20 UNL     1      25.011   3.039  51.573  1.00  0.00     0.161 C 
HETATM    7  H21 UNL     1      27.150   3.577  51.298  1.00  0.00     0.159 HD
ENDROOT
BRANCH   1   8
HETATM    8  N3  UNL     1      22.782   1.152  51.576  1.00  0.00    -0.251 NA
HETATM    9  C7  UNL     1      22.228   1.492  52.693  1.00  0.00     0.150 C 
BRANCH   9  10
HETATM   10  C6  UNL     1      22.096   0.214  53.424  1.00  0.00     0.081 A 
HETATM   11  N2  UNL     1      23.011  -0.528  54.085  1.00  0.00    -0.244 N 
HETATM   12  C2  UNL     1      22.402  -1.621  54.592  1.00  0.00     0.119 A 
HETATM   13  C3  UNL     1      21.059  -1.639  54.280  1.00  0.00     0.028 A 
HETATM   14  C4  UNL     1      20.885  -0.469  53.540  1.00  0.00    -0.030 A 
HETATM   15  C5  UNL     1      19.577  -0.010  52.952  1.00  0.00     0.050 C 
BRANCH  11  16
HETATM   16  N1  UNL     1      24.358  -0.151  54.185  1.00  0.00    -0.191 NA
HETATM   17  C1  UNL     1      25.224  -0.708  53.405  1.00  0.00     0.173 C 
ENDBRANCH  11  16
ENDBRANCH   9  10
ENDBRANCH   1   8
BRANCH   1  18
HETATM   18  S1  UNL     1      21.743   1.533  49.514  1.00  0.00    -0.084 SA
BRANCH  18  19
HETATM   19  P1  UNL     1      20.211   3.048  49.629  1.00  0.00    -0.070 P 
HETATM   20  H9  UNL     1      19.832   3.372  48.260  1.00  0.00     0.066 HD
HETATM   21  H10 UNL     1      19.048   2.430  50.279  1.00  0.00     0.066 HD
ENDBRANCH  18  19
ENDBRANCH   1  18
BRANCH   4  22
HETATM   22  C12 UNL     1      26.494   5.294  48.942  1.00  0.00     0.061 C 
BRANCH  22  23
HETATM   23  C13 UNL     1      27.865   4.814  48.599  1.00  0.00     0.044 C 
BRANCH  23  24
HETATM   24  C14 UNL     1      28.659   5.974  48.116  1.00  0.00    -0.058 A 
HETATM   25  C15 UNL     1      27.937   7.083  47.666  1.00  0.00     0.007 A 
HETATM   26  C16 UNL     1      28.556   8.230  47.191  1.00  0.00     0.001 A 
HETATM   27  C17 UNL     1      29.933   8.286  47.159  1.00  0.00     0.000 A 
HETATM   28  C18 UNL     1      30.660   7.200  47.600  1.00  0.00     0.001 A 
HETATM   29  C19 UNL     1      30.037   6.049  48.078  1.00  0.00     0.007 A 
ENDBRANCH  23  24
ENDBRANCH  22  23
ENDBRANCH   4  22
TORSDOF 8
ENDMDL
MODEL 4
REMARK VINA RESULT:      -7.2      0.777      2.201
REMARK  8 active torsions:
REMARK  status: ('A' for Active; 'I' for Inactive)
REMARK    1  A    between atoms: N1_2  and  N2_3 
REMARK    2  A    between atoms: C6_8  and  C7_9 
REMARK    3  A    between atoms: N3_10  and  C8_11 
REMARK    4  A    between atoms: C8_11  and  S1_12 
REMARK    5  A    between atoms: S1_12  and  P1_13 
REMARK    6  A    between atoms: C11_16  and  C12_17 
REMARK    7  A    between atoms: C12_17  and  C13_18 
REMARK    8  A    between atoms: C13_18  and  C14_19 
ROOT
HETATM    1  C8  UNL     1      21.166   1.672  52.148  1.00  0.00     0.105 C 
HETATM    2  C9  UNL     1      22.043   0.963  52.838  1.00  0.00    -0.003 C 
HETATM    3  C10 UNL     1      23.496   0.930  52.961  1.00  0.00     0.036 C 
HETATM    4  C11 UNL     1      23.800  -0.204  53.568  1.00  0.00     0.006 C 
HETATM    5  N4  UNL     1      22.636  -0.959  53.871  1.00  0.00    -0.389 N 
HETATM    6  C20 UNL     1      21.468  -0.076  53.729  1.00  0.00     0.161 C 
HETATM    7  H21 UNL     1      22.553  -1.970  54.153  1.00  0.00     0.159 HD
ENDROOT
BRANCH   1   8
HETATM    8  N3  UNL     1      19.745   1.626  52.098  1.00  0.00    -0.251 NA
HETATM    9  C7  UNL     1      19.058   1.567  51.005  1.00  0.00     0.150 C 
BRANCH   9  10
HETATM   10  C6  UNL     1      17.655   1.540  51.471  1.00  0.00     0.081 A 
HETATM   11  N2  UNL     1      16.880   0.518  51.892  1.00  0.00    -0.244 N 
HETATM   12  C2  UNL     1      15.661   0.999  52.214  1.00  0.00     0.119 A 
HETATM   13  C3  UNL     1      15.588   2.361  52.013  1.00  0.00     0.028 A 
HETATM   14  C4  UNL     1      16.861   2.685  51.542  1.00  0.00    -0.030 A 
HETATM   15  C5  UNL     1      17.311   4.072  51.166  1.00  0.00     0.050 C 
BRANCH  11  16
HETATM   16  N1  UNL     1      17.345  -0.804  51.957  1.00  0.00    -0.191 NA
HETATM   17  C1  UNL     1      17.675  -1.296  53.105  1.00  0.00     0.173 C 
ENDBRANCH  11  16
ENDBRANCH   9  10
ENDBRANCH   1   8
BRANCH   1  18
HETATM   18  S1  UNL     1      21.257   3.004  50.963  1.00  0.00    -0.084 SA
BRANCH  18  19
HETATM   19  P1  UNL     1      22.213   4.678  51.933  1.00  0.00    -0.070 P 
HETATM   20  H9  UNL     1      22.249   4.378  53.358  1.00  0.00     0.066 HD
HETATM   21  H10 UNL     1      23.600   4.715  51.450  1.00  0.00     0.066 HD
ENDBRANCH  18  19
ENDBRANCH   1  18
BRANCH   4  22
HETATM   22  C12 UNL     1      25.197  -0.605  53.876  1.00  0.00     0.061 C 
BRANCH  22  23
HETATM   23  C13 UNL     1      25.989  -0.929  52.653  1.00  0.00     0.044 C 
BRANCH  23  24
HETATM   24  C14 UNL     1      27.431  -0.924  53.015  1.00  0.00    -0.058 A 
HETATM   25  C15 UNL     1      27.979   0.306  53.388  1.00  0.00     0.007 A 
HETATM   26  C16 UNL     1      29.310   0.448  53.749  1.00  0.00     0.001 A 
HETATM   27  C17 UNL     1      30.130  -0.660  53.743  1.00  0.00     0.000 A 
HETATM   28  C18 UNL     1      29.604  -1.883  53.377  1.00  0.00     0.001 A 
HETATM   29  C19 UNL     1      28.266  -2.023  53.015  1.00  0.00     0.007 A 
ENDBRANCH  23  24
ENDBRANCH  22  23
ENDBRANCH   4  22
TORSDOF 8
ENDMDL
MODEL 5
REMARK VINA RESULT:      -7.2      5.426      6.860
REMARK  8 active torsions:
REMARK  status: ('A' for Active; 'I' for Inactive)
REMARK    1  A    between atoms: N1_2  and  N2_3 
REMARK    2  A    between atoms: C6_8  and  C7_9 
REMARK    3  A    between atoms: N3_10  and  C8_11 
REMARK    4  A    between atoms: C8_11  and  S1_12 
REMARK    5  A    between atoms: S1_12  and  P1_13 
REMARK    6  A    between atoms: C11_16  and  C12_17 
REMARK    7  A    between atoms: C12_17  and  C13_18 
REMARK    8  A    between atoms: C13_18  and  C14_19 
ROOT
HETATM    1  C8  UNL     1      22.888   2.913  51.008  1.00  0.00     0.105 C 
HETATM    2  C9  UNL     1      24.018   3.555  50.760  1.00  0.00    -0.003 C 
HETATM    3  C10 UNL     1      24.444   4.609  49.848  1.00  0.00     0.036 C 
HETATM    4  C11 UNL     1      25.766   4.605  49.853  1.00  0.00     0.006 C 
HETATM    5  N4  UNL     1      26.279   3.603  50.719  1.00  0.00    -0.389 N 
HETATM    6  C20 UNL     1      25.183   3.142  51.584  1.00  0.00     0.161 C 
HETATM    7  H21 UNL     1      27.255   3.216  50.783  1.00  0.00     0.159 HD
ENDROOT
BRANCH   1   8
HETATM    8  N3  UNL     1      22.571   1.882  51.935  1.00  0.00    -0.251 NA
HETATM    9  C7  UNL     1      22.508   0.627  51.633  1.00  0.00     0.150 C 
BRANCH   9  10
HETATM   10  C6  UNL     1      22.151  -0.026  52.910  1.00  0.00     0.081 A 
HETATM   11  N2  UNL     1      20.950  -0.269  53.476  1.00  0.00    -0.244 N 
HETATM   12  C2  UNL     1      21.143  -0.895  54.656  1.00  0.00     0.119 A 
HETATM   13  C3  UNL     1      22.485  -1.086  54.911  1.00  0.00     0.028 A 
HETATM   14  C4  UNL     1      23.107  -0.529  53.793  1.00  0.00    -0.030 A 
HETATM   15  C5  UNL     1      24.596  -0.479  53.574  1.00  0.00     0.050 C 
BRANCH  11  16
HETATM   16  N1  UNL     1      19.741   0.100  52.869  1.00  0.00    -0.191 NA
HETATM   17  C1  UNL     1      18.732  -0.704  52.940  1.00  0.00     0.173 C 
ENDBRANCH  11  16
ENDBRANCH   9  10
ENDBRANCH   1   8
BRANCH   1  18
HETATM   18  S1  UNL     1      21.225   2.972  50.363  1.00  0.00    -0.084 SA
BRANCH  18  19
HETATM   19  P1  UNL     1      21.296   2.314  48.309  1.00  0.00    -0.070 P 
HETATM   20  H9  UNL     1      22.456   2.952  47.699  1.00  0.00     0.066 HD
HETATM   21  H10 UNL     1      21.546   0.867  48.332  1.00  0.00     0.066 HD
ENDBRANCH  18  19
ENDBRANCH   1  18
BRANCH   4  22
HETATM   22  C12 UNL     1      26.579   5.546  49.039  1.00  0.00     0.061 C 
BRANCH  22  23
HETATM   23  C13 UNL     1      27.874   4.953  48.593  1.00  0.00     0.044 C 
BRANCH  23  24
HETATM   24  C14 UNL     1      28.700   6.034  47.992  1.00  0.00    -0.058 A 
HETATM   25  C15 UNL     1      28.011   7.136  47.480  1.00  0.00     0.007 A 
HETATM   26  C16 UNL     1      28.660   8.212  46.892  1.00  0.00     0.001 A 
HETATM   27  C17 UNL     1      30.036   8.201  46.808  1.00  0.00     0.000 A 
HETATM   28  C18 UNL     1      30.731   7.119  47.309  1.00  0.00     0.001 A 
HETATM   29  C19 UNL     1      30.077   6.040  47.899  1.00  0.00     0.007 A 
ENDBRANCH  23  24
ENDBRANCH  22  23
ENDBRANCH   4  22
TORSDOF 8
ENDMDL
MODEL 6
REMARK VINA RESULT:      -7.1      2.679      4.061
REMARK  8 active torsions:
REMARK  status: ('A' for Active; 'I' for Inactive)
REMARK    1  A    between atoms: N1_2  and  N2_3 
REMARK    2  A    between atoms: C6_8  and  C7_9 
REMARK    3  A    between atoms: N3_10  and  C8_11 
REMARK    4  A    between atoms: C8_11  and  S1_12 
REMARK    5  A    between atoms: S1_12  and  P1_13 
REMARK    6  A    between atoms: C11_16  and  C12_17 
REMARK    7  A    between atoms: C12_17  and  C13_18 
REMARK    8  A    between atoms: C13_18  and  C14_19 
ROOT
HETATM    1  C8  UNL     1      23.051   3.470  51.623  1.00  0.00     0.105 C 
HETATM    2  C9  UNL     1      23.350   2.372  52.296  1.00  0.00    -0.003 C 
HETATM    3  C10 UNL     1      24.541   1.830  52.939  1.00  0.00     0.036 C 
HETATM    4  C11 UNL     1      24.298   0.552  53.175  1.00  0.00     0.006 C 
HETATM    5  N4  UNL     1      23.002   0.179  52.729  1.00  0.00    -0.389 N 
HETATM    6  C20 UNL     1      22.234   1.408  52.477  1.00  0.00     0.161 C 
HETATM    7  H21 UNL     1      22.600  -0.783  52.585  1.00  0.00     0.159 HD
ENDROOT
BRANCH   1   8
HETATM    8  N3  UNL     1      21.837   3.912  51.027  1.00  0.00    -0.251 NA
HETATM    9  C7  UNL     1      21.220   4.999  51.355  1.00  0.00     0.150 C 
BRANCH   9  10
HETATM   10  C6  UNL     1      20.037   5.014  50.470  1.00  0.00     0.081 A 
HETATM   11  N2  UNL     1      18.820   4.446  50.607  1.00  0.00    -0.244 N 
HETATM   12  C2  UNL     1      18.073   4.748  49.523  1.00  0.00     0.119 A 
HETATM   13  C3  UNL     1      18.776   5.527  48.629  1.00  0.00     0.028 A 
HETATM   14  C4  UNL     1      20.017   5.685  49.246  1.00  0.00    -0.030 A 
HETATM   15  C5  UNL     1      21.169   6.467  48.673  1.00  0.00     0.050 C 
BRANCH  11  16
HETATM   16  N1  UNL     1      18.466   3.682  51.728  1.00  0.00    -0.191 NA
HETATM   17  C1  UNL     1      18.561   2.395  51.665  1.00  0.00     0.173 C 
ENDBRANCH  11  16
ENDBRANCH   9  10
ENDBRANCH   1   8
BRANCH   1  18
HETATM   18  S1  UNL     1      23.942   4.929  51.110  1.00  0.00    -0.084 SA
BRANCH  18  19
HETATM   19  P1  UNL     1      25.525   4.298  49.786  1.00  0.00    -0.070 P 
HETATM   20  H9  UNL     1      25.365   5.049  48.548  1.00  0.00     0.066 HD
HETATM   21  H10 UNL     1      26.790   4.720  50.402  1.00  0.00     0.066 HD
ENDBRANCH  18  19
ENDBRANCH   1  18
BRANCH   4  22
HETATM   22  C12 UNL     1      25.283  -0.350  53.826  1.00  0.00     0.061 C 
BRANCH  22  23
HETATM   23  C13 UNL     1      26.080  -1.141  52.842  1.00  0.00     0.044 C 
BRANCH  23  24
HETATM   24  C14 UNL     1      27.523  -0.904  53.112  1.00  0.00    -0.058 A 
HETATM   25  C15 UNL     1      27.905   0.417  53.359  1.00  0.00     0.007 A 
HETATM   26  C16 UNL     1      29.219   0.774  53.624  1.00  0.00     0.001 A 
HETATM   27  C17 UNL     1      30.189  -0.205  53.650  1.00  0.00     0.000 A 
HETATM   28  C18 UNL     1      29.827  -1.515  53.409  1.00  0.00     0.001 A 
HETATM   29  C19 UNL     1      28.507  -1.872  53.142  1.00  0.00     0.007 A 
ENDBRANCH  23  24
ENDBRANCH  22  23
ENDBRANCH   4  22
TORSDOF 8
ENDMDL
MODEL 7
REMARK VINA RESULT:      -7.0      9.020     12.252
REMARK  8 active torsions:
REMARK  status: ('A' for Active; 'I' for Inactive)
REMARK    1  A    between atoms: N1_2  and  N2_3 
REMARK    2  A    between atoms: C6_8  and  C7_9 
REMARK    3  A    between atoms: N3_10  and  C8_11 
REMARK    4  A    between atoms: C8_11  and  S1_12 
REMARK    5  A    between atoms: S1_12  and  P1_13 
REMARK    6  A    between atoms: C11_16  and  C12_17 
REMARK    7  A    between atoms: C12_17  and  C13_18 
REMARK    8  A    between atoms: C13_18  and  C14_19 
ROOT
HETATM    1  C8  UNL     1      27.634   8.182  48.751  1.00  0.00     0.105 C 
HETATM    2  C9  UNL     1      27.274   6.910  48.720  1.00  0.00    -0.003 C 
HETATM    3  C10 UNL     1      26.060   6.159  49.013  1.00  0.00     0.036 C 
HETATM    4  C11 UNL     1      26.410   4.887  49.097  1.00  0.00     0.006 C 
HETATM    5  N4  UNL     1      27.803   4.717  48.880  1.00  0.00    -0.389 N 
HETATM    6  C20 UNL     1      28.328   5.957  48.289  1.00  0.00     0.161 C 
HETATM    7  H21 UNL     1      28.411   3.881  49.082  1.00  0.00     0.159 HD
ENDROOT
BRANCH   1   8
HETATM    8  N3  UNL     1      28.865   8.824  48.441  1.00  0.00    -0.251 NA
HETATM    9  C7  UNL     1      29.702   9.257  49.325  1.00  0.00     0.150 C 
BRANCH   9  10
HETATM   10  C6  UNL     1      30.801   9.831  48.520  1.00  0.00     0.081 A 
HETATM   11  N2  UNL     1      31.802   9.239  47.837  1.00  0.00    -0.244 N 
HETATM   12  C2  UNL     1      32.560  10.194  47.257  1.00  0.00     0.119 A 
HETATM   13  C3  UNL     1      32.083  11.456  47.543  1.00  0.00     0.028 A 
HETATM   14  C4  UNL     1      30.969  11.205  48.344  1.00  0.00    -0.030 A 
HETATM   15  C5  UNL     1      30.076  12.266  48.932  1.00  0.00     0.050 C 
BRANCH  11  16
HETATM   16  N1  UNL     1      31.959   7.846  47.784  1.00  0.00    -0.191 NA
HETATM   17  C1  UNL     1      32.816   7.281  48.569  1.00  0.00     0.173 C 
ENDBRANCH  11  16
ENDBRANCH   9  10
ENDBRANCH   1   8
BRANCH   1  18
HETATM   18  S1  UNL     1      26.831   9.721  49.170  1.00  0.00    -0.084 SA
BRANCH  18  19
HETATM   19  P1  UNL     1      25.304  10.087  47.690  1.00  0.00    -0.070 P 
HETATM   20  H9  UNL     1      25.950  10.764  46.573  1.00  0.00     0.066 HD
HETATM   21  H10 UNL     1      24.850   8.774  47.212  1.00  0.00     0.066 HD
ENDBRANCH  18  19
ENDBRANCH   1  18
BRANCH   4  22
HETATM   22  C12 UNL     1      25.439   3.800  49.386  1.00  0.00     0.061 C 
BRANCH  22  23
HETATM   23  C13 UNL     1      24.966   3.810  50.802  1.00  0.00     0.044 C 
BRANCH  23  24
HETATM   24  C14 UNL     1      25.313   2.501  51.419  1.00  0.00    -0.058 A 
HETATM   25  C15 UNL     1      24.292   1.847  52.115  1.00  0.00     0.007 A 
HETATM   26  C16 UNL     1      24.483   0.622  52.736  1.00  0.00     0.001 A 
HETATM   27  C17 UNL     1      25.721   0.020  52.668  1.00  0.00     0.000 A 
HETATM   28  C18 UNL     1      26.739   0.653  51.984  1.00  0.00     0.001 A 
HETATM   29  C19 UNL     1      26.546   1.884  51.361  1.00  0.00     0.007 A 
ENDBRANCH  23  24
ENDBRANCH  22  23
ENDBRANCH   4  22
TORSDOF 8
ENDMDL
MODEL 8
REMARK VINA RESULT:      -7.0      8.949     11.537
REMARK  8 active torsions:
REMARK  status: ('A' for Active; 'I' for Inactive)
REMARK    1  A    between atoms: N1_2  and  N2_3 
REMARK    2  A    between atoms: C6_8  and  C7_9 
REMARK    3  A    between atoms: N3_10  and  C8_11 
REMARK    4  A    between atoms: C8_11  and  S1_12 
REMARK    5  A    between atoms: S1_12  and  P1_13 
REMARK    6  A    between atoms: C11_16  and  C12_17 
REMARK    7  A    between atoms: C12_17  and  C13_18 
REMARK    8  A    between atoms: C13_18  and  C14_19 
ROOT
HETATM    1  C8  UNL     1      26.789   8.088  49.035  1.00  0.00     0.105 C 
HETATM    2  C9  UNL     1      26.783   6.768  48.950  1.00  0.00    -0.003 C 
HETATM    3  C10 UNL     1      25.818   5.708  49.212  1.00  0.00     0.036 C 
HETATM    4  C11 UNL     1      26.497   4.574  49.242  1.00  0.00     0.006 C 
HETATM    5  N4  UNL     1      27.882   4.793  49.014  1.00  0.00    -0.389 N 
HETATM    6  C20 UNL     1      28.048   6.151  48.476  1.00  0.00     0.161 C 
HETATM    7  H21 UNL     1      28.693   4.143  49.179  1.00  0.00     0.159 HD
ENDROOT
BRANCH   1   8
HETATM    8  N3  UNL     1      27.799   9.049  48.750  1.00  0.00    -0.251 NA
HETATM    9  C7  UNL     1      28.589   9.557  49.638  1.00  0.00     0.150 C 
BRANCH   9  10
HETATM   10  C6  UNL     1      29.440  10.484  48.863  1.00  0.00     0.081 A 
HETATM   11  N2  UNL     1      29.293  11.795  48.579  1.00  0.00    -0.244 N 
HETATM   12  C2  UNL     1      30.343  12.200  47.832  1.00  0.00     0.119 A 
HETATM   13  C3  UNL     1      31.221  11.164  47.596  1.00  0.00     0.028 A 
HETATM   14  C4  UNL     1      30.632  10.086  48.256  1.00  0.00    -0.030 A 
HETATM   15  C5  UNL     1      31.202   8.693  48.307  1.00  0.00     0.050 C 
BRANCH  11  16
HETATM   16  N1  UNL     1      28.198  12.546  49.027  1.00  0.00    -0.191 NA
HETATM   17  C1  UNL     1      27.249  12.829  48.197  1.00  0.00     0.173 C 
ENDBRANCH  11  16
ENDBRANCH   9  10
ENDBRANCH   1   8
BRANCH   1  18
HETATM   18  S1  UNL     1      25.609   9.337  49.521  1.00  0.00    -0.084 SA
BRANCH  18  19
HETATM   19  P1  UNL     1      24.498   9.908  47.762  1.00  0.00    -0.070 P 
HETATM   20  H9  UNL     1      23.820   8.711  47.282  1.00  0.00     0.066 HD
HETATM   21  H10 UNL     1      23.466  10.859  48.199  1.00  0.00     0.066 HD
ENDBRANCH  18  19
ENDBRANCH   1  18
BRANCH   4  22
HETATM   22  C12 UNL     1      25.856   3.255  49.486  1.00  0.00     0.061 C 
BRANCH  22  23
HETATM   23  C13 UNL     1      25.029   3.236  50.728  1.00  0.00     0.044 C 
BRANCH  23  24
HETATM   24  C14 UNL     1      25.359   2.003  51.490  1.00  0.00    -0.058 A 
HETATM   25  C15 UNL     1      24.321   1.423  52.223  1.00  0.00     0.007 A 
HETATM   26  C16 UNL     1      24.495   0.271  52.977  1.00  0.00     0.001 A 
HETATM   27  C17 UNL     1      25.735  -0.330  53.007  1.00  0.00     0.000 A 
HETATM   28  C18 UNL     1      26.771   0.230  52.287  1.00  0.00     0.001 A 
HETATM   29  C19 UNL     1      26.594   1.387  51.532  1.00  0.00     0.007 A 
ENDBRANCH  23  24
ENDBRANCH  22  23
ENDBRANCH   4  22
TORSDOF 8
ENDMDL
MODEL 9
REMARK VINA RESULT:      -6.9      2.847      9.280
REMARK  8 active torsions:
REMARK  status: ('A' for Active; 'I' for Inactive)
REMARK    1  A    between atoms: N1_2  and  N2_3 
REMARK    2  A    between atoms: C6_8  and  C7_9 
REMARK    3  A    between atoms: N3_10  and  C8_11 
REMARK    4  A    between atoms: C8_11  and  S1_12 
REMARK    5  A    between atoms: S1_12  and  P1_13 
REMARK    6  A    between atoms: C11_16  and  C12_17 
REMARK    7  A    between atoms: C12_17  and  C13_18 
REMARK    8  A    between atoms: C13_18  and  C14_19 
ROOT
HETATM    1  C8  UNL     1      22.737   0.939  52.403  1.00  0.00     0.105 C 
HETATM    2  C9  UNL     1      21.816   0.154  52.938  1.00  0.00    -0.003 C 
HETATM    3  C10 UNL     1      20.390  -0.073  52.737  1.00  0.00     0.036 C 
HETATM    4  C11 UNL     1      19.962  -0.755  53.785  1.00  0.00     0.006 C 
HETATM    5  N4  UNL     1      21.015  -1.011  54.703  1.00  0.00    -0.389 N 
HETATM    6  C20 UNL     1      22.291  -0.744  54.022  1.00  0.00     0.161 C 
HETATM    7  H21 UNL     1      20.962  -1.336  55.703  1.00  0.00     0.159 HD
ENDROOT
BRANCH   1   8
HETATM    8  N3  UNL     1      24.125   1.088  52.675  1.00  0.00    -0.251 NA
HETATM    9  C7  UNL     1      25.063   0.497  52.011  1.00  0.00     0.150 C 
BRANCH   9  10
HETATM   10  C6  UNL     1      26.305   0.963  52.663  1.00  0.00     0.081 A 
HETATM   11  N2  UNL     1      26.970   0.496  53.741  1.00  0.00    -0.244 N 
HETATM   12  C2  UNL     1      28.059   1.265  53.949  1.00  0.00     0.119 A 
HETATM   13  C3  UNL     1      28.150   2.273  53.012  1.00  0.00     0.028 A 
HETATM   14  C4  UNL     1      27.030   2.065  52.207  1.00  0.00    -0.030 A 
HETATM   15  C5  UNL     1      26.658   2.909  51.017  1.00  0.00     0.050 C 
BRANCH  11  16
HETATM   16  N1  UNL     1      26.533  -0.618  54.472  1.00  0.00    -0.191 NA
HETATM   17  C1  UNL     1      25.781  -0.435  55.506  1.00  0.00     0.173 C 
ENDBRANCH  11  16
ENDBRANCH   9  10
ENDBRANCH   1   8
BRANCH   1  18
HETATM   18  S1  UNL     1      22.761   2.178  51.119  1.00  0.00    -0.084 SA
BRANCH  18  19
HETATM   19  P1  UNL     1      21.461   3.786  51.735  1.00  0.00    -0.070 P 
HETATM   20  H9  UNL     1      20.873   3.391  53.008  1.00  0.00     0.066 HD
HETATM   21  H10 UNL     1      22.316   4.955  51.985  1.00  0.00     0.066 HD
ENDBRANCH  18  19
ENDBRANCH   1  18
BRANCH   4  22
HETATM   22  C12 UNL     1      18.548  -1.181  53.948  1.00  0.00     0.061 C 
BRANCH  22  23
HETATM   23  C13 UNL     1      17.845  -1.363  52.643  1.00  0.00     0.044 C 
BRANCH  23  24
HETATM   24  C14 UNL     1      16.871  -2.477  52.789  1.00  0.00    -0.058 A 
HETATM   25  C15 UNL     1      17.309  -3.604  53.489  1.00  0.00     0.007 A 
HETATM   26  C16 UNL     1      16.501  -4.712  53.696  1.00  0.00     0.001 A 
HETATM   27  C17 UNL     1      15.216  -4.708  53.196  1.00  0.00     0.000 A 
HETATM   28  C18 UNL     1      14.768  -3.602  52.503  1.00  0.00     0.001 A 
HETATM   29  C19 UNL     1      15.582  -2.490  52.296  1.00  0.00     0.007 A 
ENDBRANCH  23  24
ENDBRANCH  22  23
ENDBRANCH   4  22
TORSDOF 8
ENDMDL
