MODEL 1
REMARK VINA RESULT:      -8.3      0.000      0.000
REMARK  4 active torsions:
REMARK  status: ('A' for Active; 'I' for Inactive)
REMARK    1  A    between atoms: C4_5  and  N1_6 
REMARK    2  A    between atoms: N1_6  and  C5_7 
REMARK    3  A    between atoms: C8_12  and  O1_13 
REMARK    4  A    between atoms: O1_13  and  C9_14 
ROOT
HETATM    1  C5  UNL     1      26.674   0.675  53.280  1.00  0.00     0.104 A 
HETATM    2  C6  UNL     1      27.412   0.534  54.429  1.00  0.00     0.152 A 
HETATM    3  N2  UNL     1      28.507   1.251  54.747  1.00  0.00    -0.252 NA
HETATM    4  C7  UNL     1      28.939   2.199  53.873  1.00  0.00     0.235 A 
HETATM    5  N3  UNL     1      28.230   2.351  52.744  1.00  0.00    -0.216 NA
HETATM    6  C8  UNL     1      27.138   1.648  52.412  1.00  0.00     0.199 A 
ENDROOT
BRANCH   1   7
HETATM    7  N1  UNL     1      25.530  -0.057  52.955  1.00  0.00    -0.352 N 
HETATM    8  H3  UNL     1      25.638  -0.838  52.246  1.00  0.00     0.166 HD
BRANCH   7   9
HETATM    9  C4  UNL     1      24.182  -0.006  53.361  1.00  0.00     0.034 A 
HETATM   10  C3  UNL     1      23.565  -0.845  54.261  1.00  0.00     0.032 A 
HETATM   11  C2  UNL     1      22.242  -0.805  54.629  1.00  0.00     0.046 A 
HETATM   12  C1  UNL     1      21.467   0.169  54.039  1.00  0.00     0.138 A 
HETATM   13  F1  UNL     1      20.156   0.257  54.364  1.00  0.00    -0.204 F 
HETATM   14  C16 UNL     1      21.964   1.062  53.131  1.00  0.00     0.074 A 
HETATM   15  C15 UNL     1      23.296   0.939  52.831  1.00  0.00     0.056 A 
HETATM   16 CL1  UNL     1      20.987   2.298  52.382  1.00  0.00    -0.081 Cl
ENDBRANCH   7   9
ENDBRANCH   1   7
BRANCH   6  17
HETATM   17  O1  UNL     1      26.468   1.857  51.246  1.00  0.00    -0.290 OA
BRANCH  17  18
HETATM   18  C9  UNL     1      25.923   3.013  50.754  1.00  0.00     0.078 A 
HETATM   19  C10 UNL     1      24.788   3.741  51.039  1.00  0.00     0.039 A 
HETATM   20  C11 UNL     1      24.495   4.899  50.354  1.00  0.00     0.022 A 
HETATM   21  C12 UNL     1      25.321   5.376  49.358  1.00  0.00     0.011 A 
HETATM   22 BR1  UNL     1      24.816   6.991  48.474  1.00  0.00    -0.051 Br
HETATM   23  C13 UNL     1      26.466   4.674  49.044  1.00  0.00     0.022 A 
HETATM   24  C14 UNL     1      26.758   3.503  49.740  1.00  0.00     0.039 A 
ENDBRANCH  17  18
ENDBRANCH   6  17
TORSDOF 4
ENDMDL
MODEL 2
REMARK VINA RESULT:      -7.9      3.485      5.126
REMARK  4 active torsions:
REMARK  status: ('A' for Active; 'I' for Inactive)
REMARK    1  A    between atoms: C4_5  and  N1_6 
REMARK    2  A    between atoms: N1_6  and  C5_7 
REMARK    3  A    between atoms: C8_12  and  O1_13 
REMARK    4  A    between atoms: O1_13  and  C9_14 
ROOT
HETATM    1  C5  UNL     1      24.907   2.823  51.613  1.00  0.00     0.104 A 
HETATM    2  C6  UNL     1      23.680   2.472  52.116  1.00  0.00     0.152 A 
HETATM    3  N2  UNL     1      22.531   2.427  51.414  1.00  0.00    -0.252 NA
HETATM    4  C7  UNL     1      22.564   2.754  50.094  1.00  0.00     0.235 A 
HETATM    5  N3  UNL     1      23.757   3.099  49.585  1.00  0.00    -0.216 NA
HETATM    6  C8  UNL     1      24.909   3.148  50.268  1.00  0.00     0.199 A 
ENDROOT
BRANCH   1   7
HETATM    7  N1  UNL     1      26.102   2.855  52.337  1.00  0.00    -0.352 N 
HETATM    8  H3  UNL     1      26.450   3.804  52.657  1.00  0.00     0.166 HD
BRANCH   7   9
HETATM    9  C4  UNL     1      27.017   1.875  52.769  1.00  0.00     0.034 A 
HETATM   10  C3  UNL     1      28.224   2.098  53.391  1.00  0.00     0.032 A 
HETATM   11  C2  UNL     1      29.122   1.136  53.783  1.00  0.00     0.046 A 
HETATM   12  C1  UNL     1      28.775  -0.173  53.527  1.00  0.00     0.138 A 
HETATM   13  F1  UNL     1      29.622  -1.164  53.892  1.00  0.00    -0.204 F 
HETATM   14  C16 UNL     1      27.603  -0.522  52.916  1.00  0.00     0.074 A 
HETATM   15  C15 UNL     1      26.775   0.512  52.564  1.00  0.00     0.056 A 
HETATM   16 CL1  UNL     1      27.159  -2.177  52.591  1.00  0.00    -0.081 Cl
ENDBRANCH   7   9
ENDBRANCH   1   7
BRANCH   6  17
HETATM   17  O1  UNL     1      26.083   3.509  49.684  1.00  0.00    -0.290 OA
BRANCH  17  18
HETATM   18  C9  UNL     1      26.475   4.732  49.205  1.00  0.00     0.078 A 
HETATM   19  C10 UNL     1      25.873   5.968  49.109  1.00  0.00     0.039 A 
HETATM   20  C11 UNL     1      26.538   7.042  48.562  1.00  0.00     0.022 A 
HETATM   21  C12 UNL     1      27.828   6.926  48.088  1.00  0.00     0.011 A 
HETATM   22 BR1  UNL     1      28.653   8.482  47.349  1.00  0.00    -0.051 Br
HETATM   23  C13 UNL     1      28.463   5.705  48.166  1.00  0.00     0.022 A 
HETATM   24  C14 UNL     1      27.786   4.620  48.722  1.00  0.00     0.039 A 
ENDBRANCH  17  18
ENDBRANCH   6  17
TORSDOF 4
ENDMDL
MODEL 3
REMARK VINA RESULT:      -7.9      3.430      5.233
REMARK  4 active torsions:
REMARK  status: ('A' for Active; 'I' for Inactive)
REMARK    1  A    between atoms: C4_5  and  N1_6 
REMARK    2  A    between atoms: N1_6  and  C5_7 
REMARK    3  A    between atoms: C8_12  and  O1_13 
REMARK    4  A    between atoms: O1_13  and  C9_14 
ROOT
HETATM    1  C5  UNL     1      23.417  -0.396  53.490  1.00  0.00     0.104 A 
HETATM    2  C6  UNL     1      22.888  -1.052  54.573  1.00  0.00     0.152 A 
HETATM    3  N2  UNL     1      21.624  -0.928  55.022  1.00  0.00    -0.252 NA
HETATM    4  C7  UNL     1      20.781  -0.088  54.364  1.00  0.00     0.235 A 
HETATM    5  N3  UNL     1      21.281   0.562  53.301  1.00  0.00    -0.216 NA
HETATM    6  C8  UNL     1      22.535   0.450  52.841  1.00  0.00     0.199 A 
ENDROOT
BRANCH   1   7
HETATM    7  N1  UNL     1      24.723  -0.534  53.014  1.00  0.00    -0.352 N 
HETATM    8  H3  UNL     1      24.897  -1.279  52.280  1.00  0.00     0.166 HD
BRANCH   7   9
HETATM    9  C4  UNL     1      25.944   0.111  53.293  1.00  0.00     0.034 A 
HETATM   10  C3  UNL     1      26.128   1.457  53.514  1.00  0.00     0.032 A 
HETATM   11  C2  UNL     1      27.327   2.081  53.757  1.00  0.00     0.046 A 
HETATM   12  C1  UNL     1      28.446   1.278  53.781  1.00  0.00     0.138 A 
HETATM   13  F1  UNL     1      29.656   1.838  54.016  1.00  0.00    -0.204 F 
HETATM   14  C16 UNL     1      28.393  -0.073  53.577  1.00  0.00     0.074 A 
HETATM   15  C15 UNL     1      27.149  -0.599  53.343  1.00  0.00     0.056 A 
HETATM   16 CL1  UNL     1      29.807  -1.094  53.606  1.00  0.00    -0.081 Cl
ENDBRANCH   7   9
ENDBRANCH   1   7
BRANCH   6  17
HETATM   17  O1  UNL     1      22.973   1.143  51.755  1.00  0.00    -0.290 OA
BRANCH  17  18
HETATM   18  C9  UNL     1      23.304   2.467  51.646  1.00  0.00     0.078 A 
HETATM   19  C10 UNL     1      23.023   3.596  52.385  1.00  0.00     0.039 A 
HETATM   20  C11 UNL     1      23.513   4.829  52.016  1.00  0.00     0.022 A 
HETATM   21  C12 UNL     1      24.301   4.985  50.894  1.00  0.00     0.011 A 
HETATM   22 BR1  UNL     1      24.924   6.741  50.477  1.00  0.00    -0.051 Br
HETATM   23  C13 UNL     1      24.604   3.879  50.129  1.00  0.00     0.022 A 
HETATM   24  C14 UNL     1      24.106   2.633  50.507  1.00  0.00     0.039 A 
ENDBRANCH  17  18
ENDBRANCH   6  17
TORSDOF 4
ENDMDL
MODEL 4
REMARK VINA RESULT:      -7.7      3.563      5.168
REMARK  4 active torsions:
REMARK  status: ('A' for Active; 'I' for Inactive)
REMARK    1  A    between atoms: C4_5  and  N1_6 
REMARK    2  A    between atoms: N1_6  and  C5_7 
REMARK    3  A    between atoms: C8_12  and  O1_13 
REMARK    4  A    between atoms: O1_13  and  C9_14 
ROOT
HETATM    1  C5  UNL     1      23.396   2.132  50.960  1.00  0.00     0.104 A 
HETATM    2  C6  UNL     1      22.432   1.267  50.506  1.00  0.00     0.152 A 
HETATM    3  N2  UNL     1      21.726   1.411  49.368  1.00  0.00    -0.252 NA
HETATM    4  C7  UNL     1      21.970   2.497  48.586  1.00  0.00     0.235 A 
HETATM    5  N3  UNL     1      22.910   3.354  49.014  1.00  0.00    -0.216 NA
HETATM    6  C8  UNL     1      23.622   3.226  50.143  1.00  0.00     0.199 A 
ENDROOT
BRANCH   1   7
HETATM    7  N1  UNL     1      24.139   1.977  52.133  1.00  0.00    -0.352 N 
HETATM    8  H3  UNL     1      23.768   2.446  53.009  1.00  0.00     0.166 HD
BRANCH   7   9
HETATM    9  C4  UNL     1      25.338   1.313  52.457  1.00  0.00     0.034 A 
HETATM   10  C3  UNL     1      25.562  -0.044  52.405  1.00  0.00     0.032 A 
HETATM   11  C2  UNL     1      26.727  -0.685  52.750  1.00  0.00     0.046 A 
HETATM   12  C1  UNL     1      27.763   0.111  53.186  1.00  0.00     0.138 A 
HETATM   13  F1  UNL     1      28.936  -0.467  53.539  1.00  0.00    -0.204 F 
HETATM   14  C16 UNL     1      27.664   1.471  53.280  1.00  0.00     0.074 A 
HETATM   15  C15 UNL     1      26.460   2.014  52.913  1.00  0.00     0.056 A 
HETATM   16 CL1  UNL     1      28.973   2.483  53.831  1.00  0.00    -0.081 Cl
ENDBRANCH   7   9
ENDBRANCH   1   7
BRANCH   6  17
HETATM   17  O1  UNL     1      24.561   4.137  50.515  1.00  0.00    -0.290 OA
BRANCH  17  18
HETATM   18  C9  UNL     1      25.653   4.589  49.823  1.00  0.00     0.078 A 
HETATM   19  C10 UNL     1      26.798   3.997  49.334  1.00  0.00     0.039 A 
HETATM   20  C11 UNL     1      27.747   4.732  48.658  1.00  0.00     0.022 A 
HETATM   21  C12 UNL     1      27.592   6.086  48.445  1.00  0.00     0.011 A 
HETATM   22 BR1  UNL     1      28.970   7.005  47.496  1.00  0.00    -0.051 Br
HETATM   23  C13 UNL     1      26.459   6.714  48.919  1.00  0.00     0.022 A 
HETATM   24  C14 UNL     1      25.502   5.966  49.602  1.00  0.00     0.039 A 
ENDBRANCH  17  18
ENDBRANCH   6  17
TORSDOF 4
ENDMDL
MODEL 5
REMARK VINA RESULT:      -7.7      4.125      6.512
REMARK  4 active torsions:
REMARK  status: ('A' for Active; 'I' for Inactive)
REMARK    1  A    between atoms: C4_5  and  N1_6 
REMARK    2  A    between atoms: N1_6  and  C5_7 
REMARK    3  A    between atoms: C8_12  and  O1_13 
REMARK    4  A    between atoms: O1_13  and  C9_14 
ROOT
HETATM    1  C5  UNL     1      25.251   2.795  51.457  1.00  0.00     0.104 A 
HETATM    2  C6  UNL     1      25.697   3.654  50.484  1.00  0.00     0.152 A 
HETATM    3  N2  UNL     1      25.032   3.971  49.356  1.00  0.00    -0.252 NA
HETATM    4  C7  UNL     1      23.815   3.403  49.139  1.00  0.00     0.235 A 
HETATM    5  N3  UNL     1      23.363   2.560  50.080  1.00  0.00    -0.216 NA
HETATM    6  C8  UNL     1      24.011   2.234  51.207  1.00  0.00     0.199 A 
ENDROOT
BRANCH   1   7
HETATM    7  N1  UNL     1      25.933   2.477  52.634  1.00  0.00    -0.352 N 
HETATM    8  H3  UNL     1      25.684   3.028  53.504  1.00  0.00     0.166 HD
BRANCH   7   9
HETATM    9  C4  UNL     1      26.938   1.547  52.967  1.00  0.00     0.034 A 
HETATM   10  C3  UNL     1      28.163   1.830  53.526  1.00  0.00     0.032 A 
HETATM   11  C2  UNL     1      29.147   0.918  53.822  1.00  0.00     0.046 A 
HETATM   12  C1  UNL     1      28.875  -0.400  53.529  1.00  0.00     0.138 A 
HETATM   13  F1  UNL     1      29.809  -1.342  53.799  1.00  0.00    -0.204 F 
HETATM   14  C16 UNL     1      27.694  -0.807  52.974  1.00  0.00     0.074 A 
HETATM   15  C15 UNL     1      26.777   0.179  52.717  1.00  0.00     0.056 A 
HETATM   16 CL1  UNL     1      27.345  -2.475  52.602  1.00  0.00    -0.081 Cl
ENDBRANCH   7   9
ENDBRANCH   1   7
BRANCH   6  17
HETATM   17  O1  UNL     1      23.490   1.368  52.119  1.00  0.00    -0.290 OA
BRANCH  17  18
HETATM   18  C9  UNL     1      22.225   0.846  52.195  1.00  0.00     0.078 A 
HETATM   19  C10 UNL     1      21.122   0.867  51.370  1.00  0.00     0.039 A 
HETATM   20  C11 UNL     1      19.953   0.232  51.728  1.00  0.00     0.022 A 
HETATM   21  C12 UNL     1      19.839  -0.447  52.924  1.00  0.00     0.011 A 
HETATM   22 BR1  UNL     1      18.172  -1.290  53.318  1.00  0.00    -0.051 Br
HETATM   23  C13 UNL     1      20.922  -0.489  53.776  1.00  0.00     0.022 A 
HETATM   24  C14 UNL     1      22.103   0.155  53.409  1.00  0.00     0.039 A 
ENDBRANCH  17  18
ENDBRANCH   6  17
TORSDOF 4
ENDMDL
MODEL 6
REMARK VINA RESULT:      -7.6      4.206      6.487
REMARK  4 active torsions:
REMARK  status: ('A' for Active; 'I' for Inactive)
REMARK    1  A    between atoms: C4_5  and  N1_6 
REMARK    2  A    between atoms: N1_6  and  C5_7 
REMARK    3  A    between atoms: C8_12  and  O1_13 
REMARK    4  A    between atoms: O1_13  and  C9_14 
ROOT
HETATM    1  C5  UNL     1      24.697   2.743  51.443  1.00  0.00     0.104 A 
HETATM    2  C6  UNL     1      25.095   3.854  50.742  1.00  0.00     0.152 A 
HETATM    3  N2  UNL     1      24.511   5.067  50.802  1.00  0.00    -0.252 NA
HETATM    4  C7  UNL     1      23.435   5.229  51.617  1.00  0.00     0.235 A 
HETATM    5  N3  UNL     1      23.032   4.153  52.311  1.00  0.00    -0.216 NA
HETATM    6  C8  UNL     1      23.601   2.941  52.264  1.00  0.00     0.199 A 
ENDROOT
BRANCH   1   7
HETATM    7  N1  UNL     1      25.310   1.489  51.393  1.00  0.00    -0.352 N 
HETATM    8  H3  UNL     1      24.937   0.794  50.685  1.00  0.00     0.166 HD
BRANCH   7   9
HETATM    9  C4  UNL     1      26.367   0.883  52.100  1.00  0.00     0.034 A 
HETATM   10  C3  UNL     1      26.600  -0.468  52.225  1.00  0.00     0.032 A 
HETATM   11  C2  UNL     1      27.618  -1.050  52.941  1.00  0.00     0.046 A 
HETATM   12  C1  UNL     1      28.482  -0.196  53.591  1.00  0.00     0.138 A 
HETATM   13  F1  UNL     1      29.504  -0.715  54.312  1.00  0.00    -0.204 F 
HETATM   14  C16 UNL     1      28.356   1.164  53.542  1.00  0.00     0.074 A 
HETATM   15  C15 UNL     1      27.308   1.645  52.801  1.00  0.00     0.056 A 
HETATM   16 CL1  UNL     1      29.448   2.249  54.362  1.00  0.00    -0.081 Cl
ENDBRANCH   7   9
ENDBRANCH   1   7
BRANCH   6  17
HETATM   17  O1  UNL     1      23.136   1.893  52.997  1.00  0.00    -0.290 OA
BRANCH  17  18
HETATM   18  C9  UNL     1      21.923   1.259  52.933  1.00  0.00     0.078 A 
HETATM   19  C10 UNL     1      20.752   1.486  52.243  1.00  0.00     0.039 A 
HETATM   20  C11 UNL     1      19.667   0.650  52.389  1.00  0.00     0.022 A 
HETATM   21  C12 UNL     1      19.707  -0.444  53.229  1.00  0.00     0.011 A 
HETATM   22 BR1  UNL     1      18.145  -1.534  53.353  1.00  0.00    -0.051 Br
HETATM   23  C13 UNL     1      20.862  -0.702  53.937  1.00  0.00     0.022 A 
HETATM   24  C14 UNL     1      21.957   0.146  53.786  1.00  0.00     0.039 A 
ENDBRANCH  17  18
ENDBRANCH   6  17
TORSDOF 4
ENDMDL
MODEL 7
REMARK VINA RESULT:      -7.6      7.026      9.784
REMARK  4 active torsions:
REMARK  status: ('A' for Active; 'I' for Inactive)
REMARK    1  A    between atoms: C4_5  and  N1_6 
REMARK    2  A    between atoms: N1_6  and  C5_7 
REMARK    3  A    between atoms: C8_12  and  O1_13 
REMARK    4  A    between atoms: O1_13  and  C9_14 
ROOT
HETATM    1  C5  UNL     1      30.729   7.670  48.944  1.00  0.00     0.104 A 
HETATM    2  C6  UNL     1      31.329   8.847  49.316  1.00  0.00     0.152 A 
HETATM    3  N2  UNL     1      30.858  10.081  49.056  1.00  0.00    -0.252 NA
HETATM    4  C7  UNL     1      29.691  10.198  48.366  1.00  0.00     0.235 A 
HETATM    5  N3  UNL     1      29.090   9.058  47.994  1.00  0.00    -0.216 NA
HETATM    6  C8  UNL     1      29.544   7.822  48.245  1.00  0.00     0.199 A 
ENDROOT
BRANCH   1   7
HETATM    7  N1  UNL     1      31.210   6.389  49.226  1.00  0.00    -0.352 N 
HETATM    8  H3  UNL     1      30.683   5.820  49.949  1.00  0.00     0.166 HD
BRANCH   7   9
HETATM    9  C4  UNL     1      32.294   5.620  48.757  1.00  0.00     0.034 A 
HETATM   10  C3  UNL     1      33.628   5.946  48.848  1.00  0.00     0.032 A 
HETATM   11  C2  UNL     1      34.676   5.203  48.363  1.00  0.00     0.046 A 
HETATM   12  C1  UNL     1      34.355   4.023  47.729  1.00  0.00     0.138 A 
HETATM   13  F1  UNL     1      35.348   3.249  47.230  1.00  0.00    -0.204 F 
HETATM   14  C16 UNL     1      33.067   3.591  47.577  1.00  0.00     0.074 A 
HETATM   15  C15 UNL     1      32.093   4.403  48.096  1.00  0.00     0.056 A 
HETATM   16 CL1  UNL     1      32.655   2.097  46.775  1.00  0.00    -0.081 Cl
ENDBRANCH   7   9
ENDBRANCH   1   7
BRANCH   6  17
HETATM   17  O1  UNL     1      28.880   6.708  47.835  1.00  0.00    -0.290 OA
BRANCH  17  18
HETATM   18  C9  UNL     1      27.691   6.192  48.282  1.00  0.00     0.078 A 
HETATM   19  C10 UNL     1      26.413   6.690  48.412  1.00  0.00     0.039 A 
HETATM   20  C11 UNL     1      25.393   5.909  48.909  1.00  0.00     0.022 A 
HETATM   21  C12 UNL     1      25.608   4.603  49.297  1.00  0.00     0.011 A 
HETATM   22 BR1  UNL     1      24.121   3.614  49.971  1.00  0.00    -0.051 Br
HETATM   23  C13 UNL     1      26.875   4.070  49.182  1.00  0.00     0.022 A 
HETATM   24  C14 UNL     1      27.904   4.864  48.678  1.00  0.00     0.039 A 
ENDBRANCH  17  18
ENDBRANCH   6  17
TORSDOF 4
ENDMDL
MODEL 8
REMARK VINA RESULT:      -7.5      2.999      5.383
REMARK  4 active torsions:
REMARK  status: ('A' for Active; 'I' for Inactive)
REMARK    1  A    between atoms: C4_5  and  N1_6 
REMARK    2  A    between atoms: N1_6  and  C5_7 
REMARK    3  A    between atoms: C8_12  and  O1_13 
REMARK    4  A    between atoms: O1_13  and  C9_14 
ROOT
HETATM    1  C5  UNL     1      27.427   1.299  52.736  1.00  0.00     0.104 A 
HETATM    2  C6  UNL     1      28.488   1.915  53.349  1.00  0.00     0.152 A 
HETATM    3  N2  UNL     1      29.045   1.537  54.516  1.00  0.00    -0.252 NA
HETATM    4  C7  UNL     1      28.529   0.457  55.161  1.00  0.00     0.235 A 
HETATM    5  N3  UNL     1      27.490  -0.160  54.576  1.00  0.00    -0.216 NA
HETATM    6  C8  UNL     1      26.925   0.203  53.415  1.00  0.00     0.199 A 
ENDROOT
BRANCH   1   7
HETATM    7  N1  UNL     1      26.858   1.681  51.518  1.00  0.00    -0.352 N 
HETATM    8  H3  UNL     1      26.987   1.026  50.695  1.00  0.00     0.166 HD
BRANCH   7   9
HETATM    9  C4  UNL     1      26.111   2.796  51.089  1.00  0.00     0.034 A 
HETATM   10  C3  UNL     1      26.413   3.627  50.034  1.00  0.00     0.032 A 
HETATM   11  C2  UNL     1      25.693   4.729  49.642  1.00  0.00     0.046 A 
HETATM   12  C1  UNL     1      24.565   5.023  50.376  1.00  0.00     0.138 A 
HETATM   13  F1  UNL     1      23.817   6.098  50.034  1.00  0.00    -0.204 F 
HETATM   14  C16 UNL     1      24.161   4.273  51.445  1.00  0.00     0.074 A 
HETATM   15  C15 UNL     1      24.947   3.195  51.756  1.00  0.00     0.056 A 
HETATM   16 CL1  UNL     1      22.734   4.641  52.378  1.00  0.00    -0.081 Cl
ENDBRANCH   7   9
ENDBRANCH   1   7
BRANCH   6  17
HETATM   17  O1  UNL     1      25.871  -0.471  52.881  1.00  0.00    -0.290 OA
BRANCH  17  18
HETATM   18  C9  UNL     1      24.561  -0.493  53.282  1.00  0.00     0.078 A 
HETATM   19  C10 UNL     1      23.904  -0.953  54.403  1.00  0.00     0.039 A 
HETATM   20  C11 UNL     1      22.537  -0.832  54.526  1.00  0.00     0.022 A 
HETATM   21  C12 UNL     1      21.773  -0.250  53.536  1.00  0.00     0.011 A 
HETATM   22 BR1  UNL     1      19.887  -0.136  53.813  1.00  0.00    -0.051 Br
HETATM   23  C13 UNL     1      22.395   0.222  52.400  1.00  0.00     0.022 A 
HETATM   24  C14 UNL     1      23.779   0.098  52.280  1.00  0.00     0.039 A 
ENDBRANCH  17  18
ENDBRANCH   6  17
TORSDOF 4
ENDMDL
MODEL 9
REMARK VINA RESULT:      -7.5      3.239      4.933
REMARK  4 active torsions:
REMARK  status: ('A' for Active; 'I' for Inactive)
REMARK    1  A    between atoms: C4_5  and  N1_6 
REMARK    2  A    between atoms: N1_6  and  C5_7 
REMARK    3  A    between atoms: C8_12  and  O1_13 
REMARK    4  A    between atoms: O1_13  and  C9_14 
ROOT
HETATM    1  C5  UNL     1      23.165   2.977  51.377  1.00  0.00     0.104 A 
HETATM    2  C6  UNL     1      22.712   3.358  50.139  1.00  0.00     0.152 A 
HETATM    3  N2  UNL     1      23.490   3.681  49.087  1.00  0.00    -0.252 NA
HETATM    4  C7  UNL     1      24.841   3.634  49.240  1.00  0.00     0.235 A 
HETATM    5  N3  UNL     1      25.301   3.263  50.445  1.00  0.00    -0.216 NA
HETATM    6  C8  UNL     1      24.542   2.938  51.501  1.00  0.00     0.199 A 
ENDROOT
BRANCH   1   7
HETATM    7  N1  UNL     1      22.359   2.628  52.464  1.00  0.00    -0.352 N 
HETATM    8  H3  UNL     1      22.086   3.402  53.135  1.00  0.00     0.166 HD
BRANCH   7   9
HETATM    9  C4  UNL     1      21.789   1.423  52.917  1.00  0.00     0.034 A 
HETATM   10  C3  UNL     1      22.410   0.456  53.675  1.00  0.00     0.032 A 
HETATM   11  C2  UNL     1      21.853  -0.729  54.089  1.00  0.00     0.046 A 
HETATM   12  C1  UNL     1      20.551  -0.966  53.706  1.00  0.00     0.138 A 
HETATM   13  F1  UNL     1      19.951  -2.119  54.085  1.00  0.00    -0.204 F 
HETATM   14  C16 UNL     1      19.828  -0.084  52.953  1.00  0.00     0.074 A 
HETATM   15  C15 UNL     1      20.474   1.070  52.592  1.00  0.00     0.056 A 
HETATM   16 CL1  UNL     1      18.179  -0.379  52.467  1.00  0.00    -0.081 Cl
ENDBRANCH   7   9
ENDBRANCH   1   7
BRANCH   6  17
HETATM   17  O1  UNL     1      25.081   2.570  52.695  1.00  0.00    -0.290 OA
BRANCH  17  18
HETATM   18  C9  UNL     1      26.220   1.853  52.950  1.00  0.00     0.078 A 
HETATM   19  C10 UNL     1      27.472   2.170  53.431  1.00  0.00     0.039 A 
HETATM   20  C11 UNL     1      28.442   1.204  53.582  1.00  0.00     0.022 A 
HETATM   21  C12 UNL     1      28.201  -0.116  53.258  1.00  0.00     0.011 A 
HETATM   22 BR1  UNL     1      29.619  -1.370  53.508  1.00  0.00    -0.051 Br
HETATM   23  C13 UNL     1      26.961  -0.471  52.773  1.00  0.00     0.022 A 
HETATM   24  C14 UNL     1      25.982   0.510  52.622  1.00  0.00     0.039 A 
ENDBRANCH  17  18
ENDBRANCH   6  17
TORSDOF 4
ENDMDL
