MODEL 1
REMARK VINA RESULT:      -9.4      0.000      0.000
REMARK  4 active torsions:
REMARK  status: ('A' for Active; 'I' for Inactive)
REMARK    1  A    between atoms: O1_2  and  C2_3 
REMARK    2  A    between atoms: C10_11  and  C11_12 
REMARK    3  A    between atoms: C11_12  and  N1_13 
REMARK    4  A    between atoms: C11_12  and  C12_14 
ROOT
HETATM    1  C11 UNL     1      24.987   2.802  51.902  1.00  0.00     0.271 C 
ENDROOT
BRANCH   1   2
HETATM    2  C10 UNL     1      25.369   1.507  52.373  1.00  0.00    -0.034 A 
HETATM    3  C9  UNL     1      26.301   0.557  52.275  1.00  0.00     0.023 A 
HETATM    4  C8  UNL     1      27.150  -0.492  52.267  1.00  0.00    -0.013 A 
HETATM    5  C25 UNL     1      27.438   1.531  52.418  1.00  0.00     0.062 A 
HETATM    6  C6  UNL     1      25.505  -0.288  53.126  1.00  0.00     0.028 A 
HETATM    7  C7  UNL     1      26.427  -1.309  53.064  1.00  0.00    -0.011 A 
HETATM    8  C2  UNL     1      27.668   1.621  53.939  1.00  0.00     0.101 A 
HETATM    9  C3  UNL     1      26.713   0.736  54.203  1.00  0.00     0.056 A 
HETATM   10  C4  UNL     1      25.971  -0.021  55.280  1.00  0.00    -0.021 A 
HETATM   11  C5  UNL     1      25.097  -0.758  54.487  1.00  0.00    -0.011 A 
HETATM   12  C24 UNL     1      24.614   0.711  53.181  1.00  0.00    -0.002 A 
BRANCH   8  13
HETATM   13  O1  UNL     1      28.686   2.532  54.101  1.00  0.00    -0.381 OA
HETATM   14  C1  UNL     1      29.900   2.163  54.754  1.00  0.00     0.202 C 
ENDBRANCH   8  13
ENDBRANCH   1   2
BRANCH   1  15
HETATM   15  N1  UNL     1      24.160   3.473  52.910  1.00  0.00     0.089 N 
HETATM   16  H10 UNL     1      23.151   3.427  52.692  1.00  0.00     0.313 HD
HETATM   17  H11 UNL     1      24.483   4.441  53.095  1.00  0.00     0.313 HD
ENDBRANCH   1  15
BRANCH   1  18
HETATM   18  C12 UNL     1      24.085   2.802  50.655  1.00  0.00     0.052 C 
HETATM   19  C13 UNL     1      24.421   3.621  49.526  1.00  0.00     0.112 C 
HETATM   20  C14 UNL     1      23.328   3.278  48.629  1.00  0.00    -0.016 C 
HETATM   21  C15 UNL     1      22.236   2.527  48.359  1.00  0.00    -0.083 C 
HETATM   22  C16 UNL     1      21.898   3.176  47.077  1.00  0.00     0.034 C 
HETATM   23  C23 UNL     1      21.526   1.289  48.628  1.00  0.00     0.034 C 
HETATM   24  C17 UNL     1      20.598   3.956  47.402  1.00  0.00     0.012 C 
HETATM   25  C18 UNL     1      20.936   4.729  48.680  1.00  0.00     0.081 C 
HETATM   26  C19 UNL     1      21.031   3.802  49.821  1.00  0.00     0.149 C 
HETATM   27  O2  UNL     1      19.906   4.011  50.372  1.00  0.00    -0.296 OA
HETATM   28  C20 UNL     1      21.467   2.816  50.785  1.00  0.00     0.147 C 
HETATM   29  C21 UNL     1      20.449   1.641  50.823  1.00  0.00     0.033 C 
HETATM   30  N2  UNL     1      22.730   2.105  50.645  1.00  0.00    -0.403 N 
HETATM   31  C22 UNL     1      20.233   1.266  49.345  1.00  0.00     0.007 C 
HETATM   32  H27 UNL     1      23.473   1.392  50.531  1.00  0.00     0.154 HD
ENDBRANCH   1  18
TORSDOF 4
ENDMDL
MODEL 2
REMARK VINA RESULT:      -9.3      1.133      2.201
REMARK  4 active torsions:
REMARK  status: ('A' for Active; 'I' for Inactive)
REMARK    1  A    between atoms: O1_2  and  C2_3 
REMARK    2  A    between atoms: C10_11  and  C11_12 
REMARK    3  A    between atoms: C11_12  and  N1_13 
REMARK    4  A    between atoms: C11_12  and  C12_14 
ROOT
HETATM    1  C11 UNL     1      24.567   3.126  52.158  1.00  0.00     0.271 C 
ENDROOT
BRANCH   1   2
HETATM    2  C10 UNL     1      24.992   1.788  52.431  1.00  0.00    -0.034 A 
HETATM    3  C9  UNL     1      25.908   0.866  52.129  1.00  0.00     0.023 A 
HETATM    4  C8  UNL     1      26.750  -0.167  51.913  1.00  0.00    -0.013 A 
HETATM    5  C25 UNL     1      27.055   1.827  52.275  1.00  0.00     0.062 A 
HETATM    6  C6  UNL     1      25.198  -0.083  52.948  1.00  0.00     0.028 A 
HETATM    7  C7  UNL     1      26.108  -1.080  52.673  1.00  0.00    -0.011 A 
HETATM    8  C2  UNL     1      27.434   1.738  53.766  1.00  0.00     0.101 A 
HETATM    9  C3  UNL     1      26.509   0.818  54.015  1.00  0.00     0.056 A 
HETATM   10  C4  UNL     1      25.875  -0.069  55.062  1.00  0.00    -0.021 A 
HETATM   11  C5  UNL     1      24.926  -0.715  54.276  1.00  0.00    -0.011 A 
HETATM   12  C24 UNL     1      24.318   0.894  53.209  1.00  0.00    -0.002 A 
BRANCH   8  13
HETATM   13  O1  UNL     1      28.465   2.633  53.934  1.00  0.00    -0.381 OA
HETATM   14  C1  UNL     1      29.705   2.221  54.508  1.00  0.00     0.202 C 
ENDBRANCH   8  13
ENDBRANCH   1   2
BRANCH   1  15
HETATM   15  N1  UNL     1      24.391   3.857  53.417  1.00  0.00     0.089 N 
HETATM   16  H10 UNL     1      24.359   3.232  54.239  1.00  0.00     0.313 HD
HETATM   17  H11 UNL     1      23.582   4.505  53.379  1.00  0.00     0.313 HD
ENDBRANCH   1  15
BRANCH   1  18
HETATM   18  C12 UNL     1      23.187   3.247  51.488  1.00  0.00     0.052 C 
HETATM   19  C13 UNL     1      21.996   3.204  52.286  1.00  0.00     0.112 C 
HETATM   20  C14 UNL     1      20.989   3.372  51.250  1.00  0.00    -0.016 C 
HETATM   21  C15 UNL     1      20.681   3.607  49.954  1.00  0.00    -0.083 C 
HETATM   22  C16 UNL     1      19.219   3.471  50.101  1.00  0.00     0.034 C 
HETATM   23  C23 UNL     1      21.122   4.177  48.693  1.00  0.00     0.034 C 
HETATM   24  C17 UNL     1      18.907   2.146  49.358  1.00  0.00     0.012 C 
HETATM   25  C18 UNL     1      19.914   1.147  49.935  1.00  0.00     0.081 C 
HETATM   26  C19 UNL     1      21.269   1.460  49.450  1.00  0.00     0.149 C 
HETATM   27  O2  UNL     1      21.392   0.574  48.548  1.00  0.00    -0.296 OA
HETATM   28  C20 UNL     1      22.577   2.041  49.242  1.00  0.00     0.147 C 
HETATM   29  C21 UNL     1      22.704   2.520  47.768  1.00  0.00     0.033 C 
HETATM   30  N2  UNL     1      23.025   3.217  49.973  1.00  0.00    -0.403 N 
HETATM   31  C22 UNL     1      21.422   3.336  47.515  1.00  0.00     0.007 C 
HETATM   32  H27 UNL     1      23.353   4.159  50.255  1.00  0.00     0.154 HD
ENDBRANCH   1  18
TORSDOF 4
ENDMDL
MODEL 3
REMARK VINA RESULT:      -9.1      1.787      2.974
REMARK  4 active torsions:
REMARK  status: ('A' for Active; 'I' for Inactive)
REMARK    1  A    between atoms: O1_2  and  C2_3 
REMARK    2  A    between atoms: C10_11  and  C11_12 
REMARK    3  A    between atoms: C11_12  and  N1_13 
REMARK    4  A    between atoms: C11_12  and  C12_14 
ROOT
HETATM    1  C11 UNL     1      24.491   0.295  53.986  1.00  0.00     0.271 C 
ENDROOT
BRANCH   1   2
HETATM    2  C10 UNL     1      25.906   0.099  53.955  1.00  0.00    -0.034 A 
HETATM    3  C9  UNL     1      26.899  -0.483  53.279  1.00  0.00     0.023 A 
HETATM    4  C8  UNL     1      27.998  -1.025  52.713  1.00  0.00    -0.013 A 
HETATM    5  C25 UNL     1      26.402   0.006  51.947  1.00  0.00     0.062 A 
HETATM    6  C6  UNL     1      27.822  -0.055  54.298  1.00  0.00     0.028 A 
HETATM    7  C7  UNL     1      28.889  -0.638  53.651  1.00  0.00    -0.011 A 
HETATM    8  C2  UNL     1      27.073   1.383  51.777  1.00  0.00     0.101 A 
HETATM    9  C3  UNL     1      27.724   1.282  52.931  1.00  0.00     0.056 A 
HETATM   10  C4  UNL     1      28.687   1.948  53.887  1.00  0.00    -0.021 A 
HETATM   11  C5  UNL     1      28.748   0.969  54.874  1.00  0.00    -0.011 A 
HETATM   12  C24 UNL     1      26.777   0.509  54.920  1.00  0.00    -0.002 A 
BRANCH   8  13
HETATM   13  O1  UNL     1      26.609   1.869  50.576  1.00  0.00    -0.381 OA
HETATM   14  C1  UNL     1      26.619   3.269  50.302  1.00  0.00     0.202 C 
ENDBRANCH   8  13
ENDBRANCH   1   2
BRANCH   1  15
HETATM   15  N1  UNL     1      23.811  -0.939  53.576  1.00  0.00     0.089 N 
HETATM   16  H10 UNL     1      22.783  -0.839  53.554  1.00  0.00     0.313 HD
HETATM   17  H11 UNL     1      24.118  -1.755  54.138  1.00  0.00     0.313 HD
ENDBRANCH   1  15
BRANCH   1  18
HETATM   18  C12 UNL     1      23.955   1.336  52.987  1.00  0.00     0.052 C 
HETATM   19  C13 UNL     1      24.178   2.734  53.218  1.00  0.00     0.112 C 
HETATM   20  C14 UNL     1      23.530   3.294  52.042  1.00  0.00    -0.016 C 
HETATM   21  C15 UNL     1      22.907   3.104  50.856  1.00  0.00    -0.083 C 
HETATM   22  C16 UNL     1      22.629   4.528  50.584  1.00  0.00     0.034 C 
HETATM   23  C23 UNL     1      22.701   2.211  49.730  1.00  0.00     0.034 C 
HETATM   24  C17 UNL     1      21.090   4.629  50.747  1.00  0.00     0.012 C 
HETATM   25  C18 UNL     1      20.810   3.953  52.092  1.00  0.00     0.081 C 
HETATM   26  C19 UNL     1      21.013   2.498  51.977  1.00  0.00     0.149 C 
HETATM   27  O2  UNL     1      19.806   2.111  51.894  1.00  0.00    -0.296 OA
HETATM   28  C20 UNL     1      21.582   1.171  51.886  1.00  0.00     0.147 C 
HETATM   29  C21 UNL     1      21.125   0.499  50.559  1.00  0.00     0.033 C 
HETATM   30  N2  UNL     1      23.020   0.948  51.848  1.00  0.00    -0.403 N 
HETATM   31  C22 UNL     1      21.399   1.558  49.475  1.00  0.00     0.007 C 
HETATM   32  H27 UNL     1      23.988   0.689  51.587  1.00  0.00     0.154 HD
ENDBRANCH   1  18
TORSDOF 4
ENDMDL
MODEL 4
REMARK VINA RESULT:      -9.1      7.948      9.676
REMARK  4 active torsions:
REMARK  status: ('A' for Active; 'I' for Inactive)
REMARK    1  A    between atoms: O1_2  and  C2_3 
REMARK    2  A    between atoms: C10_11  and  C11_12 
REMARK    3  A    between atoms: C11_12  and  N1_13 
REMARK    4  A    between atoms: C11_12  and  C12_14 
ROOT
HETATM    1  C11 UNL     1      31.664   6.305  49.168  1.00  0.00     0.271 C 
ENDROOT
BRANCH   1   2
HETATM    2  C10 UNL     1      32.311   5.551  48.140  1.00  0.00    -0.034 A 
HETATM    3  C9  UNL     1      32.965   5.650  46.981  1.00  0.00     0.023 A 
HETATM    4  C8  UNL     1      33.623   5.592  45.804  1.00  0.00    -0.013 A 
HETATM    5  C25 UNL     1      33.863   6.750  47.477  1.00  0.00     0.062 A 
HETATM    6  C6  UNL     1      32.987   4.213  46.889  1.00  0.00     0.028 A 
HETATM    7  C7  UNL     1      33.660   4.247  45.689  1.00  0.00    -0.011 A 
HETATM    8  C2  UNL     1      35.057   6.006  48.106  1.00  0.00     0.101 A 
HETATM    9  C3  UNL     1      34.566   4.813  47.792  1.00  0.00     0.056 A 
HETATM   10  C4  UNL     1      34.777   3.318  47.850  1.00  0.00    -0.021 A 
HETATM   11  C5  UNL     1      33.624   2.895  47.194  1.00  0.00    -0.011 A 
HETATM   12  C24 UNL     1      32.331   4.190  48.058  1.00  0.00    -0.002 A 
BRANCH   8  13
HETATM   13  O1  UNL     1      35.882   6.992  48.598  1.00  0.00    -0.381 OA
HETATM   14  C1  UNL     1      35.693   8.356  48.224  1.00  0.00     0.202 C 
ENDBRANCH   8  13
ENDBRANCH   1   2
BRANCH   1  15
HETATM   15  N1  UNL     1      31.557   5.494  50.385  1.00  0.00     0.089 N 
HETATM   16  H10 UNL     1      32.369   4.871  50.521  1.00  0.00     0.313 HD
HETATM   17  H11 UNL     1      30.654   4.985  50.434  1.00  0.00     0.313 HD
ENDBRANCH   1  15
BRANCH   1  18
HETATM   18  C12 UNL     1      30.202   6.686  48.873  1.00  0.00     0.052 C 
HETATM   19  C13 UNL     1      29.355   5.780  48.152  1.00  0.00     0.112 C 
HETATM   20  C14 UNL     1      28.116   6.543  48.141  1.00  0.00    -0.016 C 
HETATM   21  C15 UNL     1      27.416   7.629  48.540  1.00  0.00    -0.083 C 
HETATM   22  C16 UNL     1      26.185   7.321  47.785  1.00  0.00     0.034 C 
HETATM   23  C23 UNL     1      27.282   8.683  49.529  1.00  0.00     0.034 C 
HETATM   24  C17 UNL     1      26.166   8.403  46.674  1.00  0.00     0.012 C 
HETATM   25  C18 UNL     1      27.571   8.341  46.067  1.00  0.00     0.081 C 
HETATM   26  C19 UNL     1      28.555   8.891  47.016  1.00  0.00     0.149 C 
HETATM   27  O2  UNL     1      28.733  10.042  46.509  1.00  0.00    -0.296 OA
HETATM   28  C20 UNL     1      29.476   9.087  48.113  1.00  0.00     0.147 C 
HETATM   29  C21 UNL     1      29.035  10.324  48.948  1.00  0.00     0.033 C 
HETATM   30  N2  UNL     1      29.666   8.085  49.152  1.00  0.00    -0.403 N 
HETATM   31  C22 UNL     1      27.532  10.103  49.201  1.00  0.00     0.007 C 
HETATM   32  H27 UNL     1      29.710   7.561  50.044  1.00  0.00     0.154 HD
ENDBRANCH   1  18
TORSDOF 4
ENDMDL
MODEL 5
REMARK VINA RESULT:      -8.6      1.838      6.939
REMARK  4 active torsions:
REMARK  status: ('A' for Active; 'I' for Inactive)
REMARK    1  A    between atoms: O1_2  and  C2_3 
REMARK    2  A    between atoms: C10_11  and  C11_12 
REMARK    3  A    between atoms: C11_12  and  N1_13 
REMARK    4  A    between atoms: C11_12  and  C12_14 
ROOT
HETATM    1  C11 UNL     1      24.276   3.119  51.416  1.00  0.00     0.271 C 
ENDROOT
BRANCH   1   2
HETATM    2  C10 UNL     1      23.023   2.432  51.397  1.00  0.00    -0.034 A 
HETATM    3  C9  UNL     1      21.853   2.307  52.027  1.00  0.00     0.023 A 
HETATM    4  C8  UNL     1      20.640   2.062  52.566  1.00  0.00    -0.013 A 
HETATM    5  C25 UNL     1      21.642   3.793  52.122  1.00  0.00     0.062 A 
HETATM    6  C6  UNL     1      21.504   1.233  51.134  1.00  0.00     0.028 A 
HETATM    7  C7  UNL     1      20.283   1.052  51.743  1.00  0.00    -0.011 A 
HETATM    8  C2  UNL     1      20.915   4.154  50.812  1.00  0.00     0.101 A 
HETATM    9  C3  UNL     1      20.891   2.892  50.399  1.00  0.00     0.056 A 
HETATM   10  C4  UNL     1      20.468   1.942  49.303  1.00  0.00    -0.021 A 
HETATM   11  C5  UNL     1      20.920   0.743  49.847  1.00  0.00    -0.011 A 
HETATM   12  C24 UNL     1      22.696   1.418  50.547  1.00  0.00    -0.002 A 
BRANCH   8  13
HETATM   13  O1  UNL     1      20.737   5.518  50.859  1.00  0.00    -0.381 OA
HETATM   14  C1  UNL     1      21.855   6.398  50.961  1.00  0.00     0.202 C 
ENDBRANCH   8  13
ENDBRANCH   1   2
BRANCH   1  15
HETATM   15  N1  UNL     1      24.806   3.221  50.052  1.00  0.00     0.089 N 
HETATM   16  H10 UNL     1      24.103   2.984  49.333  1.00  0.00     0.313 HD
HETATM   17  H11 UNL     1      25.688   2.686  49.937  1.00  0.00     0.313 HD
ENDBRANCH   1  15
BRANCH   1  18
HETATM   18  C12 UNL     1      25.404   2.397  52.174  1.00  0.00     0.052 C 
HETATM   19  C13 UNL     1      26.762   2.524  51.732  1.00  0.00     0.112 C 
HETATM   20  C14 UNL     1      27.434   1.713  52.736  1.00  0.00    -0.016 C 
HETATM   21  C15 UNL     1      27.374   0.990  53.877  1.00  0.00    -0.083 C 
HETATM   22  C16 UNL     1      28.788   0.566  53.881  1.00  0.00     0.034 C 
HETATM   23  C23 UNL     1      26.656   0.744  55.115  1.00  0.00     0.034 C 
HETATM   24  C17 UNL     1      28.707  -0.951  53.569  1.00  0.00     0.012 C 
HETATM   25  C18 UNL     1      27.801  -1.032  52.337  1.00  0.00     0.081 C 
HETATM   26  C19 UNL     1      26.411  -0.721  52.712  1.00  0.00     0.149 C 
HETATM   27  O2  UNL     1      25.923  -1.893  52.752  1.00  0.00    -0.296 OA
HETATM   28  C20 UNL     1      25.179  -0.055  53.074  1.00  0.00     0.147 C 
HETATM   29  C21 UNL     1      24.685  -0.588  54.449  1.00  0.00     0.033 C 
HETATM   30  N2  UNL     1      25.110   1.386  53.275  1.00  0.00    -0.403 N 
HETATM   31  C22 UNL     1      25.925  -0.517  55.360  1.00  0.00     0.007 C 
HETATM   32  H27 UNL     1      24.994   2.340  53.660  1.00  0.00     0.154 HD
ENDBRANCH   1  18
TORSDOF 4
ENDMDL
MODEL 6
REMARK VINA RESULT:      -8.5      4.835      7.125
REMARK  4 active torsions:
REMARK  status: ('A' for Active; 'I' for Inactive)
REMARK    1  A    between atoms: O1_2  and  C2_3 
REMARK    2  A    between atoms: C10_11  and  C11_12 
REMARK    3  A    between atoms: C11_12  and  N1_13 
REMARK    4  A    between atoms: C11_12  and  C12_14 
ROOT
HETATM    1  C11 UNL     1      25.534   7.255  49.545  1.00  0.00     0.271 C 
ENDROOT
BRANCH   1   2
HETATM    2  C10 UNL     1      26.601   7.354  48.599  1.00  0.00    -0.034 A 
HETATM    3  C9  UNL     1      27.013   7.994  47.503  1.00  0.00     0.023 A 
HETATM    4  C8  UNL     1      27.552   8.541  46.393  1.00  0.00    -0.013 A 
HETATM    5  C25 UNL     1      26.664   9.350  48.053  1.00  0.00     0.062 A 
HETATM    6  C6  UNL     1      28.162   7.127  47.448  1.00  0.00     0.028 A 
HETATM    7  C7  UNL     1      28.639   7.745  46.314  1.00  0.00    -0.011 A 
HETATM    8  C2  UNL     1      27.934   9.789  48.807  1.00  0.00     0.101 A 
HETATM    9  C3  UNL     1      28.593   8.684  48.477  1.00  0.00     0.056 A 
HETATM   10  C4  UNL     1      29.892   7.921  48.590  1.00  0.00    -0.021 A 
HETATM   11  C5  UNL     1      29.566   6.794  47.842  1.00  0.00    -0.011 A 
HETATM   12  C24 UNL     1      27.688   6.533  48.553  1.00  0.00    -0.002 A 
BRANCH   8  13
HETATM   13  O1  UNL     1      27.630  11.017  49.347  1.00  0.00    -0.381 OA
HETATM   14  C1  UNL     1      28.341  12.188  48.948  1.00  0.00     0.202 C 
ENDBRANCH   8  13
ENDBRANCH   1   2
BRANCH   1  15
HETATM   15  N1  UNL     1      26.064   7.378  50.907  1.00  0.00     0.089 N 
HETATM   16  H10 UNL     1      27.087   7.236  50.950  1.00  0.00     0.313 HD
HETATM   17  H11 UNL     1      25.551   6.777  51.579  1.00  0.00     0.313 HD
ENDBRANCH   1  15
BRANCH   1  18
HETATM   18  C12 UNL     1      24.813   5.895  49.574  1.00  0.00     0.052 C 
HETATM   19  C13 UNL     1      24.055   5.461  48.436  1.00  0.00     0.112 C 
HETATM   20  C14 UNL     1      23.599   4.164  48.913  1.00  0.00    -0.016 C 
HETATM   21  C15 UNL     1      23.621   3.201  49.863  1.00  0.00    -0.083 C 
HETATM   22  C16 UNL     1      22.634   2.311  49.221  1.00  0.00     0.034 C 
HETATM   23  C23 UNL     1      24.357   2.609  50.965  1.00  0.00     0.034 C 
HETATM   24  C17 UNL     1      21.396   2.422  50.148  1.00  0.00     0.012 C 
HETATM   25  C18 UNL     1      21.192   3.930  50.320  1.00  0.00     0.081 C 
HETATM   26  C19 UNL     1      22.260   4.491  51.165  1.00  0.00     0.149 C 
HETATM   27  O2  UNL     1      21.636   4.604  52.266  1.00  0.00    -0.296 OA
HETATM   28  C20 UNL     1      23.512   5.011  51.670  1.00  0.00     0.147 C 
HETATM   29  C21 UNL     1      23.991   4.142  52.867  1.00  0.00     0.033 C 
HETATM   30  N2  UNL     1      24.712   5.068  50.849  1.00  0.00    -0.403 N 
HETATM   31  C22 UNL     1      23.879   2.691  52.362  1.00  0.00     0.007 C 
HETATM   32  H27 UNL     1      25.659   4.945  50.446  1.00  0.00     0.154 HD
ENDBRANCH   1  18
TORSDOF 4
ENDMDL
MODEL 7
REMARK VINA RESULT:      -8.3      9.714     11.246
REMARK  4 active torsions:
REMARK  status: ('A' for Active; 'I' for Inactive)
REMARK    1  A    between atoms: O1_2  and  C2_3 
REMARK    2  A    between atoms: C10_11  and  C11_12 
REMARK    3  A    between atoms: C11_12  and  N1_13 
REMARK    4  A    between atoms: C11_12  and  C12_14 
ROOT
HETATM    1  C11 UNL     1      32.965   7.119  46.749  1.00  0.00     0.271 C 
ENDROOT
BRANCH   1   2
HETATM    2  C10 UNL     1      33.044   5.701  46.912  1.00  0.00    -0.034 A 
HETATM    3  C9  UNL     1      32.560   4.538  46.472  1.00  0.00     0.023 A 
HETATM    4  C8  UNL     1      32.154   3.293  46.142  1.00  0.00    -0.013 A 
HETATM    5  C25 UNL     1      32.717   4.915  45.025  1.00  0.00     0.062 A 
HETATM    6  C6  UNL     1      33.321   3.856  47.486  1.00  0.00     0.028 A 
HETATM    7  C7  UNL     1      32.856   2.624  47.082  1.00  0.00    -0.011 A 
HETATM    8  C2  UNL     1      34.149   4.470  44.672  1.00  0.00     0.101 A 
HETATM    9  C3  UNL     1      34.369   3.984  45.888  1.00  0.00     0.056 A 
HETATM   10  C4  UNL     1      35.357   3.294  46.801  1.00  0.00    -0.021 A 
HETATM   11  C5  UNL     1      34.586   3.209  47.956  1.00  0.00    -0.011 A 
HETATM   12  C24 UNL     1      33.769   5.059  47.872  1.00  0.00    -0.002 A 
BRANCH   8  13
HETATM   13  O1  UNL     1      34.330   4.834  43.357  1.00  0.00    -0.381 OA
HETATM   14  C1  UNL     1      33.302   4.619  42.391  1.00  0.00     0.202 C 
ENDBRANCH   8  13
ENDBRANCH   1   2
BRANCH   1  15
HETATM   15  N1  UNL     1      34.174   7.748  47.292  1.00  0.00     0.089 N 
HETATM   16  H10 UNL     1      35.042   7.314  46.939  1.00  0.00     0.313 HD
HETATM   17  H11 UNL     1      34.150   7.804  48.328  1.00  0.00     0.313 HD
ENDBRANCH   1  15
BRANCH   1  18
HETATM   18  C12 UNL     1      31.833   7.802  47.536  1.00  0.00     0.052 C 
HETATM   19  C13 UNL     1      30.625   7.084  47.825  1.00  0.00     0.112 C 
HETATM   20  C14 UNL     1      29.898   8.099  48.572  1.00  0.00    -0.016 C 
HETATM   21  C15 UNL     1      29.870   9.322  49.149  1.00  0.00    -0.083 C 
HETATM   22  C16 UNL     1      28.461   9.270  49.584  1.00  0.00     0.034 C 
HETATM   23  C23 UNL     1      30.650  10.406  49.719  1.00  0.00     0.034 C 
HETATM   24  C17 UNL     1      27.763  10.301  48.659  1.00  0.00     0.012 C 
HETATM   25  C18 UNL     1      28.230   9.918  47.252  1.00  0.00     0.081 C 
HETATM   26  C19 UNL     1      29.652  10.264  47.081  1.00  0.00     0.149 C 
HETATM   27  O2  UNL     1      29.540  11.335  46.406  1.00  0.00    -0.296 OA
HETATM   28  C20 UNL     1      31.098  10.283  47.118  1.00  0.00     0.147 C 
HETATM   29  C21 UNL     1      31.583  11.608  47.773  1.00  0.00     0.033 C 
HETATM   30  N2  UNL     1      31.865   9.291  47.857  1.00  0.00    -0.403 N 
HETATM   31  C22 UNL     1      30.753  11.727  49.065  1.00  0.00     0.007 C 
HETATM   32  H27 UNL     1      32.489   8.794  48.518  1.00  0.00     0.154 HD
ENDBRANCH   1  18
TORSDOF 4
ENDMDL
MODEL 8
REMARK VINA RESULT:      -8.1      4.621      7.581
REMARK  4 active torsions:
REMARK  status: ('A' for Active; 'I' for Inactive)
REMARK    1  A    between atoms: O1_2  and  C2_3 
REMARK    2  A    between atoms: C10_11  and  C11_12 
REMARK    3  A    between atoms: C11_12  and  N1_13 
REMARK    4  A    between atoms: C11_12  and  C12_14 
ROOT
HETATM    1  C11 UNL     1      25.481   5.279  49.936  1.00  0.00     0.271 C 
ENDROOT
BRANCH   1   2
HETATM    2  C10 UNL     1      24.345   4.717  49.275  1.00  0.00    -0.034 A 
HETATM    3  C9  UNL     1      23.757   3.569  48.932  1.00  0.00     0.023 A 
HETATM    4  C8  UNL     1      23.058   2.495  48.506  1.00  0.00    -0.013 A 
HETATM    5  C25 UNL     1      23.926   2.968  50.301  1.00  0.00     0.062 A 
HETATM    6  C6  UNL     1      22.760   4.314  48.209  1.00  0.00     0.028 A 
HETATM    7  C7  UNL     1      22.108   3.165  47.819  1.00  0.00    -0.011 A 
HETATM    8  C2  UNL     1      22.661   3.407  51.063  1.00  0.00     0.101 A 
HETATM    9  C3  UNL     1      22.164   4.041  50.008  1.00  0.00     0.056 A 
HETATM   10  C4  UNL     1      21.014   4.859  49.467  1.00  0.00    -0.021 A 
HETATM   11  C5  UNL     1      21.459   5.051  48.162  1.00  0.00    -0.011 A 
HETATM   12  C24 UNL     1      23.401   5.426  48.593  1.00  0.00    -0.002 A 
BRANCH   8  13
HETATM   13  O1  UNL     1      22.805   2.895  52.333  1.00  0.00    -0.381 OA
HETATM   14  C1  UNL     1      24.081   2.870  52.970  1.00  0.00     0.202 C 
ENDBRANCH   8  13
ENDBRANCH   1   2
BRANCH   1  15
HETATM   15  N1  UNL     1      25.046   6.328  50.865  1.00  0.00     0.089 N 
HETATM   16  H10 UNL     1      25.821   6.940  51.166  1.00  0.00     0.313 HD
HETATM   17  H11 UNL     1      24.512   5.939  51.666  1.00  0.00     0.313 HD
ENDBRANCH   1  15
BRANCH   1  18
HETATM   18  C12 UNL     1      26.470   6.017  49.016  1.00  0.00     0.052 C 
HETATM   19  C13 UNL     1      27.687   5.375  48.609  1.00  0.00     0.112 C 
HETATM   20  C14 UNL     1      28.255   6.417  47.767  1.00  0.00    -0.016 C 
HETATM   21  C15 UNL     1      28.133   7.623  47.168  1.00  0.00    -0.083 C 
HETATM   22  C16 UNL     1      29.487   7.656  46.581  1.00  0.00     0.034 C 
HETATM   23  C23 UNL     1      27.221   8.636  46.667  1.00  0.00     0.034 C 
HETATM   24  C17 UNL     1      30.208   8.756  47.404  1.00  0.00     0.012 C 
HETATM   25  C18 UNL     1      29.924   8.379  48.860  1.00  0.00     0.081 C 
HETATM   26  C19 UNL     1      28.509   8.633  49.181  1.00  0.00     0.149 C 
HETATM   27  O2  UNL     1      28.618   9.726  49.819  1.00  0.00    -0.296 OA
HETATM   28  C20 UNL     1      27.070   8.552  49.304  1.00  0.00     0.147 C 
HETATM   29  C21 UNL     1      26.424   9.823  48.681  1.00  0.00     0.033 C 
HETATM   30  N2  UNL     1      26.298   7.491  48.672  1.00  0.00    -0.403 N 
HETATM   31  C22 UNL     1      27.098   9.964  47.303  1.00  0.00     0.007 C 
HETATM   32  H27 UNL     1      25.643   6.936  48.094  1.00  0.00     0.154 HD
ENDBRANCH   1  18
TORSDOF 4
ENDMDL
MODEL 9
REMARK VINA RESULT:      -7.8      8.660     11.653
REMARK  4 active torsions:
REMARK  status: ('A' for Active; 'I' for Inactive)
REMARK    1  A    between atoms: O1_2  and  C2_3 
REMARK    2  A    between atoms: C10_11  and  C11_12 
REMARK    3  A    between atoms: C11_12  and  N1_13 
REMARK    4  A    between atoms: C11_12  and  C12_14 
ROOT
HETATM    1  C11 UNL     1      31.042   8.489  45.436  1.00  0.00     0.271 C 
ENDROOT
BRANCH   1   2
HETATM    2  C10 UNL     1      29.797   8.254  46.098  1.00  0.00    -0.034 A 
HETATM    3  C9  UNL     1      29.242   7.963  47.276  1.00  0.00     0.023 A 
HETATM    4  C8  UNL     1      28.543   7.657  48.390  1.00  0.00    -0.013 A 
HETATM    5  C25 UNL     1      30.048   8.996  48.015  1.00  0.00     0.062 A 
HETATM    6  C6  UNL     1      27.958   7.871  46.631  1.00  0.00     0.028 A 
HETATM    7  C7  UNL     1      27.325   7.564  47.814  1.00  0.00    -0.011 A 
HETATM    8  C2  UNL     1      29.200  10.278  47.914  1.00  0.00     0.101 A 
HETATM    9  C3  UNL     1      28.232   9.665  47.243  1.00  0.00     0.056 A 
HETATM   10  C4  UNL     1      26.883   9.813  46.577  1.00  0.00    -0.021 A 
HETATM   11  C5  UNL     1      26.697   8.506  46.136  1.00  0.00    -0.011 A 
HETATM   12  C24 UNL     1      28.583   8.171  45.483  1.00  0.00    -0.002 A 
BRANCH   8  13
HETATM   13  O1  UNL     1      29.932  11.250  48.557  1.00  0.00    -0.381 OA
HETATM   14  C1  UNL     1      29.351  12.517  48.867  1.00  0.00     0.202 C 
ENDBRANCH   8  13
ENDBRANCH   1   2
BRANCH   1  15
HETATM   15  N1  UNL     1      30.831   8.537  43.986  1.00  0.00     0.089 N 
HETATM   16  H10 UNL     1      31.698   8.365  43.451  1.00  0.00     0.313 HD
HETATM   17  H11 UNL     1      30.350   9.409  43.693  1.00  0.00     0.313 HD
ENDBRANCH   1  15
BRANCH   1  18
HETATM   18  C12 UNL     1      32.088   7.372  45.600  1.00  0.00     0.052 C 
HETATM   19  C13 UNL     1      32.415   6.527  44.488  1.00  0.00     0.112 C 
HETATM   20  C14 UNL     1      33.423   5.676  45.101  1.00  0.00    -0.016 C 
HETATM   21  C15 UNL     1      34.203   5.380  46.166  1.00  0.00    -0.083 C 
HETATM   22  C16 UNL     1      34.817   4.167  45.591  1.00  0.00     0.034 C 
HETATM   23  C23 UNL     1      34.838   5.877  47.373  1.00  0.00     0.034 C 
HETATM   24  C17 UNL     1      34.194   3.019  46.428  1.00  0.00     0.012 C 
HETATM   25  C18 UNL     1      32.690   3.305  46.394  1.00  0.00     0.081 C 
HETATM   26  C19 UNL     1      32.383   4.488  47.217  1.00  0.00     0.149 C 
HETATM   27  O2  UNL     1      31.928   3.921  48.260  1.00  0.00    -0.296 OA
HETATM   28  C20 UNL     1      32.218   5.835  47.718  1.00  0.00     0.147 C 
HETATM   29  C21 UNL     1      33.019   5.999  49.041  1.00  0.00     0.033 C 
HETATM   30  N2  UNL     1      32.657   6.999  46.963  1.00  0.00    -0.403 N 
HETATM   31  C22 UNL     1      34.417   5.435  48.720  1.00  0.00     0.007 C 
HETATM   32  H27 UNL     1      33.125   7.861  46.631  1.00  0.00     0.154 HD
ENDBRANCH   1  18
TORSDOF 4
ENDMDL
