MODEL 1
REMARK VINA RESULT:      -8.7      0.000      0.000
REMARK  5 active torsions:
REMARK  status: ('A' for Active; 'I' for Inactive)
REMARK    1  A    between atoms: O1_2  and  C2_3 
REMARK    2  A    between atoms: C2_3  and  C3_4 
REMARK    3  A    between atoms: C4_5  and  C5_6 
REMARK    4  A    between atoms: C13_14  and  N1_15 
REMARK    5  A    between atoms: N1_15  and  C14_16 
ROOT
HETATM    1  C5  UNL     1      27.048   0.795  53.772  1.00  0.00    -0.012 C 
HETATM    2  C6  UNL     1      26.781   1.186  52.461  1.00  0.00     0.052 C 
HETATM    3  C7  UNL     1      26.608   1.657  51.025  1.00  0.00     0.045 C 
HETATM    4  C8  UNL     1      25.241   2.342  51.039  1.00  0.00    -0.012 A 
HETATM    5  C9  UNL     1      24.708   1.230  51.620  1.00  0.00     0.293 A 
HETATM    6  C10 UNL     1      23.668   2.053  52.100  1.00  0.00     0.160 A 
HETATM    7  C11 UNL     1      23.099   3.262  52.179  1.00  0.00     0.053 A 
HETATM    8  C12 UNL     1      23.914   4.178  51.431  1.00  0.00     0.041 A 
HETATM    9  C13 UNL     1      23.509   5.464  51.429  1.00  0.00     0.142 A 
HETATM   10  N2  UNL     1      24.405   6.265  50.732  1.00  0.00    -0.224 NA
HETATM   11  C20 UNL     1      25.497   5.735  50.185  1.00  0.00     0.236 A 
HETATM   12  N3  UNL     1      25.954   4.419  50.169  1.00  0.00    -0.241 NA
HETATM   13  C21 UNL     1      25.057   3.620  50.857  1.00  0.00     0.077 A 
HETATM   14  N4  UNL     1      23.827   0.938  52.950  1.00  0.00     0.037 N 
HETATM   15  C22 UNL     1      23.926  -0.256  53.786  1.00  0.00     0.345 C 
HETATM   16  O2  UNL     1      22.959  -0.756  53.240  1.00  0.00    -0.260 OA
HETATM   17  C23 UNL     1      24.981  -0.523  54.828  1.00  0.00     0.079 C 
HETATM   18  C24 UNL     1      26.177   0.006  54.668  1.00  0.00    -0.012 C 
HETATM   19  H19 UNL     1      24.218   1.554  53.779  1.00  0.00     0.298 HD
ENDROOT
BRANCH   9  20
HETATM   20  N1  UNL     1      22.286   5.845  52.014  1.00  0.00    -0.340 N 
HETATM   21  H13 UNL     1      22.088   5.788  53.045  1.00  0.00     0.167 HD
BRANCH  20  22
HETATM   22  C14 UNL     1      21.349   6.306  51.004  1.00  0.00     0.035 A 
HETATM   23  C15 UNL     1      20.571   5.423  50.313  1.00  0.00     0.029 A 
HETATM   24  C16 UNL     1      19.673   5.847  49.313  1.00  0.00     0.004 A 
HETATM   25  C17 UNL     1      19.524   7.181  48.966  1.00  0.00     0.019 A 
HETATM   26  C18 UNL     1      20.300   8.097  49.664  1.00  0.00     0.013 A 
HETATM   27 BR1  UNL     1      20.145   9.949  49.235  1.00  0.00    -0.051 Br
HETATM   28  C19 UNL     1      21.170   7.626  50.644  1.00  0.00     0.048 A 
ENDBRANCH  20  22
ENDBRANCH   9  20
BRANCH   1  29
HETATM   29  C4  UNL     1      28.382   1.255  53.687  1.00  0.00    -0.019 C 
HETATM   30  C3  UNL     1      29.610   0.655  53.706  1.00  0.00    -0.004 C 
BRANCH  30  31
HETATM   31  C2  UNL     1      29.513  -0.773  53.938  1.00  0.00     0.194 C 
BRANCH  31  32
HETATM   32  O1  UNL     1      29.780  -1.744  53.115  1.00  0.00    -0.392 OA
HETATM   33  C1  UNL     1      28.569  -2.564  53.084  1.00  0.00     0.201 C 
ENDBRANCH  31  32
ENDBRANCH  30  31
ENDBRANCH   1  29
TORSDOF 5
ENDMDL
MODEL 2
REMARK VINA RESULT:      -8.4      1.263      1.514
REMARK  5 active torsions:
REMARK  status: ('A' for Active; 'I' for Inactive)
REMARK    1  A    between atoms: O1_2  and  C2_3 
REMARK    2  A    between atoms: C2_3  and  C3_4 
REMARK    3  A    between atoms: C4_5  and  C5_6 
REMARK    4  A    between atoms: C13_14  and  N1_15 
REMARK    5  A    between atoms: N1_15  and  C14_16 
ROOT
HETATM    1  C5  UNL     1      26.404   1.660  53.044  1.00  0.00    -0.012 C 
HETATM    2  C6  UNL     1      26.320   2.252  51.785  1.00  0.00     0.052 C 
HETATM    3  C7  UNL     1      26.346   2.940  50.428  1.00  0.00     0.045 C 
HETATM    4  C8  UNL     1      24.987   3.636  50.358  1.00  0.00    -0.012 A 
HETATM    5  C9  UNL     1      24.385   2.457  50.681  1.00  0.00     0.293 A 
HETATM    6  C10 UNL     1      23.283   3.212  51.133  1.00  0.00     0.160 A 
HETATM    7  C11 UNL     1      22.701   4.404  51.317  1.00  0.00     0.053 A 
HETATM    8  C12 UNL     1      23.608   5.411  50.840  1.00  0.00     0.041 A 
HETATM    9  C13 UNL     1      23.199   6.688  50.979  1.00  0.00     0.142 A 
HETATM   10  N2  UNL     1      24.179   7.572  50.546  1.00  0.00    -0.224 NA
HETATM   11  C20 UNL     1      25.339   7.116  50.081  1.00  0.00     0.236 A 
HETATM   12  N3  UNL     1      25.802   5.810  49.925  1.00  0.00    -0.241 NA
HETATM   13  C21 UNL     1      24.822   4.930  50.351  1.00  0.00     0.077 A 
HETATM   14  N4  UNL     1      23.329   1.977  51.815  1.00  0.00     0.037 N 
HETATM   15  C22 UNL     1      23.317   0.669  52.463  1.00  0.00     0.345 C 
HETATM   16  O2  UNL     1      22.439   0.273  51.717  1.00  0.00    -0.260 OA
HETATM   17  C23 UNL     1      24.219   0.228  53.587  1.00  0.00     0.079 C 
HETATM   18  C24 UNL     1      25.422   0.756  53.678  1.00  0.00    -0.012 C 
HETATM   19  H19 UNL     1      23.597   2.453  52.775  1.00  0.00     0.298 HD
ENDROOT
BRANCH   9  20
HETATM   20  N1  UNL     1      21.904   6.994  51.441  1.00  0.00    -0.340 N 
HETATM   21  H13 UNL     1      21.593   6.867  52.437  1.00  0.00     0.167 HD
BRANCH  20  22
HETATM   22  C14 UNL     1      21.071   7.488  50.358  1.00  0.00     0.035 A 
HETATM   23  C15 UNL     1      20.348   6.630  49.582  1.00  0.00     0.029 A 
HETATM   24  C16 UNL     1      19.552   7.086  48.511  1.00  0.00     0.004 A 
HETATM   25  C17 UNL     1      19.454   8.428  48.179  1.00  0.00     0.019 A 
HETATM   26  C18 UNL     1      20.174   9.319  48.964  1.00  0.00     0.013 A 
HETATM   27 BR1  UNL     1      20.085  11.181  48.559  1.00  0.00    -0.051 Br
HETATM   28  C19 UNL     1      20.943   8.817  50.010  1.00  0.00     0.048 A 
ENDBRANCH  20  22
ENDBRANCH   9  20
BRANCH   1  29
HETATM   29  C4  UNL     1      27.734   2.107  53.217  1.00  0.00    -0.019 C 
HETATM   30  C3  UNL     1      28.824   1.645  53.900  1.00  0.00    -0.004 C 
BRANCH  30  31
HETATM   31  C2  UNL     1      28.513   0.464  54.682  1.00  0.00     0.194 C 
BRANCH  31  32
HETATM   32  O1  UNL     1      28.566  -0.783  54.317  1.00  0.00    -0.392 OA
HETATM   33  C1  UNL     1      29.863  -0.935  53.658  1.00  0.00     0.201 C 
ENDBRANCH  31  32
ENDBRANCH  30  31
ENDBRANCH   1  29
TORSDOF 5
ENDMDL
MODEL 3
REMARK VINA RESULT:      -8.2      3.946      5.401
REMARK  5 active torsions:
REMARK  status: ('A' for Active; 'I' for Inactive)
REMARK    1  A    between atoms: O1_2  and  C2_3 
REMARK    2  A    between atoms: C2_3  and  C3_4 
REMARK    3  A    between atoms: C4_5  and  C5_6 
REMARK    4  A    between atoms: C13_14  and  N1_15 
REMARK    5  A    between atoms: N1_15  and  C14_16 
ROOT
HETATM    1  C5  UNL     1      26.205   2.311  52.427  1.00  0.00    -0.012 C 
HETATM    2  C6  UNL     1      26.405   2.490  51.059  1.00  0.00     0.052 C 
HETATM    3  C7  UNL     1      26.739   2.635  49.582  1.00  0.00     0.045 C 
HETATM    4  C8  UNL     1      26.265   4.050  49.249  1.00  0.00    -0.012 A 
HETATM    5  C9  UNL     1      25.056   3.759  49.804  1.00  0.00     0.293 A 
HETATM    6  C10 UNL     1      24.869   5.145  49.981  1.00  0.00     0.160 A 
HETATM    7  C11 UNL     1      25.321   6.396  49.830  1.00  0.00     0.053 A 
HETATM    8  C12 UNL     1      26.605   6.323  49.189  1.00  0.00     0.041 A 
HETATM    9  C13 UNL     1      27.232   7.499  48.987  1.00  0.00     0.142 A 
HETATM   10  N2  UNL     1      28.486   7.301  48.423  1.00  0.00    -0.224 NA
HETATM   11  C20 UNL     1      28.922   6.070  48.165  1.00  0.00     0.236 A 
HETATM   12  N3  UNL     1      28.310   4.833  48.363  1.00  0.00    -0.241 NA
HETATM   13  C21 UNL     1      27.058   5.032  48.918  1.00  0.00     0.077 A 
HETATM   14  N4  UNL     1      24.119   4.436  50.942  1.00  0.00     0.037 N 
HETATM   15  C22 UNL     1      23.273   3.709  51.885  1.00  0.00     0.345 C 
HETATM   16  O2  UNL     1      22.286   3.904  51.197  1.00  0.00    -0.260 OA
HETATM   17  C23 UNL     1      23.734   3.021  53.144  1.00  0.00     0.079 C 
HETATM   18  C24 UNL     1      24.960   2.541  53.190  1.00  0.00    -0.012 C 
HETATM   19  H19 UNL     1      24.761   4.775  51.776  1.00  0.00     0.298 HD
ENDROOT
BRANCH   9  20
HETATM   20  N1  UNL     1      26.596   8.724  49.267  1.00  0.00    -0.340 N 
HETATM   21  H13 UNL     1      25.771   8.820  49.912  1.00  0.00     0.167 HD
BRANCH  20  22
HETATM   22  C14 UNL     1      27.225   9.813  48.541  1.00  0.00     0.035 A 
HETATM   23  C15 UNL     1      26.786  10.174  47.300  1.00  0.00     0.029 A 
HETATM   24  C16 UNL     1      27.397  11.212  46.567  1.00  0.00     0.004 A 
HETATM   25  C17 UNL     1      28.477  11.930  47.056  1.00  0.00     0.019 A 
HETATM   26  C18 UNL     1      28.933  11.585  48.322  1.00  0.00     0.013 A 
HETATM   27 BR1  UNL     1      30.418  12.531  49.054  1.00  0.00    -0.051 Br
HETATM   28  C19 UNL     1      28.293  10.553  49.004  1.00  0.00     0.048 A 
ENDBRANCH  20  22
ENDBRANCH   9  20
BRANCH   1  29
HETATM   29  C4  UNL     1      27.472   1.704  52.580  1.00  0.00    -0.019 C 
HETATM   30  C3  UNL     1      27.932   0.578  53.204  1.00  0.00    -0.004 C 
BRANCH  30  31
HETATM   31  C2  UNL     1      26.880  -0.106  53.933  1.00  0.00     0.194 C 
BRANCH  31  32
HETATM   32  O1  UNL     1      26.155  -1.113  53.546  1.00  0.00    -0.392 OA
HETATM   33  C1  UNL     1      27.045  -1.935  52.727  1.00  0.00     0.201 C 
ENDBRANCH  31  32
ENDBRANCH  30  31
ENDBRANCH   1  29
TORSDOF 5
ENDMDL
MODEL 4
REMARK VINA RESULT:      -8.0      3.606      6.412
REMARK  5 active torsions:
REMARK  status: ('A' for Active; 'I' for Inactive)
REMARK    1  A    between atoms: O1_2  and  C2_3 
REMARK    2  A    between atoms: C2_3  and  C3_4 
REMARK    3  A    between atoms: C4_5  and  C5_6 
REMARK    4  A    between atoms: C13_14  and  N1_15 
REMARK    5  A    between atoms: N1_15  and  C14_16 
ROOT
HETATM    1  C5  UNL     1      22.278   0.390  52.466  1.00  0.00    -0.012 C 
HETATM    2  C6  UNL     1      22.414   1.773  52.563  1.00  0.00     0.052 C 
HETATM    3  C7  UNL     1      22.449   3.294  52.614  1.00  0.00     0.045 C 
HETATM    4  C8  UNL     1      23.858   3.632  52.129  1.00  0.00    -0.012 A 
HETATM    5  C9  UNL     1      24.365   2.757  53.042  1.00  0.00     0.293 A 
HETATM    6  C10 UNL     1      25.520   2.678  52.237  1.00  0.00     0.160 A 
HETATM    7  C11 UNL     1      26.191   3.065  51.145  1.00  0.00     0.053 A 
HETATM    8  C12 UNL     1      25.368   4.005  50.436  1.00  0.00     0.041 A 
HETATM    9  C13 UNL     1      25.874   4.479  49.280  1.00  0.00     0.142 A 
HETATM   10  N2  UNL     1      24.968   5.325  48.653  1.00  0.00    -0.224 NA
HETATM   11  C20 UNL     1      23.778   5.562  49.200  1.00  0.00     0.236 A 
HETATM   12  N3  UNL     1      23.216   5.090  50.385  1.00  0.00    -0.241 NA
HETATM   13  C21 UNL     1      24.123   4.253  51.013  1.00  0.00     0.077 A 
HETATM   14  N4  UNL     1      25.375   1.489  52.983  1.00  0.00     0.037 N 
HETATM   15  C22 UNL     1      25.281   0.292  53.815  1.00  0.00     0.345 C 
HETATM   16  O2  UNL     1      26.130   0.718  54.578  1.00  0.00    -0.260 OA
HETATM   17  C23 UNL     1      24.342  -0.867  53.599  1.00  0.00     0.079 C 
HETATM   18  C24 UNL     1      23.183  -0.642  53.014  1.00  0.00    -0.012 C 
HETATM   19  H19 UNL     1      25.139   0.888  52.087  1.00  0.00     0.298 HD
ENDROOT
BRANCH   9  20
HETATM   20  N1  UNL     1      27.186   4.167  48.875  1.00  0.00    -0.340 N 
HETATM   21  H13 UNL     1      27.573   3.190  48.847  1.00  0.00     0.167 HD
BRANCH  20  22
HETATM   22  C14 UNL     1      27.919   5.370  48.521  1.00  0.00     0.035 A 
HETATM   23  C15 UNL     1      27.312   6.592  48.534  1.00  0.00     0.029 A 
HETATM   24  C16 UNL     1      27.998   7.768  48.170  1.00  0.00     0.004 A 
HETATM   25  C17 UNL     1      29.327   7.761  47.776  1.00  0.00     0.019 A 
HETATM   26  C18 UNL     1      29.967   6.528  47.766  1.00  0.00     0.013 A 
HETATM   27 BR1  UNL     1      31.796   6.447  47.232  1.00  0.00    -0.051 Br
HETATM   28  C19 UNL     1      29.244   5.398  48.136  1.00  0.00     0.048 A 
ENDBRANCH  20  22
ENDBRANCH   9  20
BRANCH   1  29
HETATM   29  C4  UNL     1      20.985   0.509  51.906  1.00  0.00    -0.019 C 
HETATM   30  C3  UNL     1      19.730   0.131  52.292  1.00  0.00    -0.004 C 
BRANCH  30  31
HETATM   31  C2  UNL     1      19.747  -0.629  53.527  1.00  0.00     0.194 C 
BRANCH  31  32
HETATM   32  O1  UNL     1      19.243  -1.805  53.758  1.00  0.00    -0.392 OA
HETATM   33  C1  UNL     1      17.835  -1.700  53.374  1.00  0.00     0.201 C 
ENDBRANCH  31  32
ENDBRANCH  30  31
ENDBRANCH   1  29
TORSDOF 5
ENDMDL
MODEL 5
REMARK VINA RESULT:      -8.0      3.786      5.260
REMARK  5 active torsions:
REMARK  status: ('A' for Active; 'I' for Inactive)
REMARK    1  A    between atoms: O1_2  and  C2_3 
REMARK    2  A    between atoms: C2_3  and  C3_4 
REMARK    3  A    between atoms: C4_5  and  C5_6 
REMARK    4  A    between atoms: C13_14  and  N1_15 
REMARK    5  A    between atoms: N1_15  and  C14_16 
ROOT
HETATM    1  C5  UNL     1      26.122   1.163  51.527  1.00  0.00    -0.012 C 
HETATM    2  C6  UNL     1      25.190   1.293  52.555  1.00  0.00     0.052 C 
HETATM    3  C7  UNL     1      24.209   1.320  53.718  1.00  0.00     0.045 C 
HETATM    4  C8  UNL     1      22.922   1.848  53.083  1.00  0.00    -0.012 A 
HETATM    5  C9  UNL     1      23.626   2.893  52.565  1.00  0.00     0.293 A 
HETATM    6  C10 UNL     1      22.609   3.022  51.597  1.00  0.00     0.160 A 
HETATM    7  C11 UNL     1      21.438   2.609  51.096  1.00  0.00     0.053 A 
HETATM    8  C12 UNL     1      20.977   1.516  51.905  1.00  0.00     0.041 A 
HETATM    9  C13 UNL     1      19.816   0.946  51.522  1.00  0.00     0.142 A 
HETATM   10  N2  UNL     1      19.504  -0.136  52.335  1.00  0.00    -0.224 NA
HETATM   11  C20 UNL     1      20.317  -0.489  53.328  1.00  0.00     0.236 A 
HETATM   12  N3  UNL     1      21.522   0.067  53.752  1.00  0.00    -0.241 NA
HETATM   13  C21 UNL     1      21.829   1.150  52.946  1.00  0.00     0.077 A 
HETATM   14  N4  UNL     1      23.822   3.527  51.085  1.00  0.00     0.037 N 
HETATM   15  C22 UNL     1      25.052   4.130  50.577  1.00  0.00     0.345 C 
HETATM   16  O2  UNL     1      24.638   5.251  50.818  1.00  0.00    -0.260 OA
HETATM   17  C23 UNL     1      26.256   3.387  50.058  1.00  0.00     0.079 C 
HETATM   18  C24 UNL     1      26.517   2.189  50.539  1.00  0.00    -0.012 C 
HETATM   19  H19 UNL     1      23.923   2.703  50.355  1.00  0.00     0.298 HD
ENDROOT
BRANCH   9  20
HETATM   20  N1  UNL     1      19.047   1.488  50.474  1.00  0.00    -0.340 N 
HETATM   21  H13 UNL     1      19.307   1.410  49.457  1.00  0.00     0.167 HD
BRANCH  20  22
HETATM   22  C14 UNL     1      17.873   2.169  50.990  1.00  0.00     0.035 A 
HETATM   23  C15 UNL     1      17.852   3.527  51.124  1.00  0.00     0.029 A 
HETATM   24  C16 UNL     1      16.732   4.207  51.645  1.00  0.00     0.004 A 
HETATM   25  C17 UNL     1      15.587   3.543  52.055  1.00  0.00     0.019 A 
HETATM   26  C18 UNL     1      15.584   2.161  51.919  1.00  0.00     0.013 A 
HETATM   27 BR1  UNL     1      14.039   1.186  52.466  1.00  0.00    -0.051 Br
HETATM   28  C19 UNL     1      16.715   1.540  51.396  1.00  0.00     0.048 A 
ENDBRANCH  20  22
ENDBRANCH   9  20
BRANCH   1  29
HETATM   29  C4  UNL     1      26.542  -0.100  52.003  1.00  0.00    -0.019 C 
HETATM   30  C3  UNL     1      27.493  -0.528  52.886  1.00  0.00    -0.004 C 
BRANCH  30  31
HETATM   31  C2  UNL     1      28.298   0.567  53.391  1.00  0.00     0.194 C 
BRANCH  31  32
HETATM   32  O1  UNL     1      29.469   0.515  53.954  1.00  0.00    -0.392 OA
HETATM   33  C1  UNL     1      30.032  -0.773  53.550  1.00  0.00     0.201 C 
ENDBRANCH  31  32
ENDBRANCH  30  31
ENDBRANCH   1  29
TORSDOF 5
ENDMDL
MODEL 6
REMARK VINA RESULT:      -7.9      5.525      7.989
REMARK  5 active torsions:
REMARK  status: ('A' for Active; 'I' for Inactive)
REMARK    1  A    between atoms: O1_2  and  C2_3 
REMARK    2  A    between atoms: C2_3  and  C3_4 
REMARK    3  A    between atoms: C4_5  and  C5_6 
REMARK    4  A    between atoms: C13_14  and  N1_15 
REMARK    5  A    between atoms: N1_15  and  C14_16 
ROOT
HETATM    1  C5  UNL     1      23.200   3.799  51.602  1.00  0.00    -0.012 C 
HETATM    2  C6  UNL     1      22.616   2.890  50.721  1.00  0.00     0.052 C 
HETATM    3  C7  UNL     1      21.931   1.996  49.699  1.00  0.00     0.045 C 
HETATM    4  C8  UNL     1      21.312   0.890  50.554  1.00  0.00    -0.012 A 
HETATM    5  C9  UNL     1      22.522   0.696  51.150  1.00  0.00     0.293 A 
HETATM    6  C10 UNL     1      21.828   0.123  52.236  1.00  0.00     0.160 A 
HETATM    7  C11 UNL     1      20.671  -0.250  52.795  1.00  0.00     0.053 A 
HETATM    8  C12 UNL     1      19.616   0.082  51.879  1.00  0.00     0.041 A 
HETATM    9  C13 UNL     1      18.363  -0.192  52.295  1.00  0.00     0.142 A 
HETATM   10  N2  UNL     1      17.426   0.229  51.360  1.00  0.00    -0.224 NA
HETATM   11  C20 UNL     1      17.818   0.824  50.236  1.00  0.00     0.236 A 
HETATM   12  N3  UNL     1      19.096   1.131  49.771  1.00  0.00    -0.241 NA
HETATM   13  C21 UNL     1      20.029   0.705  50.701  1.00  0.00     0.077 A 
HETATM   14  N4  UNL     1      23.057   0.655  52.680  1.00  0.00     0.037 N 
HETATM   15  C22 UNL     1      24.363   1.126  53.134  1.00  0.00     0.345 C 
HETATM   16  O2  UNL     1      24.809  -0.008  53.126  1.00  0.00    -0.260 OA
HETATM   17  C23 UNL     1      24.751   2.561  53.385  1.00  0.00     0.079 C 
HETATM   18  C24 UNL     1      24.156   3.508  52.690  1.00  0.00    -0.012 C 
HETATM   19  H19 UNL     1      22.565   1.463  53.251  1.00  0.00     0.298 HD
ENDROOT
BRANCH   9  20
HETATM   20  N1  UNL     1      18.129  -0.886  53.498  1.00  0.00    -0.340 N 
HETATM   21  H13 UNL     1      18.500  -0.578  54.433  1.00  0.00     0.167 HD
BRANCH  20  22
HETATM   22  C14 UNL     1      17.327  -2.074  53.264  1.00  0.00     0.035 A 
HETATM   23  C15 UNL     1      17.739  -3.297  53.707  1.00  0.00     0.029 A 
HETATM   24  C16 UNL     1      16.988  -4.467  53.470  1.00  0.00     0.004 A 
HETATM   25  C17 UNL     1      15.790  -4.451  52.775  1.00  0.00     0.019 A 
HETATM   26  C18 UNL     1      15.347  -3.214  52.323  1.00  0.00     0.013 A 
HETATM   27 BR1  UNL     1      13.706  -3.122  51.357  1.00  0.00    -0.051 Br
HETATM   28  C19 UNL     1      16.126  -2.090  52.586  1.00  0.00     0.048 A 
ENDBRANCH  20  22
ENDBRANCH   9  20
BRANCH   1  29
HETATM   29  C4  UNL     1      22.680   4.900  50.883  1.00  0.00    -0.019 C 
HETATM   30  C3  UNL     1      23.158   5.723  49.902  1.00  0.00    -0.004 C 
BRANCH  30  31
HETATM   31  C2  UNL     1      24.544   5.438  49.584  1.00  0.00     0.194 C 
BRANCH  31  32
HETATM   32  O1  UNL     1      25.612   5.799  50.233  1.00  0.00    -0.392 OA
HETATM   33  C1  UNL     1      25.550   7.259  50.291  1.00  0.00     0.201 C 
ENDBRANCH  31  32
ENDBRANCH  30  31
ENDBRANCH   1  29
TORSDOF 5
ENDMDL
MODEL 7
REMARK VINA RESULT:      -7.3      4.492      6.994
REMARK  5 active torsions:
REMARK  status: ('A' for Active; 'I' for Inactive)
REMARK    1  A    between atoms: O1_2  and  C2_3 
REMARK    2  A    between atoms: C2_3  and  C3_4 
REMARK    3  A    between atoms: C4_5  and  C5_6 
REMARK    4  A    between atoms: C13_14  and  N1_15 
REMARK    5  A    between atoms: N1_15  and  C14_16 
ROOT
HETATM    1  C5  UNL     1      20.329   2.309  48.931  1.00  0.00    -0.012 C 
HETATM    2  C6  UNL     1      19.958   3.478  49.594  1.00  0.00     0.052 C 
HETATM    3  C7  UNL     1      19.497   4.790  50.211  1.00  0.00     0.045 C 
HETATM    4  C8  UNL     1      20.735   5.284  50.959  1.00  0.00    -0.012 A 
HETATM    5  C9  UNL     1      20.833   4.068  51.567  1.00  0.00     0.293 A 
HETATM    6  C10 UNL     1      22.197   4.353  51.783  1.00  0.00     0.160 A 
HETATM    7  C11 UNL     1      23.230   5.195  51.664  1.00  0.00     0.053 A 
HETATM    8  C12 UNL     1      22.756   6.379  51.003  1.00  0.00     0.041 A 
HETATM    9  C13 UNL     1      23.678   7.333  50.764  1.00  0.00     0.142 A 
HETATM   10  N2  UNL     1      23.121   8.397  50.066  1.00  0.00    -0.224 NA
HETATM   11  C20 UNL     1      21.837   8.374  49.716  1.00  0.00     0.236 A 
HETATM   12  N3  UNL     1      20.855   7.411  49.937  1.00  0.00    -0.241 NA
HETATM   13  C21 UNL     1      21.409   6.354  50.639  1.00  0.00     0.077 A 
HETATM   14  N4  UNL     1      22.002   2.956  51.733  1.00  0.00     0.037 N 
HETATM   15  C22 UNL     1      21.797   1.511  51.769  1.00  0.00     0.345 C 
HETATM   16  O2  UNL     1      21.849   1.502  52.986  1.00  0.00    -0.260 OA
HETATM   17  C23 UNL     1      21.573   0.617  50.577  1.00  0.00     0.079 C 
HETATM   18  C24 UNL     1      20.989   1.120  49.509  1.00  0.00    -0.012 C 
HETATM   19  H19 UNL     1      22.539   2.859  50.773  1.00  0.00     0.298 HD
ENDROOT
BRANCH   9  20
HETATM   20  N1  UNL     1      24.991   7.219  51.260  1.00  0.00    -0.340 N 
HETATM   21  H13 UNL     1      25.223   7.087  52.277  1.00  0.00     0.167 HD
BRANCH  20  22
HETATM   22  C14 UNL     1      25.962   7.323  50.185  1.00  0.00     0.035 A 
HETATM   23  C15 UNL     1      26.127   6.307  49.288  1.00  0.00     0.029 A 
HETATM   24  C16 UNL     1      27.081   6.377  48.252  1.00  0.00     0.004 A 
HETATM   25  C17 UNL     1      27.909   7.474  48.078  1.00  0.00     0.019 A 
HETATM   26  C18 UNL     1      27.751   8.523  48.975  1.00  0.00     0.013 A 
HETATM   27 BR1  UNL     1      28.862  10.063  48.794  1.00  0.00    -0.051 Br
HETATM   28  C19 UNL     1      26.794   8.404  49.978  1.00  0.00     0.048 A 
ENDBRANCH  20  22
ENDBRANCH   9  20
BRANCH   1  29
HETATM   29  C4  UNL     1      19.662   2.711  47.751  1.00  0.00    -0.019 C 
HETATM   30  C3  UNL     1      20.042   3.330  46.593  1.00  0.00    -0.004 C 
BRANCH  30  31
HETATM   31  C2  UNL     1      21.438   3.725  46.622  1.00  0.00     0.194 C 
BRANCH  31  32
HETATM   32  O1  UNL     1      21.978   4.735  47.239  1.00  0.00    -0.392 OA
HETATM   33  C1  UNL     1      22.145   5.765  46.214  1.00  0.00     0.201 C 
ENDBRANCH  31  32
ENDBRANCH  30  31
ENDBRANCH   1  29
TORSDOF 5
ENDMDL
MODEL 8
REMARK VINA RESULT:      -7.3      2.570      3.756
REMARK  5 active torsions:
REMARK  status: ('A' for Active; 'I' for Inactive)
REMARK    1  A    between atoms: O1_2  and  C2_3 
REMARK    2  A    between atoms: C2_3  and  C3_4 
REMARK    3  A    between atoms: C4_5  and  C5_6 
REMARK    4  A    between atoms: C13_14  and  N1_15 
REMARK    5  A    between atoms: N1_15  and  C14_16 
ROOT
HETATM    1  C5  UNL     1      23.606   2.382  52.051  1.00  0.00    -0.012 C 
HETATM    2  C6  UNL     1      24.489   2.862  51.085  1.00  0.00     0.052 C 
HETATM    3  C7  UNL     1      25.525   3.428  50.126  1.00  0.00     0.045 C 
HETATM    4  C8  UNL     1      24.678   4.132  49.065  1.00  0.00    -0.012 A 
HETATM    5  C9  UNL     1      23.944   2.994  48.919  1.00  0.00     0.293 A 
HETATM    6  C10 UNL     1      22.908   3.799  48.403  1.00  0.00     0.160 A 
HETATM    7  C11 UNL     1      22.456   5.009  48.052  1.00  0.00     0.053 A 
HETATM    8  C12 UNL     1      23.500   5.959  48.318  1.00  0.00     0.041 A 
HETATM    9  C13 UNL     1      23.207   7.249  48.055  1.00  0.00     0.142 A 
HETATM   10  N2  UNL     1      24.262   8.080  48.411  1.00  0.00    -0.224 NA
HETATM   11  C20 UNL     1      25.370   7.570  48.944  1.00  0.00     0.236 A 
HETATM   12  N3  UNL     1      25.710   6.250  49.236  1.00  0.00    -0.241 NA
HETATM   13  C21 UNL     1      24.661   5.423  48.875  1.00  0.00     0.077 A 
HETATM   14  N4  UNL     1      22.364   2.629  48.974  1.00  0.00     0.037 N 
HETATM   15  C22 UNL     1      21.800   1.382  49.484  1.00  0.00     0.345 C 
HETATM   16  O2  UNL     1      21.692   0.933  48.356  1.00  0.00    -0.260 OA
HETATM   17  C23 UNL     1      21.593   1.030  50.935  1.00  0.00     0.079 C 
HETATM   18  C24 UNL     1      22.404   1.550  51.834  1.00  0.00    -0.012 C 
HETATM   19  H19 UNL     1      21.900   3.183  49.808  1.00  0.00     0.298 HD
ENDROOT
BRANCH   9  20
HETATM   20  N1  UNL     1      21.998   7.610  47.430  1.00  0.00    -0.340 N 
HETATM   21  H13 UNL     1      21.720   7.293  46.466  1.00  0.00     0.167 HD
BRANCH  20  22
HETATM   22  C14 UNL     1      21.210   8.479  48.287  1.00  0.00     0.035 A 
HETATM   23  C15 UNL     1      20.343   7.960  49.205  1.00  0.00     0.029 A 
HETATM   24  C16 UNL     1      19.551   8.785  50.030  1.00  0.00     0.004 A 
HETATM   25  C17 UNL     1      19.600  10.168  49.962  1.00  0.00     0.019 A 
HETATM   26  C18 UNL     1      20.484  10.716  49.041  1.00  0.00     0.013 A 
HETATM   27 BR1  UNL     1      20.600  12.614  48.896  1.00  0.00    -0.051 Br
HETATM   28  C19 UNL     1      21.244   9.857  48.253  1.00  0.00     0.048 A 
ENDBRANCH  20  22
ENDBRANCH   9  20
BRANCH   1  29
HETATM   29  C4  UNL     1      24.440   2.825  53.102  1.00  0.00    -0.019 C 
HETATM   30  C3  UNL     1      25.480   2.279  53.802  1.00  0.00    -0.004 C 
BRANCH  30  31
HETATM   31  C2  UNL     1      25.728   0.903  53.419  1.00  0.00     0.194 C 
BRANCH  31  32
HETATM   32  O1  UNL     1      26.870   0.318  53.207  1.00  0.00    -0.392 OA
HETATM   33  C1  UNL     1      27.456   0.130  54.533  1.00  0.00     0.201 C 
ENDBRANCH  31  32
ENDBRANCH  30  31
ENDBRANCH   1  29
TORSDOF 5
ENDMDL
MODEL 9
REMARK VINA RESULT:      -7.2      3.576      5.502
REMARK  5 active torsions:
REMARK  status: ('A' for Active; 'I' for Inactive)
REMARK    1  A    between atoms: O1_2  and  C2_3 
REMARK    2  A    between atoms: C2_3  and  C3_4 
REMARK    3  A    between atoms: C4_5  and  C5_6 
REMARK    4  A    between atoms: C13_14  and  N1_15 
REMARK    5  A    between atoms: N1_15  and  C14_16 
ROOT
HETATM    1  C5  UNL     1      23.788   0.895  52.988  1.00  0.00    -0.012 C 
HETATM    2  C6  UNL     1      23.214   2.137  52.722  1.00  0.00     0.052 C 
HETATM    3  C7  UNL     1      22.484   3.453  52.493  1.00  0.00     0.045 C 
HETATM    4  C8  UNL     1      22.753   3.756  51.019  1.00  0.00    -0.012 A 
HETATM    5  C9  UNL     1      24.085   3.571  51.241  1.00  0.00     0.293 A 
HETATM    6  C10 UNL     1      24.218   3.312  49.861  1.00  0.00     0.160 A 
HETATM    7  C11 UNL     1      23.659   3.214  48.649  1.00  0.00     0.053 A 
HETATM    8  C12 UNL     1      22.258   3.498  48.789  1.00  0.00     0.041 A 
HETATM    9  C13 UNL     1      21.521   3.410  47.664  1.00  0.00     0.142 A 
HETATM   10  N2  UNL     1      20.178   3.641  47.931  1.00  0.00    -0.224 NA
HETATM   11  C20 UNL     1      19.773   3.895  49.173  1.00  0.00     0.236 A 
HETATM   12  N3  UNL     1      20.497   3.990  50.360  1.00  0.00    -0.241 NA
HETATM   13  C21 UNL     1      21.836   3.767  50.092  1.00  0.00     0.077 A 
HETATM   14  N4  UNL     1      25.247   2.658  50.572  1.00  0.00     0.037 N 
HETATM   15  C22 UNL     1      26.364   2.049  51.289  1.00  0.00     0.345 C 
HETATM   16  O2  UNL     1      27.112   2.950  50.952  1.00  0.00    -0.260 OA
HETATM   17  C23 UNL     1      26.307   0.788  52.112  1.00  0.00     0.079 C 
HETATM   18  C24 UNL     1      25.174   0.469  52.704  1.00  0.00    -0.012 C 
HETATM   19  H19 UNL     1      24.833   1.656  50.359  1.00  0.00     0.298 HD
ENDROOT
BRANCH   9  20
HETATM   20  N1  UNL     1      22.126   3.187  46.411  1.00  0.00    -0.340 N 
HETATM   21  H13 UNL     1      22.771   2.382  46.209  1.00  0.00     0.167 HD
BRANCH  20  22
HETATM   22  C14 UNL     1      21.746   4.218  45.461  1.00  0.00     0.035 A 
HETATM   23  C15 UNL     1      20.927   3.933  44.407  1.00  0.00     0.029 A 
HETATM   24  C16 UNL     1      20.566   4.913  43.459  1.00  0.00     0.004 A 
HETATM   25  C17 UNL     1      21.018   6.221  43.535  1.00  0.00     0.019 A 
HETATM   26  C18 UNL     1      21.846   6.534  44.606  1.00  0.00     0.013 A 
HETATM   27 BR1  UNL     1      22.505   8.316  44.769  1.00  0.00    -0.051 Br
HETATM   28  C19 UNL     1      22.170   5.530  45.515  1.00  0.00     0.048 A 
ENDBRANCH  20  22
ENDBRANCH   9  20
BRANCH   1  29
HETATM   29  C4  UNL     1      22.654   0.475  53.718  1.00  0.00    -0.019 C 
HETATM   30  C3  UNL     1      21.451  -0.085  53.390  1.00  0.00    -0.004 C 
BRANCH  30  31
HETATM   31  C2  UNL     1      21.281  -0.204  51.955  1.00  0.00     0.194 C 
BRANCH  31  32
HETATM   32  O1  UNL     1      20.646   0.595  51.149  1.00  0.00    -0.392 OA
HETATM   33  C1  UNL     1      19.233   0.255  51.306  1.00  0.00     0.201 C 
ENDBRANCH  31  32
ENDBRANCH  30  31
ENDBRANCH   1  29
TORSDOF 5
ENDMDL
