MODEL 1
REMARK VINA RESULT:      -8.0      0.000      0.000
REMARK  6 active torsions:
REMARK  status: ('A' for Active; 'I' for Inactive)
REMARK    1  A    between atoms: C1_2  and  C2_3 
REMARK       I    between atoms: C1_2  and  N1_7 
REMARK    2  A    between atoms: C3_4  and  P1_5 
REMARK    3  A    between atoms: P1_5  and  O2_6 
REMARK    4  A    between atoms: N1_7  and  P2_8 
REMARK    5  A    between atoms: C6_11  and  N2_12 
REMARK    6  A    between atoms: N2_12  and  C7_13 
ROOT
HETATM    1  P2  UNL     1      22.938   1.355  52.653  1.00  0.00    -0.027 P 
HETATM    2  C4  UNL     1      22.968   2.650  51.702  1.00  0.00     0.011 C 
HETATM    3  C5  UNL     1      22.421   2.593  50.546  1.00  0.00     0.051 A 
HETATM    4  C6  UNL     1      22.696   3.746  49.806  1.00  0.00     0.143 A 
HETATM    5  N3  UNL     1      22.220   3.905  48.548  1.00  0.00    -0.223 NA
HETATM    6  C13 UNL     1      21.460   2.987  47.927  1.00  0.00     0.235 A 
HETATM    7  N4  UNL     1      21.180   1.851  48.634  1.00  0.00    -0.241 NA
HETATM    8  C14 UNL     1      21.651   1.696  49.873  1.00  0.00     0.069 A 
HETATM    9  C15 UNL     1      21.405   0.616  50.580  1.00  0.00     0.012 C 
HETATM   10  C16 UNL     1      21.776   0.173  51.930  1.00  0.00     0.081 C 
HETATM   11  H4  UNL     1      22.470   1.778  53.937  1.00  0.00     0.079 HD
ENDROOT
BRANCH   1  12
HETATM   12  N1  UNL     1      24.496   0.588  52.805  1.00  0.00    -0.328 N 
HETATM   13  C1  UNL     1      25.783   0.984  53.257  1.00  0.00     0.300 C 
HETATM   14  O1  UNL     1      25.791   2.203  53.656  1.00  0.00    -0.258 OA
HETATM   15  H3  UNL     1      24.555  -0.430  52.482  1.00  0.00     0.168 HD
BRANCH  13  16
HETATM   16  C2  UNL     1      26.931   0.128  53.271  1.00  0.00     0.002 C 
HETATM   17  C3  UNL     1      27.881  -0.605  53.288  1.00  0.00    -0.039 C 
BRANCH  17  18
HETATM   18  P1  UNL     1      29.292  -1.727  53.315  1.00  0.00     0.089 P 
HETATM   19  H1  UNL     1      30.182  -1.334  54.371  1.00  0.00     0.101 HD
BRANCH  18  20
HETATM   20  O2  UNL     1      28.806  -3.392  53.425  1.00  0.00    -0.363 OA
HETATM   21  H2  UNL     1      29.474  -4.021  53.085  1.00  0.00     0.216 HD
ENDBRANCH  18  20
ENDBRANCH  17  18
ENDBRANCH  13  16
ENDBRANCH   1  12
BRANCH   4  22
HETATM   22  N2  UNL     1      23.432   4.955  50.074  1.00  0.00    -0.340 N 
HETATM   23  H5  UNL     1      23.047   5.771  50.573  1.00  0.00     0.167 HD
BRANCH  22  24
HETATM   24  C7  UNL     1      24.775   4.950  49.589  1.00  0.00     0.035 A 
HETATM   25  C8  UNL     1      25.651   3.910  49.741  1.00  0.00     0.032 A 
HETATM   26  C9  UNL     1      26.959   3.916  49.284  1.00  0.00     0.046 A 
HETATM   27  C10 UNL     1      27.434   5.025  48.635  1.00  0.00     0.138 A 
HETATM   28  F1  UNL     1      28.727   4.992  48.199  1.00  0.00    -0.204 F 
HETATM   29  C11 UNL     1      26.580   6.083  48.467  1.00  0.00     0.074 A 
HETATM   30 CL1  UNL     1      27.175   7.497  47.636  1.00  0.00    -0.081 Cl
HETATM   31  C12 UNL     1      25.283   6.063  48.925  1.00  0.00     0.056 A 
ENDBRANCH  22  24
ENDBRANCH   4  22
TORSDOF 6
ENDMDL
MODEL 2
REMARK VINA RESULT:      -7.9      4.327      6.576
REMARK  6 active torsions:
REMARK  status: ('A' for Active; 'I' for Inactive)
REMARK    1  A    between atoms: C1_2  and  C2_3 
REMARK       I    between atoms: C1_2  and  N1_7 
REMARK    2  A    between atoms: C3_4  and  P1_5 
REMARK    3  A    between atoms: P1_5  and  O2_6 
REMARK    4  A    between atoms: N1_7  and  P2_8 
REMARK    5  A    between atoms: C6_11  and  N2_12 
REMARK    6  A    between atoms: N2_12  and  C7_13 
ROOT
HETATM    1  P2  UNL     1      22.193   4.091  52.220  1.00  0.00    -0.027 P 
HETATM    2  C4  UNL     1      23.714   3.620  52.439  1.00  0.00     0.011 C 
HETATM    3  C5  UNL     1      24.503   3.557  51.433  1.00  0.00     0.051 A 
HETATM    4  C6  UNL     1      25.719   2.970  51.789  1.00  0.00     0.143 A 
HETATM    5  N3  UNL     1      26.710   2.796  50.881  1.00  0.00    -0.223 NA
HETATM    6  C13 UNL     1      26.603   3.171  49.595  1.00  0.00     0.235 A 
HETATM    7  N4  UNL     1      25.420   3.749  49.227  1.00  0.00    -0.241 NA
HETATM    8  C14 UNL     1      24.446   3.916  50.122  1.00  0.00     0.069 A 
HETATM    9  C15 UNL     1      23.294   4.463  49.803  1.00  0.00     0.012 C 
HETATM   10  C16 UNL     1      22.067   4.772  50.549  1.00  0.00     0.081 C 
HETATM   11  H4  UNL     1      21.917   5.110  53.185  1.00  0.00     0.079 HD
ENDROOT
BRANCH   1  12
HETATM   12  N1  UNL     1      21.048   2.786  52.381  1.00  0.00    -0.328 N 
HETATM   13  C1  UNL     1      20.885   1.502  51.797  1.00  0.00     0.300 C 
HETATM   14  O1  UNL     1      21.813   1.243  50.951  1.00  0.00    -0.258 OA
HETATM   15  H3  UNL     1      20.244   2.945  53.068  1.00  0.00     0.168 HD
BRANCH  13  16
HETATM   16  C2  UNL     1      19.817   0.602  52.115  1.00  0.00     0.002 C 
HETATM   17  C3  UNL     1      18.912  -0.138  52.391  1.00  0.00    -0.039 C 
BRANCH  17  18
HETATM   18  P1  UNL     1      17.539  -1.227  52.813  1.00  0.00     0.089 P 
HETATM   19  H1  UNL     1      17.158  -1.972  51.647  1.00  0.00     0.101 HD
BRANCH  18  20
HETATM   20  O2  UNL     1      17.900  -2.241  54.177  1.00  0.00    -0.363 OA
HETATM   21  H2  UNL     1      17.159  -2.822  54.444  1.00  0.00     0.216 HD
ENDBRANCH  18  20
ENDBRANCH  17  18
ENDBRANCH  13  16
ENDBRANCH   1  12
BRANCH   4  22
HETATM   22  N2  UNL     1      26.257   2.450  53.020  1.00  0.00    -0.340 N 
HETATM   23  H5  UNL     1      26.336   2.992  53.894  1.00  0.00     0.167 HD
BRANCH  22  24
HETATM   24  C7  UNL     1      26.687   1.090  52.952  1.00  0.00     0.035 A 
HETATM   25  C8  UNL     1      25.893   0.044  52.569  1.00  0.00     0.032 A 
HETATM   26  C9  UNL     1      26.308  -1.277  52.521  1.00  0.00     0.046 A 
HETATM   27  C10 UNL     1      27.596  -1.585  52.875  1.00  0.00     0.138 A 
HETATM   28  F1  UNL     1      27.968  -2.897  52.813  1.00  0.00    -0.204 F 
HETATM   29  C11 UNL     1      28.416  -0.558  53.261  1.00  0.00     0.074 A 
HETATM   30 CL1  UNL     1      30.059  -0.940  53.708  1.00  0.00    -0.081 Cl
HETATM   31  C12 UNL     1      27.990   0.750  53.304  1.00  0.00     0.056 A 
ENDBRANCH  22  24
ENDBRANCH   4  22
TORSDOF 6
ENDMDL
MODEL 3
REMARK VINA RESULT:      -7.4      4.067      6.613
REMARK  6 active torsions:
REMARK  status: ('A' for Active; 'I' for Inactive)
REMARK    1  A    between atoms: C1_2  and  C2_3 
REMARK       I    between atoms: C1_2  and  N1_7 
REMARK    2  A    between atoms: C3_4  and  P1_5 
REMARK    3  A    between atoms: P1_5  and  O2_6 
REMARK    4  A    between atoms: N1_7  and  P2_8 
REMARK    5  A    between atoms: C6_11  and  N2_12 
REMARK    6  A    between atoms: N2_12  and  C7_13 
ROOT
HETATM    1  P2  UNL     1      21.822   1.869  50.652  1.00  0.00    -0.027 P 
HETATM    2  C4  UNL     1      22.721   0.805  51.453  1.00  0.00     0.011 C 
HETATM    3  C5  UNL     1      22.368   0.443  52.629  1.00  0.00     0.051 A 
HETATM    4  C6  UNL     1      23.354  -0.347  53.226  1.00  0.00     0.143 A 
HETATM    5  N3  UNL     1      23.197  -0.842  54.477  1.00  0.00    -0.223 NA
HETATM    6  C13 UNL     1      22.103  -0.620  55.225  1.00  0.00     0.235 A 
HETATM    7  N4  UNL     1      21.126   0.150  54.658  1.00  0.00    -0.241 NA
HETATM    8  C14 UNL     1      21.284   0.638  53.427  1.00  0.00     0.069 A 
HETATM    9  C15 UNL     1      20.368   1.386  52.853  1.00  0.00     0.012 C 
HETATM   10  C16 UNL     1      20.261   2.048  51.546  1.00  0.00     0.081 C 
HETATM   11  H4  UNL     1      21.582   1.331  49.349  1.00  0.00     0.079 HD
ENDROOT
BRANCH   1  12
HETATM   12  N1  UNL     1      22.577   3.436  50.525  1.00  0.00    -0.328 N 
HETATM   13  C1  UNL     1      23.462   4.064  49.609  1.00  0.00     0.300 C 
HETATM   14  O1  UNL     1      23.773   3.286  48.639  1.00  0.00    -0.258 OA
HETATM   15  H3  UNL     1      22.361   4.130  51.310  1.00  0.00     0.168 HD
BRANCH  13  16
HETATM   16  C2  UNL     1      23.947   5.405  49.748  1.00  0.00     0.002 C 
HETATM   17  C3  UNL     1      24.364   6.523  49.881  1.00  0.00    -0.039 C 
BRANCH  17  18
HETATM   18  P1  UNL     1      25.007   8.193  50.098  1.00  0.00     0.089 P 
HETATM   19  H1  UNL     1      24.060   8.965  50.850  1.00  0.00     0.101 HD
BRANCH  18  20
HETATM   20  O2  UNL     1      26.596   8.197  50.804  1.00  0.00    -0.363 OA
HETATM   21  H2  UNL     1      26.794   9.003  51.323  1.00  0.00     0.216 HD
ENDBRANCH  18  20
ENDBRANCH  17  18
ENDBRANCH  13  16
ENDBRANCH   1  12
BRANCH   4  22
HETATM   22  N2  UNL     1      24.640  -0.835  52.798  1.00  0.00    -0.340 N 
HETATM   23  H5  UNL     1      24.786  -1.726  52.299  1.00  0.00     0.167 HD
BRANCH  22  24
HETATM   24  C7  UNL     1      25.735   0.023  53.118  1.00  0.00     0.035 A 
HETATM   25  C8  UNL     1      25.625   1.364  53.365  1.00  0.00     0.032 A 
HETATM   26  C9  UNL     1      26.693   2.197  53.658  1.00  0.00     0.046 A 
HETATM   27  C10 UNL     1      27.956   1.668  53.709  1.00  0.00     0.138 A 
HETATM   28  F1  UNL     1      28.982   2.519  54.002  1.00  0.00    -0.204 F 
HETATM   29  C11 UNL     1      28.099   0.327  53.468  1.00  0.00     0.074 A 
HETATM   30 CL1  UNL     1      29.703  -0.356  53.537  1.00  0.00    -0.081 Cl
HETATM   31  C12 UNL     1      27.030  -0.488  53.178  1.00  0.00     0.056 A 
ENDBRANCH  22  24
ENDBRANCH   4  22
TORSDOF 6
ENDMDL
MODEL 4
REMARK VINA RESULT:      -7.1      4.610      7.367
REMARK  6 active torsions:
REMARK  status: ('A' for Active; 'I' for Inactive)
REMARK    1  A    between atoms: C1_2  and  C2_3 
REMARK       I    between atoms: C1_2  and  N1_7 
REMARK    2  A    between atoms: C3_4  and  P1_5 
REMARK    3  A    between atoms: P1_5  and  O2_6 
REMARK    4  A    between atoms: N1_7  and  P2_8 
REMARK    5  A    between atoms: C6_11  and  N2_12 
REMARK    6  A    between atoms: N2_12  and  C7_13 
ROOT
HETATM    1  P2  UNL     1      22.724   2.863  49.167  1.00  0.00    -0.027 P 
HETATM    2  C4  UNL     1      23.355   2.408  50.572  1.00  0.00     0.011 C 
HETATM    3  C5  UNL     1      22.747   1.531  51.279  1.00  0.00     0.051 A 
HETATM    4  C6  UNL     1      23.352   1.392  52.531  1.00  0.00     0.143 A 
HETATM    5  N3  UNL     1      22.874   0.519  53.451  1.00  0.00    -0.223 NA
HETATM    6  C13 UNL     1      21.805  -0.267  53.234  1.00  0.00     0.235 A 
HETATM    7  N4  UNL     1      21.200  -0.146  52.015  1.00  0.00    -0.241 NA
HETATM    8  C14 UNL     1      21.671   0.716  51.112  1.00  0.00     0.069 A 
HETATM    9  C15 UNL     1      21.111   0.862  49.931  1.00  0.00     0.012 C 
HETATM   10  C16 UNL     1      21.396   1.704  48.763  1.00  0.00     0.081 C 
HETATM   11  H4  UNL     1      23.761   2.781  48.185  1.00  0.00     0.079 HD
ENDROOT
BRANCH   1  12
HETATM   12  N1  UNL     1      22.065   4.477  49.210  1.00  0.00    -0.328 N 
HETATM   13  C1  UNL     1      21.126   5.168  50.020  1.00  0.00     0.300 C 
HETATM   14  O1  UNL     1      20.657   4.419  50.949  1.00  0.00    -0.258 OA
HETATM   15  H3  UNL     1      22.413   5.150  48.454  1.00  0.00     0.168 HD
BRANCH  13  16
HETATM   16  C2  UNL     1      20.749   6.537  49.829  1.00  0.00     0.002 C 
HETATM   17  C3  UNL     1      20.415   7.678  49.664  1.00  0.00    -0.039 C 
BRANCH  17  18
HETATM   18  P1  UNL     1      19.888   9.384  49.417  1.00  0.00     0.089 P 
HETATM   19  H1  UNL     1      20.072   9.737  48.038  1.00  0.00     0.101 HD
BRANCH  18  20
HETATM   20  O2  UNL     1      18.264   9.656  49.973  1.00  0.00    -0.363 OA
HETATM   21  H2  UNL     1      18.084  10.584  50.228  1.00  0.00     0.216 HD
ENDBRANCH  18  20
ENDBRANCH  17  18
ENDBRANCH  13  16
ENDBRANCH   1  12
BRANCH   4  22
HETATM   22  N2  UNL     1      24.492   2.002  53.164  1.00  0.00    -0.340 N 
HETATM   23  H5  UNL     1      24.480   2.930  53.615  1.00  0.00     0.167 HD
BRANCH  22  24
HETATM   24  C7  UNL     1      25.682   1.213  53.130  1.00  0.00     0.035 A 
HETATM   25  C8  UNL     1      25.785  -0.008  52.520  1.00  0.00     0.032 A 
HETATM   26  C9  UNL     1      26.936  -0.779  52.503  1.00  0.00     0.046 A 
HETATM   27  C10 UNL     1      28.061  -0.312  53.132  1.00  0.00     0.138 A 
HETATM   28  F1  UNL     1      29.176  -1.100  53.092  1.00  0.00    -0.204 F 
HETATM   29  C11 UNL     1      27.988   0.908  53.750  1.00  0.00     0.074 A 
HETATM   30 CL1  UNL     1      29.418   1.513  54.548  1.00  0.00    -0.081 Cl
HETATM   31  C12 UNL     1      26.839   1.663  53.759  1.00  0.00     0.056 A 
ENDBRANCH  22  24
ENDBRANCH   4  22
TORSDOF 6
ENDMDL
MODEL 5
REMARK VINA RESULT:      -6.9      1.650      1.983
REMARK  6 active torsions:
REMARK  status: ('A' for Active; 'I' for Inactive)
REMARK    1  A    between atoms: C1_2  and  C2_3 
REMARK       I    between atoms: C1_2  and  N1_7 
REMARK    2  A    between atoms: C3_4  and  P1_5 
REMARK    3  A    between atoms: P1_5  and  O2_6 
REMARK    4  A    between atoms: N1_7  and  P2_8 
REMARK    5  A    between atoms: C6_11  and  N2_12 
REMARK    6  A    between atoms: N2_12  and  C7_13 
ROOT
HETATM    1  P2  UNL     1      22.375   1.485  52.477  1.00  0.00    -0.027 P 
HETATM    2  C4  UNL     1      22.237   2.827  51.605  1.00  0.00     0.011 C 
HETATM    3  C5  UNL     1      21.827   2.749  50.394  1.00  0.00     0.051 A 
HETATM    4  C6  UNL     1      21.936   3.985  49.751  1.00  0.00     0.143 A 
HETATM    5  N3  UNL     1      21.562   4.141  48.458  1.00  0.00    -0.223 NA
HETATM    6  C13 UNL     1      21.066   3.141  47.710  1.00  0.00     0.235 A 
HETATM    7  N4  UNL     1      20.951   1.924  48.322  1.00  0.00    -0.241 NA
HETATM    8  C14 UNL     1      21.322   1.773  49.594  1.00  0.00     0.069 A 
HETATM    9  C15 UNL     1      21.230   0.617  50.213  1.00  0.00     0.012 C 
HETATM   10  C16 UNL     1      21.549   0.156  51.570  1.00  0.00     0.081 C 
HETATM   11  H4  UNL     1      21.710   1.714  53.723  1.00  0.00     0.079 HD
ENDROOT
BRANCH   1  12
HETATM   12  N1  UNL     1      24.033   1.025  52.758  1.00  0.00    -0.328 N 
HETATM   13  C1  UNL     1      24.693  -0.004  53.481  1.00  0.00     0.300 C 
HETATM   14  O1  UNL     1      23.858  -0.786  54.062  1.00  0.00    -0.258 OA
HETATM   15  H3  UNL     1      24.779   1.644  52.304  1.00  0.00     0.168 HD
BRANCH  13  16
HETATM   16  C2  UNL     1      26.115  -0.155  53.552  1.00  0.00     0.002 C 
HETATM   17  C3  UNL     1      27.306  -0.280  53.631  1.00  0.00    -0.039 C 
BRANCH  17  18
HETATM   18  P1  UNL     1      29.093  -0.472  53.777  1.00  0.00     0.089 P 
HETATM   19  H1  UNL     1      29.520  -1.544  52.923  1.00  0.00     0.101 HD
BRANCH  18  20
HETATM   20  O2  UNL     1      29.940   1.014  53.470  1.00  0.00    -0.363 OA
HETATM   21  H2  UNL     1      30.016   1.594  54.255  1.00  0.00     0.216 HD
ENDBRANCH  18  20
ENDBRANCH  17  18
ENDBRANCH  13  16
ENDBRANCH   1  12
BRANCH   4  22
HETATM   22  N2  UNL     1      22.385   5.291  50.161  1.00  0.00    -0.340 N 
HETATM   23  H5  UNL     1      21.887   5.892  50.835  1.00  0.00     0.167 HD
BRANCH  22  24
HETATM   24  C7  UNL     1      23.606   5.714  49.554  1.00  0.00     0.035 A 
HETATM   25  C8  UNL     1      23.778   6.908  48.908  1.00  0.00     0.032 A 
HETATM   26  C9  UNL     1      24.960   7.309  48.306  1.00  0.00     0.046 A 
HETATM   27  C10 UNL     1      26.045   6.472  48.343  1.00  0.00     0.138 A 
HETATM   28  F1  UNL     1      27.192   6.903  47.740  1.00  0.00    -0.204 F 
HETATM   29  C11 UNL     1      25.904   5.270  48.985  1.00  0.00     0.074 A 
HETATM   30 CL1  UNL     1      27.282   4.202  49.043  1.00  0.00    -0.081 Cl
HETATM   31  C12 UNL     1      24.725   4.885  49.579  1.00  0.00     0.056 A 
ENDBRANCH  22  24
ENDBRANCH   4  22
TORSDOF 6
ENDMDL
MODEL 6
REMARK VINA RESULT:      -6.7      6.456      9.522
REMARK  6 active torsions:
REMARK  status: ('A' for Active; 'I' for Inactive)
REMARK    1  A    between atoms: C1_2  and  C2_3 
REMARK       I    between atoms: C1_2  and  N1_7 
REMARK    2  A    between atoms: C3_4  and  P1_5 
REMARK    3  A    between atoms: P1_5  and  O2_6 
REMARK    4  A    between atoms: N1_7  and  P2_8 
REMARK    5  A    between atoms: C6_11  and  N2_12 
REMARK    6  A    between atoms: N2_12  and  C7_13 
ROOT
HETATM    1  P2  UNL     1      28.680   9.314  49.325  1.00  0.00    -0.027 P 
HETATM    2  C4  UNL     1      30.234   8.949  49.146  1.00  0.00     0.011 C 
HETATM    3  C5  UNL     1      30.795   9.134  48.010  1.00  0.00     0.051 A 
HETATM    4  C6  UNL     1      32.088   8.604  48.000  1.00  0.00     0.143 A 
HETATM    5  N3  UNL     1      32.872   8.682  46.898  1.00  0.00    -0.223 NA
HETATM    6  C13 UNL     1      32.477   9.264  45.753  1.00  0.00     0.235 A 
HETATM    7  N4  UNL     1      31.215   9.789  45.743  1.00  0.00    -0.241 NA
HETATM    8  C14 UNL     1      30.445   9.710  46.829  1.00  0.00     0.069 A 
HETATM    9  C15 UNL     1      29.225  10.200  46.853  1.00  0.00     0.012 C 
HETATM   10  C16 UNL     1      28.169  10.262  47.872  1.00  0.00     0.081 C 
HETATM   11  H4  UNL     1      28.562  10.119  50.501  1.00  0.00     0.079 HD
ENDROOT
BRANCH   1  12
HETATM   12  N1  UNL     1      27.663   7.904  49.459  1.00  0.00    -0.328 N 
HETATM   13  C1  UNL     1      27.401   6.761  48.657  1.00  0.00     0.300 C 
HETATM   14  O1  UNL     1      28.088   6.774  47.574  1.00  0.00    -0.258 OA
HETATM   15  H3  UNL     1      27.059   7.839  50.340  1.00  0.00     0.168 HD
BRANCH  13  16
HETATM   16  C2  UNL     1      26.485   5.720  49.013  1.00  0.00     0.002 C 
HETATM   17  C3  UNL     1      25.720   4.838  49.294  1.00  0.00    -0.039 C 
BRANCH  17  18
HETATM   18  P1  UNL     1      24.582   3.498  49.696  1.00  0.00     0.089 P 
HETATM   19  H1  UNL     1      24.324   2.732  48.510  1.00  0.00     0.101 HD
BRANCH  18  20
HETATM   20  O2  UNL     1      25.153   2.526  51.018  1.00  0.00    -0.363 OA
HETATM   21  H2  UNL     1      24.482   1.906  51.370  1.00  0.00     0.216 HD
ENDBRANCH  18  20
ENDBRANCH  17  18
ENDBRANCH  13  16
ENDBRANCH   1  12
BRANCH   4  22
HETATM   22  N2  UNL     1      32.900   7.928  48.978  1.00  0.00    -0.340 N 
HETATM   23  H5  UNL     1      33.155   8.324  49.896  1.00  0.00     0.167 HD
BRANCH  22  24
HETATM   24  C7  UNL     1      33.343   6.629  48.585  1.00  0.00     0.035 A 
HETATM   25  C8  UNL     1      34.620   6.163  48.743  1.00  0.00     0.032 A 
HETATM   26  C9  UNL     1      35.050   4.908  48.345  1.00  0.00     0.046 A 
HETATM   27  C10 UNL     1      34.159   4.055  47.748  1.00  0.00     0.138 A 
HETATM   28  F1  UNL     1      34.620   2.827  47.371  1.00  0.00    -0.204 F 
HETATM   29  C11 UNL     1      32.872   4.493  47.578  1.00  0.00     0.074 A 
HETATM   30 CL1  UNL     1      31.728   3.410  46.825  1.00  0.00    -0.081 Cl
HETATM   31  C12 UNL     1      32.458   5.741  47.978  1.00  0.00     0.056 A 
ENDBRANCH  22  24
ENDBRANCH   4  22
TORSDOF 6
ENDMDL
MODEL 7
REMARK VINA RESULT:      -6.7      2.534      3.009
REMARK  6 active torsions:
REMARK  status: ('A' for Active; 'I' for Inactive)
REMARK    1  A    between atoms: C1_2  and  C2_3 
REMARK       I    between atoms: C1_2  and  N1_7 
REMARK    2  A    between atoms: C3_4  and  P1_5 
REMARK    3  A    between atoms: P1_5  and  O2_6 
REMARK    4  A    between atoms: N1_7  and  P2_8 
REMARK    5  A    between atoms: C6_11  and  N2_12 
REMARK    6  A    between atoms: N2_12  and  C7_13 
ROOT
HETATM    1  P2  UNL     1      23.224   1.720  52.398  1.00  0.00    -0.027 P 
HETATM    2  C4  UNL     1      23.316   2.812  51.224  1.00  0.00     0.011 C 
HETATM    3  C5  UNL     1      22.688   2.609  50.127  1.00  0.00     0.051 A 
HETATM    4  C6  UNL     1      23.023   3.574  49.174  1.00  0.00     0.143 A 
HETATM    5  N3  UNL     1      22.481   3.556  47.932  1.00  0.00    -0.223 NA
HETATM    6  C13 UNL     1      21.594   2.630  47.530  1.00  0.00     0.235 A 
HETATM    7  N4  UNL     1      21.252   1.677  48.449  1.00  0.00    -0.241 NA
HETATM    8  C14 UNL     1      21.790   1.696  49.669  1.00  0.00     0.069 A 
HETATM    9  C15 UNL     1      21.488   0.793  50.576  1.00  0.00     0.012 C 
HETATM   10  C16 UNL     1      21.905   0.561  51.965  1.00  0.00     0.081 C 
HETATM   11  H4  UNL     1      22.889   2.414  53.603  1.00  0.00     0.079 HD
ENDROOT
BRANCH   1  12
HETATM   12  N1  UNL     1      24.706   0.827  52.612  1.00  0.00    -0.328 N 
HETATM   13  C1  UNL     1      25.962   1.076  53.227  1.00  0.00     0.300 C 
HETATM   14  O1  UNL     1      26.007   2.243  53.758  1.00  0.00    -0.258 OA
HETATM   15  H3  UNL     1      24.733  -0.154  52.186  1.00  0.00     0.168 HD
BRANCH  13  16
HETATM   16  C2  UNL     1      27.045   0.140  53.256  1.00  0.00     0.002 C 
HETATM   17  C3  UNL     1      27.947  -0.651  53.297  1.00  0.00    -0.039 C 
BRANCH  17  18
HETATM   18  P1  UNL     1      29.290  -1.851  53.381  1.00  0.00     0.089 P 
HETATM   19  H1  UNL     1      30.136  -1.530  54.496  1.00  0.00     0.101 HD
BRANCH  18  20
HETATM   20  O2  UNL     1      28.706  -3.487  53.424  1.00  0.00    -0.363 OA
HETATM   21  H2  UNL     1      27.837  -3.607  52.989  1.00  0.00     0.216 HD
ENDBRANCH  18  20
ENDBRANCH  17  18
ENDBRANCH  13  16
ENDBRANCH   1  12
BRANCH   4  22
HETATM   22  N2  UNL     1      23.891   4.724  49.176  1.00  0.00    -0.340 N 
HETATM   23  H5  UNL     1      24.919   4.676  49.108  1.00  0.00     0.167 HD
BRANCH  22  24
HETATM   24  C7  UNL     1      23.214   5.977  49.282  1.00  0.00     0.035 A 
HETATM   25  C8  UNL     1      22.382   6.324  50.312  1.00  0.00     0.032 A 
HETATM   26  C9  UNL     1      21.713   7.534  50.402  1.00  0.00     0.046 A 
HETATM   27  C10 UNL     1      21.877   8.464  49.408  1.00  0.00     0.138 A 
HETATM   28  F1  UNL     1      21.203   9.644  49.534  1.00  0.00    -0.204 F 
HETATM   29  C11 UNL     1      22.706   8.144  48.365  1.00  0.00     0.074 A 
HETATM   30 CL1  UNL     1      22.925   9.324  47.098  1.00  0.00    -0.081 Cl
HETATM   31  C12 UNL     1      23.364   6.939  48.287  1.00  0.00     0.056 A 
ENDBRANCH  22  24
ENDBRANCH   4  22
TORSDOF 6
ENDMDL
MODEL 8
REMARK VINA RESULT:      -6.7      3.753      5.783
REMARK  6 active torsions:
REMARK  status: ('A' for Active; 'I' for Inactive)
REMARK    1  A    between atoms: C1_2  and  C2_3 
REMARK       I    between atoms: C1_2  and  N1_7 
REMARK    2  A    between atoms: C3_4  and  P1_5 
REMARK    3  A    between atoms: P1_5  and  O2_6 
REMARK    4  A    between atoms: N1_7  and  P2_8 
REMARK    5  A    between atoms: C6_11  and  N2_12 
REMARK    6  A    between atoms: N2_12  and  C7_13 
ROOT
HETATM    1  P2  UNL     1      25.055   3.424  49.577  1.00  0.00    -0.027 P 
HETATM    2  C4  UNL     1      23.513   2.970  49.583  1.00  0.00     0.011 C 
HETATM    3  C5  UNL     1      22.620   3.788  49.996  1.00  0.00     0.051 A 
HETATM    4  C6  UNL     1      21.374   3.161  50.088  1.00  0.00     0.143 A 
HETATM    5  N3  UNL     1      20.276   3.835  50.507  1.00  0.00    -0.223 NA
HETATM    6  C13 UNL     1      20.298   5.132  50.858  1.00  0.00     0.235 A 
HETATM    7  N4  UNL     1      21.508   5.763  50.774  1.00  0.00    -0.241 NA
HETATM    8  C14 UNL     1      22.587   5.097  50.363  1.00  0.00     0.069 A 
HETATM    9  C15 UNL     1      23.767   5.670  50.274  1.00  0.00     0.012 C 
HETATM   10  C16 UNL     1      25.100   5.208  49.866  1.00  0.00     0.081 C 
HETATM   11  H4  UNL     1      25.584   3.124  48.282  1.00  0.00     0.079 HD
ENDROOT
BRANCH   1  12
HETATM   12  N1  UNL     1      26.000   2.633  50.809  1.00  0.00    -0.328 N 
HETATM   13  C1  UNL     1      25.852   2.385  52.200  1.00  0.00     0.300 C 
HETATM   14  O1  UNL     1      24.747   2.856  52.651  1.00  0.00    -0.258 OA
HETATM   15  H3  UNL     1      26.938   2.224  50.496  1.00  0.00     0.168 HD
BRANCH  13  16
HETATM   16  C2  UNL     1      26.814   1.692  53.003  1.00  0.00     0.002 C 
HETATM   17  C3  UNL     1      27.610   1.095  53.675  1.00  0.00    -0.039 C 
BRANCH  17  18
HETATM   18  P1  UNL     1      28.792   0.175  54.678  1.00  0.00     0.089 P 
HETATM   19  H1  UNL     1      28.074  -0.705  55.556  1.00  0.00     0.101 HD
BRANCH  18  20
HETATM   20  O2  UNL     1      29.973  -0.652  53.709  1.00  0.00    -0.363 OA
HETATM   21  H2  UNL     1      30.144  -1.572  53.995  1.00  0.00     0.216 HD
ENDBRANCH  18  20
ENDBRANCH  17  18
ENDBRANCH  13  16
ENDBRANCH   1  12
BRANCH   4  22
HETATM   22  N2  UNL     1      20.901   1.830  49.808  1.00  0.00    -0.340 N 
HETATM   23  H5  UNL     1      20.663   1.484  48.865  1.00  0.00     0.167 HD
BRANCH  22  24
HETATM   24  C7  UNL     1      20.778   0.991  50.956  1.00  0.00     0.035 A 
HETATM   25  C8  UNL     1      19.596   0.484  51.424  1.00  0.00     0.032 A 
HETATM   26  C9  UNL     1      19.478  -0.316  52.549  1.00  0.00     0.046 A 
HETATM   27  C10 UNL     1      20.604  -0.636  53.261  1.00  0.00     0.138 A 
HETATM   28  F1  UNL     1      20.448  -1.427  54.362  1.00  0.00    -0.204 F 
HETATM   29  C11 UNL     1      21.803  -0.144  52.816  1.00  0.00     0.074 A 
HETATM   30 CL1  UNL     1      23.244  -0.552  53.713  1.00  0.00    -0.081 Cl
HETATM   31  C12 UNL     1      21.906   0.649  51.697  1.00  0.00     0.056 A 
ENDBRANCH  22  24
ENDBRANCH   4  22
TORSDOF 6
ENDMDL
MODEL 9
REMARK VINA RESULT:      -6.5      6.860      9.312
REMARK  6 active torsions:
REMARK  status: ('A' for Active; 'I' for Inactive)
REMARK    1  A    between atoms: C1_2  and  C2_3 
REMARK       I    between atoms: C1_2  and  N1_7 
REMARK    2  A    between atoms: C3_4  and  P1_5 
REMARK    3  A    between atoms: P1_5  and  O2_6 
REMARK    4  A    between atoms: N1_7  and  P2_8 
REMARK    5  A    between atoms: C6_11  and  N2_12 
REMARK    6  A    between atoms: N2_12  and  C7_13 
ROOT
HETATM    1  P2  UNL     1      16.859  -0.221  50.829  1.00  0.00    -0.027 P 
HETATM    2  C4  UNL     1      18.413   0.071  51.114  1.00  0.00     0.011 C 
HETATM    3  C5  UNL     1      18.792   1.269  51.358  1.00  0.00     0.051 A 
HETATM    4  C6  UNL     1      20.187   1.350  51.409  1.00  0.00     0.143 A 
HETATM    5  N3  UNL     1      20.815   2.526  51.652  1.00  0.00    -0.223 NA
HETATM    6  C13 UNL     1      20.160   3.681  51.861  1.00  0.00     0.235 A 
HETATM    7  N4  UNL     1      18.795   3.622  51.816  1.00  0.00    -0.241 NA
HETATM    8  C14 UNL     1      18.179   2.464  51.575  1.00  0.00     0.069 A 
HETATM    9  C15 UNL     1      16.869   2.371  51.519  1.00  0.00     0.012 C 
HETATM   10  C16 UNL     1      15.932   1.266  51.279  1.00  0.00     0.081 C 
HETATM   11  H4  UNL     1      16.468  -1.313  51.665  1.00  0.00     0.079 HD
ENDROOT
BRANCH   1  12
HETATM   12  N1  UNL     1      16.534  -0.598  49.158  1.00  0.00    -0.328 N 
HETATM   13  C1  UNL     1      15.610  -1.425  48.466  1.00  0.00     0.300 C 
HETATM   14  O1  UNL     1      14.821  -2.035  49.272  1.00  0.00    -0.258 OA
HETATM   15  H3  UNL     1      17.164  -0.125  48.435  1.00  0.00     0.168 HD
BRANCH  13  16
HETATM   16  C2  UNL     1      15.560  -1.561  47.041  1.00  0.00     0.002 C 
HETATM   17  C3  UNL     1      15.500  -1.677  45.848  1.00  0.00    -0.039 C 
BRANCH  17  18
HETATM   18  P1  UNL     1      15.381  -1.851  44.057  1.00  0.00     0.089 P 
HETATM   19  H1  UNL     1      16.697  -2.044  43.517  1.00  0.00     0.101 HD
BRANCH  18  20
HETATM   20  O2  UNL     1      14.268  -3.101  43.591  1.00  0.00    -0.363 OA
HETATM   21  H2  UNL     1      13.516  -3.210  44.207  1.00  0.00     0.216 HD
ENDBRANCH  18  20
ENDBRANCH  17  18
ENDBRANCH  13  16
ENDBRANCH   1  12
BRANCH   4  22
HETATM   22  N2  UNL     1      21.250   0.391  51.264  1.00  0.00    -0.340 N 
HETATM   23  H5  UNL     1      21.628   0.074  50.357  1.00  0.00     0.167 HD
BRANCH  22  24
HETATM   24  C7  UNL     1      21.769  -0.111  52.496  1.00  0.00     0.035 A 
HETATM   25  C8  UNL     1      21.004  -0.623  53.508  1.00  0.00     0.032 A 
HETATM   26  C9  UNL     1      21.509  -1.093  54.710  1.00  0.00     0.046 A 
HETATM   27  C10 UNL     1      22.861  -1.052  54.927  1.00  0.00     0.138 A 
HETATM   28  F1  UNL     1      23.321  -1.525  56.122  1.00  0.00    -0.204 F 
HETATM   29  C11 UNL     1      23.654  -0.545  53.931  1.00  0.00     0.074 A 
HETATM   30 CL1  UNL     1      25.378  -0.495  54.196  1.00  0.00    -0.081 Cl
HETATM   31  C12 UNL     1      23.139  -0.083  52.742  1.00  0.00     0.056 A 
ENDBRANCH  22  24
ENDBRANCH   4  22
TORSDOF 6
ENDMDL
