MODEL 1
REMARK VINA RESULT:      -7.2      0.000      0.000
REMARK  8 active torsions:
REMARK  status: ('A' for Active; 'I' for Inactive)
REMARK    1  A    between atoms: C5_5  and  N1_6 
REMARK       I    between atoms: N1_6  and  C6_7 
REMARK    2  A    between atoms: C6_7  and  C7_9 
REMARK    3  A    between atoms: C10_12  and  S1_13 
REMARK    4  A    between atoms: S1_13  and  N2_14 
REMARK    5  A    between atoms: N2_14  and  C11_15 
REMARK    6  A    between atoms: N2_14  and  C13_18 
REMARK    7  A    between atoms: C11_15  and  C12_16 
REMARK    8  A    between atoms: C13_18  and  C14_19 
ROOT
HETATM    1  C7  UNL     1      22.447   0.307  52.825  1.00  0.00     0.032 A 
HETATM    2  C8  UNL     1      21.477   0.473  53.799  1.00  0.00     0.018 A 
HETATM    3  C9  UNL     1      20.152   0.594  53.402  1.00  0.00     0.021 A 
HETATM    4  C10 UNL     1      19.771   0.555  52.082  1.00  0.00     0.016 A 
HETATM    5  C15 UNL     1      20.773   0.389  51.178  1.00  0.00     0.021 A 
HETATM    6  C16 UNL     1      22.112   0.261  51.487  1.00  0.00     0.018 A 
ENDROOT
BRANCH   1   7
HETATM    7  C6  UNL     1      23.892   0.165  53.101  1.00  0.00     0.256 C 
HETATM    8  N1  UNL     1      24.432  -0.648  54.139  1.00  0.00    -0.323 N 
HETATM    9  H6  UNL     1      23.743  -1.183  54.749  1.00  0.00     0.169 HD
HETATM   10  O1  UNL     1      24.812   0.752  52.442  1.00  0.00    -0.267 OA
BRANCH   8  11
HETATM   11  C5  UNL     1      25.868  -0.520  54.082  1.00  0.00     0.035 A 
HETATM   12  C4  UNL     1      26.440  -1.278  53.081  1.00  0.00     0.030 A 
HETATM   13  C3  UNL     1      27.810  -1.274  52.887  1.00  0.00     0.009 A 
HETATM   14  C2  UNL     1      28.546  -0.485  53.735  1.00  0.00    -0.062 A 
HETATM   15  C1  UNL     1      30.029  -0.450  53.560  1.00  0.00     0.048 C 
HETATM   16  C18 UNL     1      27.994   0.280  54.741  1.00  0.00     0.009 A 
HETATM   17  C17 UNL     1      26.626   0.267  54.925  1.00  0.00     0.030 A 
ENDBRANCH   8  11
ENDBRANCH   1   7
BRANCH   4  18
HETATM   18  S1  UNL     1      18.046   0.718  51.653  1.00  0.00    -0.042 SA
BRANCH  18  19
HETATM   19  N2  UNL     1      17.309  -0.890  51.795  1.00  0.00    -0.252 NA
BRANCH  19  20
HETATM   20  C11 UNL     1      17.076  -1.227  53.185  1.00  0.00     0.118 C 
BRANCH  20  21
HETATM   21  C12 UNL     1      17.966  -2.379  53.578  1.00  0.00     0.130 C 
HETATM   22 CL1  UNL     1      17.021  -3.898  53.545  1.00  0.00    -0.129 Cl
ENDBRANCH  20  21
ENDBRANCH  19  20
BRANCH  19  23
HETATM   23  C13 UNL     1      16.089  -0.929  51.015  1.00  0.00     0.118 C 
BRANCH  23  24
HETATM   24  C14 UNL     1      16.412  -0.319  49.648  1.00  0.00     0.130 C 
HETATM   25 CL2  UNL     1      15.910  -1.442  48.362  1.00  0.00    -0.129 Cl
ENDBRANCH  23  24
ENDBRANCH  19  23
ENDBRANCH  18  19
ENDBRANCH   4  18
TORSDOF 8
ENDMDL
MODEL 2
REMARK VINA RESULT:      -7.1      8.458     10.988
REMARK  8 active torsions:
REMARK  status: ('A' for Active; 'I' for Inactive)
REMARK    1  A    between atoms: C5_5  and  N1_6 
REMARK       I    between atoms: N1_6  and  C6_7 
REMARK    2  A    between atoms: C6_7  and  C7_9 
REMARK    3  A    between atoms: C10_12  and  S1_13 
REMARK    4  A    between atoms: S1_13  and  N2_14 
REMARK    5  A    between atoms: N2_14  and  C11_15 
REMARK    6  A    between atoms: N2_14  and  C13_18 
REMARK    7  A    between atoms: C11_15  and  C12_16 
REMARK    8  A    between atoms: C13_18  and  C14_19 
ROOT
HETATM    1  C7  UNL     1      25.774   4.261  50.026  1.00  0.00     0.032 A 
HETATM    2  C8  UNL     1      26.913   3.946  49.303  1.00  0.00     0.018 A 
HETATM    3  C9  UNL     1      27.561   4.961  48.610  1.00  0.00     0.021 A 
HETATM    4  C10 UNL     1      27.113   6.260  48.618  1.00  0.00     0.016 A 
HETATM    5  C15 UNL     1      25.991   6.500  49.347  1.00  0.00     0.021 A 
HETATM    6  C16 UNL     1      25.289   5.552  50.062  1.00  0.00     0.018 A 
ENDROOT
BRANCH   1   7
HETATM    7  C6  UNL     1      24.986   3.285  50.808  1.00  0.00     0.256 C 
HETATM    8  N1  UNL     1      24.944   3.249  52.231  1.00  0.00    -0.323 N 
HETATM    9  H6  UNL     1      25.521   3.973  52.756  1.00  0.00     0.169 HD
HETATM   10  O1  UNL     1      24.258   2.373  50.296  1.00  0.00    -0.267 OA
BRANCH   8  11
HETATM   11  C5  UNL     1      24.072   2.163  52.608  1.00  0.00     0.035 A 
HETATM   12  C4  UNL     1      24.755   1.030  52.997  1.00  0.00     0.030 A 
HETATM   13  C3  UNL     1      24.073  -0.108  53.389  1.00  0.00     0.009 A 
HETATM   14  C2  UNL     1      22.702  -0.037  53.367  1.00  0.00    -0.062 A 
HETATM   15  C1  UNL     1      21.925  -1.243  53.785  1.00  0.00     0.048 C 
HETATM   16  C18 UNL     1      22.000   1.086  52.983  1.00  0.00     0.009 A 
HETATM   17  C17 UNL     1      22.693   2.214  52.593  1.00  0.00     0.030 A 
ENDBRANCH   8  11
ENDBRANCH   1   7
BRANCH   4  18
HETATM   18  S1  UNL     1      28.002   7.509  47.701  1.00  0.00    -0.042 SA
BRANCH  18  19
HETATM   19  N2  UNL     1      29.344   8.063  48.723  1.00  0.00    -0.252 NA
BRANCH  19  20
HETATM   20  C11 UNL     1      30.613   7.593  48.203  1.00  0.00     0.118 C 
BRANCH  20  21
HETATM   21  C12 UNL     1      30.973   6.287  48.866  1.00  0.00     0.130 C 
HETATM   22 CL1  UNL     1      31.054   4.996  47.630  1.00  0.00    -0.129 Cl
ENDBRANCH  20  21
ENDBRANCH  19  20
BRANCH  19  23
HETATM   23  C13 UNL     1      29.301   9.507  48.828  1.00  0.00     0.118 C 
BRANCH  23  24
HETATM   24  C14 UNL     1      30.722   9.975  49.148  1.00  0.00     0.130 C 
HETATM   25 CL2  UNL     1      30.756  11.752  49.247  1.00  0.00    -0.129 Cl
ENDBRANCH  23  24
ENDBRANCH  19  23
ENDBRANCH  18  19
ENDBRANCH   4  18
TORSDOF 8
ENDMDL
MODEL 3
REMARK VINA RESULT:      -7.1      1.504      2.607
REMARK  8 active torsions:
REMARK  status: ('A' for Active; 'I' for Inactive)
REMARK    1  A    between atoms: C5_5  and  N1_6 
REMARK       I    between atoms: N1_6  and  C6_7 
REMARK    2  A    between atoms: C6_7  and  C7_9 
REMARK    3  A    between atoms: C10_12  and  S1_13 
REMARK    4  A    between atoms: S1_13  and  N2_14 
REMARK    5  A    between atoms: N2_14  and  C11_15 
REMARK    6  A    between atoms: N2_14  and  C13_18 
REMARK    7  A    between atoms: C11_15  and  C12_16 
REMARK    8  A    between atoms: C13_18  and  C14_19 
ROOT
HETATM    1  C7  UNL     1      22.392   0.485  52.442  1.00  0.00     0.032 A 
HETATM    2  C8  UNL     1      21.902   0.498  51.147  1.00  0.00     0.018 A 
HETATM    3  C9  UNL     1      20.539   0.679  50.955  1.00  0.00     0.021 A 
HETATM    4  C10 UNL     1      19.663   0.844  52.002  1.00  0.00     0.016 A 
HETATM    5  C15 UNL     1      20.210   0.821  53.246  1.00  0.00     0.021 A 
HETATM    6  C16 UNL     1      21.551   0.648  53.523  1.00  0.00     0.018 A 
ENDROOT
BRANCH   1   7
HETATM    7  C6  UNL     1      23.816   0.303  52.794  1.00  0.00     0.256 C 
HETATM    8  N1  UNL     1      24.285  -0.609  53.783  1.00  0.00    -0.323 N 
HETATM    9  H6  UNL     1      23.557  -1.191  54.296  1.00  0.00     0.169 HD
HETATM   10  O1  UNL     1      24.779   0.940  52.253  1.00  0.00    -0.267 OA
BRANCH   8  11
HETATM   11  C5  UNL     1      25.723  -0.491  53.830  1.00  0.00     0.035 A 
HETATM   12  C4  UNL     1      26.362  -1.302  52.915  1.00  0.00     0.030 A 
HETATM   13  C3  UNL     1      27.743  -1.315  52.825  1.00  0.00     0.009 A 
HETATM   14  C2  UNL     1      28.419  -0.487  53.685  1.00  0.00    -0.062 A 
HETATM   15  C1  UNL     1      29.912  -0.468  53.622  1.00  0.00     0.048 C 
HETATM   16  C18 UNL     1      27.799   0.332  54.606  1.00  0.00     0.009 A 
HETATM   17  C17 UNL     1      26.422   0.335  54.686  1.00  0.00     0.030 A 
ENDBRANCH   8  11
ENDBRANCH   1   7
BRANCH   4  18
HETATM   18  S1  UNL     1      17.922   1.071  51.673  1.00  0.00    -0.042 SA
BRANCH  18  19
HETATM   19  N2  UNL     1      17.035  -0.077  52.695  1.00  0.00    -0.252 NA
BRANCH  19  20
HETATM   20  C11 UNL     1      15.605   0.133  52.581  1.00  0.00     0.118 C 
BRANCH  20  21
HETATM   21  C12 UNL     1      15.345   1.431  51.858  1.00  0.00     0.130 C 
HETATM   22 CL1  UNL     1      14.567   2.588  52.978  1.00  0.00    -0.129 Cl
ENDBRANCH  20  21
ENDBRANCH  19  20
BRANCH  19  23
HETATM   23  C13 UNL     1      17.416  -1.428  52.338  1.00  0.00     0.118 C 
BRANCH  23  24
HETATM   24  C14 UNL     1      17.891  -2.113  53.622  1.00  0.00     0.130 C 
HETATM   25 CL2  UNL     1      17.199  -3.750  53.716  1.00  0.00    -0.129 Cl
ENDBRANCH  23  24
ENDBRANCH  19  23
ENDBRANCH  18  19
ENDBRANCH   4  18
TORSDOF 8
ENDMDL
MODEL 4
REMARK VINA RESULT:      -7.0      2.625      3.194
REMARK  8 active torsions:
REMARK  status: ('A' for Active; 'I' for Inactive)
REMARK    1  A    between atoms: C5_5  and  N1_6 
REMARK       I    between atoms: N1_6  and  C6_7 
REMARK    2  A    between atoms: C6_7  and  C7_9 
REMARK    3  A    between atoms: C10_12  and  S1_13 
REMARK    4  A    between atoms: S1_13  and  N2_14 
REMARK    5  A    between atoms: N2_14  and  C11_15 
REMARK    6  A    between atoms: N2_14  and  C13_18 
REMARK    7  A    between atoms: C11_15  and  C12_16 
REMARK    8  A    between atoms: C13_18  and  C14_19 
ROOT
HETATM    1  C7  UNL     1      22.454   0.342  52.759  1.00  0.00     0.032 A 
HETATM    2  C8  UNL     1      21.460   0.318  53.723  1.00  0.00     0.018 A 
HETATM    3  C9  UNL     1      20.140   0.466  53.318  1.00  0.00     0.021 A 
HETATM    4  C10 UNL     1      19.788   0.635  52.000  1.00  0.00     0.016 A 
HETATM    5  C15 UNL     1      20.813   0.649  51.106  1.00  0.00     0.021 A 
HETATM    6  C16 UNL     1      22.148   0.508  51.425  1.00  0.00     0.018 A 
ENDROOT
BRANCH   1   7
HETATM    7  C6  UNL     1      23.897   0.196  53.045  1.00  0.00     0.256 C 
HETATM    8  N1  UNL     1      24.430  -0.658  54.053  1.00  0.00    -0.323 N 
HETATM    9  H6  UNL     1      23.738  -1.223  54.632  1.00  0.00     0.169 HD
HETATM   10  O1  UNL     1      24.821   0.816  52.423  1.00  0.00    -0.267 OA
BRANCH   8  11
HETATM   11  C5  UNL     1      25.866  -0.520  54.019  1.00  0.00     0.035 A 
HETATM   12  C4  UNL     1      26.462  -1.302  53.051  1.00  0.00     0.030 A 
HETATM   13  C3  UNL     1      27.835  -1.292  52.881  1.00  0.00     0.009 A 
HETATM   14  C2  UNL     1      28.549  -0.472  53.718  1.00  0.00    -0.062 A 
HETATM   15  C1  UNL     1      30.035  -0.430  53.568  1.00  0.00     0.048 C 
HETATM   16  C18 UNL     1      27.973   0.318  54.691  1.00  0.00     0.009 A 
HETATM   17  C17 UNL     1      26.603   0.298  54.851  1.00  0.00     0.030 A 
ENDBRANCH   8  11
ENDBRANCH   1   7
BRANCH   4  18
HETATM   18  S1  UNL     1      18.067   0.819  51.559  1.00  0.00    -0.042 SA
BRANCH  18  19
HETATM   19  N2  UNL     1      17.885   2.403  50.779  1.00  0.00    -0.252 NA
BRANCH  19  20
HETATM   20  C11 UNL     1      16.498   2.653  50.441  1.00  0.00     0.118 C 
BRANCH  20  21
HETATM   21  C12 UNL     1      15.606   1.938  51.425  1.00  0.00     0.130 C 
HETATM   22 CL1  UNL     1      14.985   3.112  52.624  1.00  0.00    -0.129 Cl
ENDBRANCH  20  21
ENDBRANCH  19  20
BRANCH  19  23
HETATM   23  C13 UNL     1      18.427   3.429  51.648  1.00  0.00     0.118 C 
BRANCH  23  24
HETATM   24  C14 UNL     1      19.534   4.139  50.865  1.00  0.00     0.130 C 
HETATM   25 CL2  UNL     1      21.002   4.236  51.866  1.00  0.00    -0.129 Cl
ENDBRANCH  23  24
ENDBRANCH  19  23
ENDBRANCH  18  19
ENDBRANCH   4  18
TORSDOF 8
ENDMDL
MODEL 5
REMARK VINA RESULT:      -7.0      9.272     11.826
REMARK  8 active torsions:
REMARK  status: ('A' for Active; 'I' for Inactive)
REMARK    1  A    between atoms: C5_5  and  N1_6 
REMARK       I    between atoms: N1_6  and  C6_7 
REMARK    2  A    between atoms: C6_7  and  C7_9 
REMARK    3  A    between atoms: C10_12  and  S1_13 
REMARK    4  A    between atoms: S1_13  and  N2_14 
REMARK    5  A    between atoms: N2_14  and  C11_15 
REMARK    6  A    between atoms: N2_14  and  C13_18 
REMARK    7  A    between atoms: C11_15  and  C12_16 
REMARK    8  A    between atoms: C13_18  and  C14_19 
ROOT
HETATM    1  C7  UNL     1      26.646   5.260  49.007  1.00  0.00     0.032 A 
HETATM    2  C8  UNL     1      26.167   6.490  48.590  1.00  0.00     0.018 A 
HETATM    3  C9  UNL     1      27.021   7.332  47.890  1.00  0.00     0.021 A 
HETATM    4  C10 UNL     1      28.319   6.988  47.598  1.00  0.00     0.016 A 
HETATM    5  C15 UNL     1      28.726   5.767  48.036  1.00  0.00     0.021 A 
HETATM    6  C16 UNL     1      27.942   4.872  48.736  1.00  0.00     0.018 A 
ENDROOT
BRANCH   1   7
HETATM    7  C6  UNL     1      25.852   4.265  49.759  1.00  0.00     0.256 C 
HETATM    8  N1  UNL     1      24.932   4.595  50.795  1.00  0.00    -0.323 N 
HETATM    9  H6  UNL     1      24.817   5.625  51.038  1.00  0.00     0.169 HD
HETATM   10  O1  UNL     1      25.901   3.007  49.562  1.00  0.00    -0.267 OA
BRANCH   8  11
HETATM   11  C5  UNL     1      24.363   3.359  51.275  1.00  0.00     0.035 A 
HETATM   12  C4  UNL     1      24.947   2.911  52.442  1.00  0.00     0.030 A 
HETATM   13  C3  UNL     1      24.523   1.738  53.039  1.00  0.00     0.009 A 
HETATM   14  C2  UNL     1      23.507   1.064  52.411  1.00  0.00    -0.062 A 
HETATM   15  C1  UNL     1      23.017  -0.208  53.023  1.00  0.00     0.048 C 
HETATM   16  C18 UNL     1      22.909   1.494  51.245  1.00  0.00     0.009 A 
HETATM   17  C17 UNL     1      23.341   2.666  50.658  1.00  0.00     0.030 A 
ENDBRANCH   8  11
ENDBRANCH   1   7
BRANCH   4  18
HETATM   18  S1  UNL     1      29.356   8.127  46.693  1.00  0.00    -0.042 SA
BRANCH  18  19
HETATM   19  N2  UNL     1      30.497   8.841  47.850  1.00  0.00    -0.252 NA
BRANCH  19  20
HETATM   20  C11 UNL     1      29.831   9.160  49.097  1.00  0.00     0.118 C 
BRANCH  20  21
HETATM   21  C12 UNL     1      29.348  10.589  49.057  1.00  0.00     0.130 C 
HETATM   22 CL1  UNL     1      30.755  11.692  49.112  1.00  0.00    -0.129 Cl
ENDBRANCH  20  21
ENDBRANCH  19  20
BRANCH  19  23
HETATM   23  C13 UNL     1      31.610   7.936  48.045  1.00  0.00     0.118 C 
BRANCH  23  24
HETATM   24  C14 UNL     1      31.743   7.707  49.553  1.00  0.00     0.130 C 
HETATM   25 CL2  UNL     1      31.873   5.963  49.882  1.00  0.00    -0.129 Cl
ENDBRANCH  23  24
ENDBRANCH  19  23
ENDBRANCH  18  19
ENDBRANCH   4  18
TORSDOF 8
ENDMDL
MODEL 6
REMARK VINA RESULT:      -6.7      1.877      2.387
REMARK  8 active torsions:
REMARK  status: ('A' for Active; 'I' for Inactive)
REMARK    1  A    between atoms: C5_5  and  N1_6 
REMARK       I    between atoms: N1_6  and  C6_7 
REMARK    2  A    between atoms: C6_7  and  C7_9 
REMARK    3  A    between atoms: C10_12  and  S1_13 
REMARK    4  A    between atoms: S1_13  and  N2_14 
REMARK    5  A    between atoms: N2_14  and  C11_15 
REMARK    6  A    between atoms: N2_14  and  C13_18 
REMARK    7  A    between atoms: C11_15  and  C12_16 
REMARK    8  A    between atoms: C13_18  and  C14_19 
ROOT
HETATM    1  C7  UNL     1      22.794   1.003  52.371  1.00  0.00     0.032 A 
HETATM    2  C8  UNL     1      22.420   2.327  52.212  1.00  0.00     0.018 A 
HETATM    3  C9  UNL     1      21.086   2.614  51.954  1.00  0.00     0.021 A 
HETATM    4  C10 UNL     1      20.128   1.634  51.851  1.00  0.00     0.016 A 
HETATM    5  C15 UNL     1      20.562   0.356  52.018  1.00  0.00     0.021 A 
HETATM    6  C16 UNL     1      21.866  -0.014  52.277  1.00  0.00     0.018 A 
ENDROOT
BRANCH   1   7
HETATM    7  C6  UNL     1      24.174   0.552  52.649  1.00  0.00     0.256 C 
HETATM    8  N1  UNL     1      24.523  -0.364  53.682  1.00  0.00    -0.323 N 
HETATM    9  H6  UNL     1      23.734  -0.743  54.287  1.00  0.00     0.169 HD
HETATM   10  O1  UNL     1      25.200   0.933  51.996  1.00  0.00    -0.267 OA
BRANCH   8  11
HETATM   11  C5  UNL     1      25.953  -0.547  53.630  1.00  0.00     0.035 A 
HETATM   12  C4  UNL     1      26.634   0.264  54.514  1.00  0.00     0.030 A 
HETATM   13  C3  UNL     1      28.015   0.219  54.594  1.00  0.00     0.009 A 
HETATM   14  C2  UNL     1      28.648  -0.665  53.756  1.00  0.00    -0.062 A 
HETATM   15  C1  UNL     1      30.139  -0.746  53.810  1.00  0.00     0.048 C 
HETATM   16  C18 UNL     1      27.986  -1.484  52.866  1.00  0.00     0.009 A 
HETATM   17  C17 UNL     1      26.609  -1.429  52.795  1.00  0.00     0.030 A 
ENDBRANCH   8  11
ENDBRANCH   1   7
BRANCH   4  18
HETATM   18  S1  UNL     1      18.433   2.084  51.518  1.00  0.00    -0.042 SA
BRANCH  18  19
HETATM   19  N2  UNL     1      17.935   1.225  50.046  1.00  0.00    -0.252 NA
BRANCH  19  20
HETATM   20  C11 UNL     1      17.012   0.154  50.363  1.00  0.00     0.118 C 
BRANCH  20  21
HETATM   21  C12 UNL     1      16.731   0.156  51.845  1.00  0.00     0.130 C 
HETATM   22 CL1  UNL     1      17.382  -1.342  52.575  1.00  0.00    -0.129 Cl
ENDBRANCH  20  21
ENDBRANCH  19  20
BRANCH  19  23
HETATM   23  C13 UNL     1      17.368   2.172  49.108  1.00  0.00     0.118 C 
BRANCH  23  24
HETATM   24  C14 UNL     1      16.918   3.390  49.918  1.00  0.00     0.130 C 
HETATM   25 CL2  UNL     1      15.157   3.324  50.165  1.00  0.00    -0.129 Cl
ENDBRANCH  23  24
ENDBRANCH  19  23
ENDBRANCH  18  19
ENDBRANCH   4  18
TORSDOF 8
ENDMDL
MODEL 7
REMARK VINA RESULT:      -6.5      2.198      2.937
REMARK  8 active torsions:
REMARK  status: ('A' for Active; 'I' for Inactive)
REMARK    1  A    between atoms: C5_5  and  N1_6 
REMARK       I    between atoms: N1_6  and  C6_7 
REMARK    2  A    between atoms: C6_7  and  C7_9 
REMARK    3  A    between atoms: C10_12  and  S1_13 
REMARK    4  A    between atoms: S1_13  and  N2_14 
REMARK    5  A    between atoms: N2_14  and  C11_15 
REMARK    6  A    between atoms: N2_14  and  C13_18 
REMARK    7  A    between atoms: C11_15  and  C12_16 
REMARK    8  A    between atoms: C13_18  and  C14_19 
ROOT
HETATM    1  C7  UNL     1      21.861  -0.160  52.930  1.00  0.00     0.032 A 
HETATM    2  C8  UNL     1      20.958  -0.718  53.819  1.00  0.00     0.018 A 
HETATM    3  C9  UNL     1      19.608  -0.703  53.492  1.00  0.00     0.021 A 
HETATM    4  C10 UNL     1      19.140  -0.157  52.321  1.00  0.00     0.016 A 
HETATM    5  C15 UNL     1      20.079   0.373  51.493  1.00  0.00     0.021 A 
HETATM    6  C16 UNL     1      21.436   0.399  51.742  1.00  0.00     0.018 A 
ENDROOT
BRANCH   1   7
HETATM    7  C6  UNL     1      23.322  -0.106  53.147  1.00  0.00     0.256 C 
HETATM    8  N1  UNL     1      24.215   0.695  52.379  1.00  0.00    -0.323 N 
HETATM    9  H6  UNL     1      23.795   1.288  51.602  1.00  0.00     0.169 HD
HETATM   10  O1  UNL     1      23.941  -0.768  54.042  1.00  0.00    -0.267 OA
BRANCH   8  11
HETATM   11  C5  UNL     1      25.544   0.472  52.895  1.00  0.00     0.035 A 
HETATM   12  C4  UNL     1      26.192  -0.581  52.282  1.00  0.00     0.030 A 
HETATM   13  C3  UNL     1      27.476  -0.935  52.657  1.00  0.00     0.009 A 
HETATM   14  C2  UNL     1      28.050  -0.187  53.654  1.00  0.00    -0.062 A 
HETATM   15  C1  UNL     1      29.437  -0.534  54.089  1.00  0.00     0.048 C 
HETATM   16  C18 UNL     1      27.421   0.869  54.278  1.00  0.00     0.009 A 
HETATM   17  C17 UNL     1      26.139   1.212  53.896  1.00  0.00     0.030 A 
ENDBRANCH   8  11
ENDBRANCH   1   7
BRANCH   4  18
HETATM   18  S1  UNL     1      17.389  -0.177  51.972  1.00  0.00    -0.042 SA
BRANCH  18  19
HETATM   19  N2  UNL     1      17.006   1.316  51.091  1.00  0.00    -0.252 NA
BRANCH  19  20
HETATM   20  C11 UNL     1      16.756   1.036  49.691  1.00  0.00     0.118 C 
BRANCH  20  21
HETATM   21  C12 UNL     1      17.092   2.255  48.868  1.00  0.00     0.130 C 
HETATM   22 CL1  UNL     1      18.614   2.977  49.470  1.00  0.00    -0.129 Cl
ENDBRANCH  20  21
ENDBRANCH  19  20
BRANCH  19  23
HETATM   23  C13 UNL     1      15.879   1.970  51.724  1.00  0.00     0.118 C 
BRANCH  23  24
HETATM   24  C14 UNL     1      15.113   0.894  52.497  1.00  0.00     0.130 C 
HETATM   25 CL2  UNL     1      13.379   1.004  52.112  1.00  0.00    -0.129 Cl
ENDBRANCH  23  24
ENDBRANCH  19  23
ENDBRANCH  18  19
ENDBRANCH   4  18
TORSDOF 8
ENDMDL
MODEL 8
REMARK VINA RESULT:      -6.4      3.431      4.654
REMARK  8 active torsions:
REMARK  status: ('A' for Active; 'I' for Inactive)
REMARK    1  A    between atoms: C5_5  and  N1_6 
REMARK       I    between atoms: N1_6  and  C6_7 
REMARK    2  A    between atoms: C6_7  and  C7_9 
REMARK    3  A    between atoms: C10_12  and  S1_13 
REMARK    4  A    between atoms: S1_13  and  N2_14 
REMARK    5  A    between atoms: N2_14  and  C11_15 
REMARK    6  A    between atoms: N2_14  and  C13_18 
REMARK    7  A    between atoms: C11_15  and  C12_16 
REMARK    8  A    between atoms: C13_18  and  C14_19 
ROOT
HETATM    1  C7  UNL     1      19.135  -0.085  52.409  1.00  0.00     0.032 A 
HETATM    2  C8  UNL     1      18.481  -1.042  53.167  1.00  0.00     0.018 A 
HETATM    3  C9  UNL     1      17.098  -1.134  53.071  1.00  0.00     0.021 A 
HETATM    4  C10 UNL     1      16.360  -0.312  52.252  1.00  0.00     0.016 A 
HETATM    5  C15 UNL     1      17.065   0.604  51.535  1.00  0.00     0.021 A 
HETATM    6  C16 UNL     1      18.435   0.760  51.573  1.00  0.00     0.018 A 
ENDROOT
BRANCH   1   7
HETATM    7  C6  UNL     1      20.598   0.125  52.411  1.00  0.00     0.256 C 
HETATM    8  N1  UNL     1      21.336   0.595  53.535  1.00  0.00    -0.323 N 
HETATM    9  H6  UNL     1      20.791   0.807  54.424  1.00  0.00     0.169 HD
HETATM   10  O1  UNL     1      21.358  -0.092  51.411  1.00  0.00    -0.267 OA
BRANCH   8  11
HETATM   11  C5  UNL     1      22.722   0.665  53.140  1.00  0.00     0.035 A 
HETATM   12  C4  UNL     1      23.458  -0.428  53.550  1.00  0.00     0.030 A 
HETATM   13  C3  UNL     1      24.806  -0.522  53.256  1.00  0.00     0.009 A 
HETATM   14  C2  UNL     1      25.352   0.518  52.547  1.00  0.00    -0.062 A 
HETATM   15  C1  UNL     1      26.806   0.456  52.208  1.00  0.00     0.048 C 
HETATM   16  C18 UNL     1      24.635   1.618  52.128  1.00  0.00     0.009 A 
HETATM   17  C17 UNL     1      23.291   1.701  52.427  1.00  0.00     0.030 A 
ENDBRANCH   8  11
ENDBRANCH   1   7
BRANCH   4  18
HETATM   18  S1  UNL     1      14.585  -0.493  52.183  1.00  0.00    -0.042 SA
BRANCH  18  19
HETATM   19  N2  UNL     1      13.877   0.906  53.016  1.00  0.00    -0.252 NA
BRANCH  19  20
HETATM   20  C11 UNL     1      13.178   1.762  52.077  1.00  0.00     0.118 C 
BRANCH  20  21
HETATM   21  C12 UNL     1      14.129   2.805  51.546  1.00  0.00     0.130 C 
HETATM   22 CL1  UNL     1      15.123   3.442  52.890  1.00  0.00    -0.129 Cl
ENDBRANCH  20  21
ENDBRANCH  19  20
BRANCH  19  23
HETATM   23  C13 UNL     1      13.008   0.441  54.078  1.00  0.00     0.118 C 
BRANCH  23  24
HETATM   24  C14 UNL     1      12.232   1.659  54.586  1.00  0.00     0.130 C 
HETATM   25 CL2  UNL     1      10.991   1.131  55.747  1.00  0.00    -0.129 Cl
ENDBRANCH  23  24
ENDBRANCH  19  23
ENDBRANCH  18  19
ENDBRANCH   4  18
TORSDOF 8
ENDMDL
MODEL 9
REMARK VINA RESULT:      -6.4      8.293     10.635
REMARK  8 active torsions:
REMARK  status: ('A' for Active; 'I' for Inactive)
REMARK    1  A    between atoms: C5_5  and  N1_6 
REMARK       I    between atoms: N1_6  and  C6_7 
REMARK    2  A    between atoms: C6_7  and  C7_9 
REMARK    3  A    between atoms: C10_12  and  S1_13 
REMARK    4  A    between atoms: S1_13  and  N2_14 
REMARK    5  A    between atoms: N2_14  and  C11_15 
REMARK    6  A    between atoms: N2_14  and  C13_18 
REMARK    7  A    between atoms: C11_15  and  C12_16 
REMARK    8  A    between atoms: C13_18  and  C14_19 
ROOT
HETATM    1  C7  UNL     1      24.624   4.546  50.911  1.00  0.00     0.032 A 
HETATM    2  C8  UNL     1      24.189   5.830  51.191  1.00  0.00     0.018 A 
HETATM    3  C9  UNL     1      24.762   6.891  50.501  1.00  0.00     0.021 A 
HETATM    4  C10 UNL     1      25.742   6.710  49.554  1.00  0.00     0.016 A 
HETATM    5  C15 UNL     1      26.123   5.424  49.328  1.00  0.00     0.021 A 
HETATM    6  C16 UNL     1      25.605   4.317  49.968  1.00  0.00     0.018 A 
ENDROOT
BRANCH   1   7
HETATM    7  C6  UNL     1      24.104   3.327  51.566  1.00  0.00     0.256 C 
HETATM    8  N1  UNL     1      24.073   2.042  50.953  1.00  0.00    -0.323 N 
HETATM    9  H6  UNL     1      24.448   1.964  49.960  1.00  0.00     0.169 HD
HETATM   10  O1  UNL     1      23.629   3.292  52.748  1.00  0.00    -0.267 OA
BRANCH   8  11
HETATM   11  C5  UNL     1      23.498   1.124  51.907  1.00  0.00     0.035 A 
HETATM   12  C4  UNL     1      22.139   0.955  51.744  1.00  0.00     0.030 A 
HETATM   13  C3  UNL     1      21.427   0.110  52.576  1.00  0.00     0.009 A 
HETATM   14  C2  UNL     1      22.145  -0.535  53.552  1.00  0.00    -0.062 A 
HETATM   15  C1  UNL     1      21.415  -1.458  54.473  1.00  0.00     0.048 C 
HETATM   16  C18 UNL     1      23.503  -0.381  53.731  1.00  0.00     0.009 A 
HETATM   17  C17 UNL     1      24.202   0.466  52.895  1.00  0.00     0.030 A 
ENDBRANCH   8  11
ENDBRANCH   1   7
BRANCH   4  18
HETATM   18  S1  UNL     1      26.430   8.125  48.710  1.00  0.00    -0.042 SA
BRANCH  18  19
HETATM   19  N2  UNL     1      28.186   8.095  48.968  1.00  0.00    -0.252 NA
BRANCH  19  20
HETATM   20  C11 UNL     1      28.873   7.653  47.771  1.00  0.00     0.118 C 
BRANCH  20  21
HETATM   21  C12 UNL     1      28.057   8.024  46.558  1.00  0.00     0.130 C 
HETATM   22 CL1  UNL     1      29.152   8.325  45.175  1.00  0.00    -0.129 Cl
ENDBRANCH  20  21
ENDBRANCH  19  20
BRANCH  19  23
HETATM   23  C13 UNL     1      28.629   9.406  49.396  1.00  0.00     0.118 C 
BRANCH  23  24
HETATM   24  C14 UNL     1      30.159   9.382  49.401  1.00  0.00     0.130 C 
HETATM   25 CL2  UNL     1      30.782  10.979  48.923  1.00  0.00    -0.129 Cl
ENDBRANCH  23  24
ENDBRANCH  19  23
ENDBRANCH  18  19
ENDBRANCH   4  18
TORSDOF 8
ENDMDL
