MODEL 1
REMARK VINA RESULT:      -8.2      0.000      0.000
REMARK  5 active torsions:
REMARK  status: ('A' for Active; 'I' for Inactive)
REMARK    1  A    between atoms: C2_2  and  C3_4 
REMARK    2  A    between atoms: C4_6  and  P1_7 
REMARK    3  A    between atoms: P1_7  and  C5_8 
REMARK    4  A    between atoms: C6_9  and  N1_10 
REMARK    5  A    between atoms: N1_10  and  C7_11 
ROOT
HETATM    1  C7  UNL     1      26.371   1.509  52.924  1.00  0.00     0.137 A 
HETATM    2  N2  UNL     1      27.441   0.990  53.577  1.00  0.00    -0.224 NA
HETATM    3  C8  UNL     1      27.239  -0.053  54.435  1.00  0.00     0.236 A 
HETATM    4  N3  UNL     1      26.000  -0.564  54.635  1.00  0.00    -0.241 NA
HETATM    5  C9  UNL     1      24.961  -0.005  53.955  1.00  0.00     0.079 A 
HETATM    6  C10 UNL     1      25.058   1.059  53.060  1.00  0.00     0.022 A 
HETATM    7  C11 UNL     1      23.743   1.418  52.523  1.00  0.00     0.084 A 
HETATM    8  C12 UNL     1      22.841   0.403  53.189  1.00  0.00    -0.041 A 
HETATM    9  C13 UNL     1      21.484   0.346  52.957  1.00  0.00     0.008 A 
HETATM   10  C14 UNL     1      20.780  -0.628  53.638  1.00  0.00     0.001 A 
HETATM   11  C15 UNL     1      21.439  -1.485  54.501  1.00  0.00     0.001 A 
HETATM   12  C16 UNL     1      22.806  -1.355  54.674  1.00  0.00     0.014 A 
HETATM   13  C17 UNL     1      23.566  -0.407  54.028  1.00  0.00    -0.000 A 
ENDROOT
BRANCH   1  14
HETATM   14  N1  UNL     1      26.674   2.574  52.056  1.00  0.00    -0.349 N 
HETATM   15  H5  UNL     1      27.123   3.492  52.201  1.00  0.00     0.167 HD
BRANCH  14  16
HETATM   16  C6  UNL     1      26.438   2.706  50.670  1.00  0.00     0.103 C 
HETATM   17  C5  UNL     1      25.825   3.695  49.998  1.00  0.00     0.005 C 
BRANCH  17  18
HETATM   18  P1  UNL     1      25.791   5.218  49.282  1.00  0.00    -0.005 P 
BRANCH  18  19
HETATM   19  C4  UNL     1      27.430   5.782  48.624  1.00  0.00     0.231 A 
HETATM   20  C3  UNL     1      28.657   6.059  48.132  1.00  0.00     0.107 A 
HETATM   21  F1  UNL     1      28.400   4.704  48.246  1.00  0.00    -0.353 F 
BRANCH  20  22
HETATM   22  C2  UNL     1      29.996   6.293  47.595  1.00  0.00     0.046 C 
HETATM   23  C1  UNL     1      29.558   7.417  47.073  1.00  0.00     0.060 C 
HETATM   24 CL1  UNL     1      31.324   5.204  47.811  1.00  0.00    -0.086 Cl
ENDBRANCH  20  22
ENDBRANCH  18  19
ENDBRANCH  17  18
ENDBRANCH  14  16
ENDBRANCH   1  14
TORSDOF 5
ENDMDL
MODEL 2
REMARK VINA RESULT:      -8.1      1.958      4.070
REMARK  5 active torsions:
REMARK  status: ('A' for Active; 'I' for Inactive)
REMARK    1  A    between atoms: C2_2  and  C3_4 
REMARK    2  A    between atoms: C4_6  and  P1_7 
REMARK    3  A    between atoms: P1_7  and  C5_8 
REMARK    4  A    between atoms: C6_9  and  N1_10 
REMARK    5  A    between atoms: N1_10  and  C7_11 
ROOT
HETATM    1  C7  UNL     1      24.574   2.167  53.162  1.00  0.00     0.137 A 
HETATM    2  N2  UNL     1      23.428   1.454  53.024  1.00  0.00    -0.224 NA
HETATM    3  C8  UNL     1      23.512   0.093  52.951  1.00  0.00     0.236 A 
HETATM    4  N3  UNL     1      24.710  -0.538  53.014  1.00  0.00    -0.241 NA
HETATM    5  C9  UNL     1      25.828   0.226  53.152  1.00  0.00     0.079 A 
HETATM    6  C10 UNL     1      25.853   1.617  53.235  1.00  0.00     0.022 A 
HETATM    7  C11 UNL     1      27.226   2.114  53.360  1.00  0.00     0.084 A 
HETATM    8  C12 UNL     1      28.027   0.831  53.376  1.00  0.00    -0.041 A 
HETATM    9  C13 UNL     1      29.398   0.809  53.504  1.00  0.00     0.008 A 
HETATM   10  C14 UNL     1      30.001  -0.433  53.497  1.00  0.00     0.001 A 
HETATM   11  C15 UNL     1      29.234  -1.576  53.366  1.00  0.00     0.001 A 
HETATM   12  C16 UNL     1      27.860  -1.461  53.242  1.00  0.00     0.014 A 
HETATM   13  C17 UNL     1      27.196  -0.256  53.241  1.00  0.00    -0.000 A 
ENDROOT
BRANCH   1  14
HETATM   14  N1  UNL     1      24.391   3.561  53.238  1.00  0.00    -0.349 N 
HETATM   15  H5  UNL     1      24.712   4.275  53.910  1.00  0.00     0.167 HD
BRANCH  14  16
HETATM   16  C6  UNL     1      23.678   4.427  52.380  1.00  0.00     0.103 C 
HETATM   17  C5  UNL     1      24.046   4.954  51.200  1.00  0.00     0.005 C 
BRANCH  17  18
HETATM   18  P1  UNL     1      24.274   4.878  49.535  1.00  0.00    -0.005 P 
BRANCH  18  19
HETATM   19  C4  UNL     1      25.872   5.616  48.954  1.00  0.00     0.231 A 
HETATM   20  C3  UNL     1      27.089   6.027  48.536  1.00  0.00     0.107 A 
HETATM   21  F1  UNL     1      27.018   4.666  48.781  1.00  0.00    -0.353 F 
BRANCH  20  22
HETATM   22  C2  UNL     1      28.427   6.407  48.088  1.00  0.00     0.046 C 
HETATM   23  C1  UNL     1      27.993   7.637  47.931  1.00  0.00     0.060 C 
HETATM   24 CL1  UNL     1      29.751   5.298  47.959  1.00  0.00    -0.086 Cl
ENDBRANCH  20  22
ENDBRANCH  18  19
ENDBRANCH  17  18
ENDBRANCH  14  16
ENDBRANCH   1  14
TORSDOF 5
ENDMDL
MODEL 3
REMARK VINA RESULT:      -8.1      3.842      5.453
REMARK  5 active torsions:
REMARK  status: ('A' for Active; 'I' for Inactive)
REMARK    1  A    between atoms: C2_2  and  C3_4 
REMARK    2  A    between atoms: C4_6  and  P1_7 
REMARK    3  A    between atoms: P1_7  and  C5_8 
REMARK    4  A    between atoms: C6_9  and  N1_10 
REMARK    5  A    between atoms: N1_10  and  C7_11 
ROOT
HETATM    1  C7  UNL     1      21.823   3.862  51.712  1.00  0.00     0.137 A 
HETATM    2  N2  UNL     1      20.636   4.431  51.385  1.00  0.00    -0.224 NA
HETATM    3  C8  UNL     1      19.486   3.754  51.675  1.00  0.00     0.236 A 
HETATM    4  N3  UNL     1      19.523   2.540  52.277  1.00  0.00    -0.241 NA
HETATM    5  C9  UNL     1      20.741   2.014  52.583  1.00  0.00     0.079 A 
HETATM    6  C10 UNL     1      21.970   2.620  52.330  1.00  0.00     0.022 A 
HETATM    7  C11 UNL     1      23.079   1.770  52.772  1.00  0.00     0.084 A 
HETATM    8  C12 UNL     1      22.351   0.581  53.358  1.00  0.00    -0.041 A 
HETATM    9  C13 UNL     1      23.007  -0.488  53.929  1.00  0.00     0.008 A 
HETATM   10  C14 UNL     1      22.217  -1.508  54.420  1.00  0.00     0.001 A 
HETATM   11  C15 UNL     1      20.840  -1.426  54.327  1.00  0.00     0.001 A 
HETATM   12  C16 UNL     1      20.264  -0.313  53.737  1.00  0.00     0.014 A 
HETATM   13  C17 UNL     1      20.992   0.737  53.228  1.00  0.00    -0.000 A 
ENDROOT
BRANCH   1  14
HETATM   14  N1  UNL     1      22.953   4.634  51.383  1.00  0.00    -0.349 N 
HETATM   15  H5  UNL     1      23.499   5.337  51.906  1.00  0.00     0.167 HD
BRANCH  14  16
HETATM   16  C6  UNL     1      23.701   4.678  50.186  1.00  0.00     0.103 C 
HETATM   17  C5  UNL     1      25.025   4.545  50.001  1.00  0.00     0.005 C 
BRANCH  17  18
HETATM   18  P1  UNL     1      26.428   3.629  49.841  1.00  0.00    -0.005 P 
BRANCH  18  19
HETATM   19  C4  UNL     1      26.543   2.208  51.025  1.00  0.00     0.231 A 
HETATM   20  C3  UNL     1      26.590   1.261  51.987  1.00  0.00     0.107 A 
HETATM   21  F1  UNL     1      26.222   2.510  52.457  1.00  0.00    -0.353 F 
BRANCH  20  22
HETATM   22  C2  UNL     1      26.621   0.282  53.072  1.00  0.00     0.046 C 
HETATM   23  C1  UNL     1      26.718  -0.670  52.171  1.00  0.00     0.060 C 
HETATM   24 CL1  UNL     1      26.517   0.701  54.749  1.00  0.00    -0.086 Cl
ENDBRANCH  20  22
ENDBRANCH  18  19
ENDBRANCH  17  18
ENDBRANCH  14  16
ENDBRANCH   1  14
TORSDOF 5
ENDMDL
MODEL 4
REMARK VINA RESULT:      -8.0      3.815      4.905
REMARK  5 active torsions:
REMARK  status: ('A' for Active; 'I' for Inactive)
REMARK    1  A    between atoms: C2_2  and  C3_4 
REMARK    2  A    between atoms: C4_6  and  P1_7 
REMARK    3  A    between atoms: P1_7  and  C5_8 
REMARK    4  A    between atoms: C6_9  and  N1_10 
REMARK    5  A    between atoms: N1_10  and  C7_11 
ROOT
HETATM    1  C7  UNL     1      26.611   0.945  52.483  1.00  0.00     0.137 A 
HETATM    2  N2  UNL     1      27.713   0.774  53.255  1.00  0.00    -0.224 NA
HETATM    3  C8  UNL     1      27.585   0.097  54.434  1.00  0.00     0.236 A 
HETATM    4  N3  UNL     1      26.386  -0.397  54.830  1.00  0.00    -0.241 NA
HETATM    5  C9  UNL     1      25.312  -0.196  54.018  1.00  0.00     0.079 A 
HETATM    6  C10 UNL     1      25.334   0.480  52.799  1.00  0.00     0.022 A 
HETATM    7  C11 UNL     1      23.999   0.526  52.197  1.00  0.00     0.084 A 
HETATM    8  C12 UNL     1      23.172  -0.245  53.202  1.00  0.00    -0.041 A 
HETATM    9  C13 UNL     1      21.825  -0.480  53.035  1.00  0.00     0.008 A 
HETATM   10  C14 UNL     1      21.193  -1.193  54.034  1.00  0.00     0.001 A 
HETATM   11  C15 UNL     1      21.909  -1.633  55.132  1.00  0.00     0.001 A 
HETATM   12  C16 UNL     1      23.262  -1.351  55.218  1.00  0.00     0.014 A 
HETATM   13  C17 UNL     1      23.952  -0.646  54.259  1.00  0.00    -0.000 A 
ENDROOT
BRANCH   1  14
HETATM   14  N1  UNL     1      26.838   1.647  51.284  1.00  0.00    -0.349 N 
HETATM   15  H5  UNL     1      27.196   1.359  50.360  1.00  0.00     0.167 HD
BRANCH  14  16
HETATM   16  C6  UNL     1      26.638   3.012  50.984  1.00  0.00     0.103 C 
HETATM   17  C5  UNL     1      25.534   3.636  50.538  1.00  0.00     0.005 C 
BRANCH  17  18
HETATM   18  P1  UNL     1      24.024   4.342  50.761  1.00  0.00    -0.005 P 
BRANCH  18  19
HETATM   19  C4  UNL     1      22.599   3.202  50.436  1.00  0.00     0.231 A 
HETATM   20  C3  UNL     1      21.647   2.296  50.123  1.00  0.00     0.107 A 
HETATM   21  F1  UNL     1      22.882   2.019  49.561  1.00  0.00    -0.353 F 
BRANCH  20  22
HETATM   22  C2  UNL     1      20.664   1.282  49.748  1.00  0.00     0.046 C 
HETATM   23  C1  UNL     1      21.335   1.085  48.635  1.00  0.00     0.060 C 
HETATM   24 CL1  UNL     1      19.293   0.864  50.720  1.00  0.00    -0.086 Cl
ENDBRANCH  20  22
ENDBRANCH  18  19
ENDBRANCH  17  18
ENDBRANCH  14  16
ENDBRANCH   1  14
TORSDOF 5
ENDMDL
MODEL 5
REMARK VINA RESULT:      -7.8      3.092      5.128
REMARK  5 active torsions:
REMARK  status: ('A' for Active; 'I' for Inactive)
REMARK    1  A    between atoms: C2_2  and  C3_4 
REMARK    2  A    between atoms: C4_6  and  P1_7 
REMARK    3  A    between atoms: P1_7  and  C5_8 
REMARK    4  A    between atoms: C6_9  and  N1_10 
REMARK    5  A    between atoms: N1_10  and  C7_11 
ROOT
HETATM    1  C7  UNL     1      23.672   1.050  52.852  1.00  0.00     0.137 A 
HETATM    2  N2  UNL     1      23.371   2.365  52.998  1.00  0.00    -0.224 NA
HETATM    3  C8  UNL     1      24.381   3.237  53.288  1.00  0.00     0.236 A 
HETATM    4  N3  UNL     1      25.659   2.806  53.427  1.00  0.00    -0.241 NA
HETATM    5  C9  UNL     1      25.905   1.476  53.271  1.00  0.00     0.079 A 
HETATM    6  C10 UNL     1      24.950   0.505  52.976  1.00  0.00     0.022 A 
HETATM    7  C11 UNL     1      25.557  -0.827  52.896  1.00  0.00     0.084 A 
HETATM    8  C12 UNL     1      27.017  -0.524  53.148  1.00  0.00    -0.041 A 
HETATM    9  C13 UNL     1      27.992  -1.497  53.144  1.00  0.00     0.008 A 
HETATM   10  C14 UNL     1      29.284  -1.080  53.395  1.00  0.00     0.001 A 
HETATM   11  C15 UNL     1      29.548   0.256  53.634  1.00  0.00     0.001 A 
HETATM   12  C16 UNL     1      28.506   1.168  53.618  1.00  0.00     0.014 A 
HETATM   13  C17 UNL     1      27.197   0.819  53.376  1.00  0.00    -0.000 A 
ENDROOT
BRANCH   1  14
HETATM   14  N1  UNL     1      22.571   0.228  52.547  1.00  0.00    -0.349 N 
HETATM   15  H5  UNL     1      22.023  -0.446  53.105  1.00  0.00     0.167 HD
BRANCH  14  16
HETATM   16  C6  UNL     1      21.867   0.074  51.333  1.00  0.00     0.103 C 
HETATM   17  C5  UNL     1      21.455   1.009  50.460  1.00  0.00     0.005 C 
BRANCH  17  18
HETATM   18  P1  UNL     1      21.708   2.081  49.189  1.00  0.00    -0.005 P 
BRANCH  18  19
HETATM   19  C4  UNL     1      23.313   3.004  49.284  1.00  0.00     0.231 A 
HETATM   20  C3  UNL     1      24.533   3.567  49.424  1.00  0.00     0.107 A 
HETATM   21  F1  UNL     1      24.431   2.316  50.007  1.00  0.00    -0.353 F 
BRANCH  20  22
HETATM   22  C2  UNL     1      25.872   4.122  49.608  1.00  0.00     0.046 C 
HETATM   23  C1  UNL     1      26.275   2.938  50.008  1.00  0.00     0.060 C 
HETATM   24 CL1  UNL     1      26.279   5.778  49.303  1.00  0.00    -0.086 Cl
ENDBRANCH  20  22
ENDBRANCH  18  19
ENDBRANCH  17  18
ENDBRANCH  14  16
ENDBRANCH   1  14
TORSDOF 5
ENDMDL
MODEL 6
REMARK VINA RESULT:      -7.8      2.658      4.290
REMARK  5 active torsions:
REMARK  status: ('A' for Active; 'I' for Inactive)
REMARK    1  A    between atoms: C2_2  and  C3_4 
REMARK    2  A    between atoms: C4_6  and  P1_7 
REMARK    3  A    between atoms: P1_7  and  C5_8 
REMARK    4  A    between atoms: C6_9  and  N1_10 
REMARK    5  A    between atoms: N1_10  and  C7_11 
ROOT
HETATM    1  C7  UNL     1      25.987   3.973  50.061  1.00  0.00     0.137 A 
HETATM    2  N2  UNL     1      24.972   4.639  49.455  1.00  0.00    -0.224 NA
HETATM    3  C8  UNL     1      23.691   4.233  49.694  1.00  0.00     0.236 A 
HETATM    4  N3  UNL     1      23.430   3.189  50.518  1.00  0.00    -0.241 NA
HETATM    5  C9  UNL     1      24.486   2.555  51.100  1.00  0.00     0.079 A 
HETATM    6  C10 UNL     1      25.827   2.887  50.922  1.00  0.00     0.022 A 
HETATM    7  C11 UNL     1      26.700   1.987  51.682  1.00  0.00     0.084 A 
HETATM    8  C12 UNL     1      25.700   1.086  52.371  1.00  0.00    -0.041 A 
HETATM    9  C13 UNL     1      26.074   0.075  53.230  1.00  0.00     0.008 A 
HETATM   10  C14 UNL     1      25.057  -0.675  53.785  1.00  0.00     0.001 A 
HETATM   11  C15 UNL     1      23.739  -0.396  53.471  1.00  0.00     0.001 A 
HETATM   12  C16 UNL     1      23.453   0.640  52.598  1.00  0.00     0.014 A 
HETATM   13  C17 UNL     1      24.418   1.425  52.010  1.00  0.00    -0.000 A 
ENDROOT
BRANCH   1  14
HETATM   14  N1  UNL     1      27.272   4.464  49.763  1.00  0.00    -0.349 N 
HETATM   15  H5  UNL     1      28.108   4.640  50.342  1.00  0.00     0.167 HD
BRANCH  14  16
HETATM   16  C6  UNL     1      27.815   4.885  48.529  1.00  0.00     0.103 C 
HETATM   17  C5  UNL     1      28.701   5.862  48.274  1.00  0.00     0.005 C 
BRANCH  17  18
HETATM   18  P1  UNL     1      30.264   6.479  48.199  1.00  0.00    -0.005 P 
BRANCH  18  19
HETATM   19  C4  UNL     1      31.550   5.231  47.724  1.00  0.00     0.231 A 
HETATM   20  C3  UNL     1      32.384   4.245  47.328  1.00  0.00     0.107 A 
HETATM   21  F1  UNL     1      31.053   3.993  47.042  1.00  0.00    -0.353 F 
BRANCH  20  22
HETATM   22  C2  UNL     1      33.232   3.145  46.874  1.00  0.00     0.046 C 
HETATM   23  C1  UNL     1      32.149   2.426  46.686  1.00  0.00     0.060 C 
HETATM   24 CL1  UNL     1      34.961   3.226  46.807  1.00  0.00    -0.086 Cl
ENDBRANCH  20  22
ENDBRANCH  18  19
ENDBRANCH  17  18
ENDBRANCH  14  16
ENDBRANCH   1  14
TORSDOF 5
ENDMDL
MODEL 7
REMARK VINA RESULT:      -7.7      3.500      5.137
REMARK  5 active torsions:
REMARK  status: ('A' for Active; 'I' for Inactive)
REMARK    1  A    between atoms: C2_2  and  C3_4 
REMARK    2  A    between atoms: C4_6  and  P1_7 
REMARK    3  A    between atoms: P1_7  and  C5_8 
REMARK    4  A    between atoms: C6_9  and  N1_10 
REMARK    5  A    between atoms: N1_10  and  C7_11 
ROOT
HETATM    1  C7  UNL     1      21.255   0.266  52.779  1.00  0.00     0.137 A 
HETATM    2  N2  UNL     1      20.580  -0.517  53.659  1.00  0.00    -0.224 NA
HETATM    3  C8  UNL     1      21.295  -1.239  54.570  1.00  0.00     0.236 A 
HETATM    4  N3  UNL     1      22.649  -1.180  54.602  1.00  0.00    -0.241 NA
HETATM    5  C9  UNL     1      23.276  -0.379  53.697  1.00  0.00     0.079 A 
HETATM    6  C10 UNL     1      22.642   0.396  52.727  1.00  0.00     0.022 A 
HETATM    7  C11 UNL     1      23.619   1.121  51.910  1.00  0.00     0.084 A 
HETATM    8  C12 UNL     1      24.929   0.705  52.540  1.00  0.00    -0.041 A 
HETATM    9  C13 UNL     1      26.149   1.172  52.101  1.00  0.00     0.008 A 
HETATM   10  C14 UNL     1      27.266   0.704  52.765  1.00  0.00     0.001 A 
HETATM   11  C15 UNL     1      27.128  -0.187  53.813  1.00  0.00     0.001 A 
HETATM   12  C16 UNL     1      25.862  -0.603  54.188  1.00  0.00     0.014 A 
HETATM   13  C17 UNL     1      24.709  -0.177  53.570  1.00  0.00    -0.000 A 
ENDROOT
BRANCH   1  14
HETATM   14  N1  UNL     1      20.437   0.980  51.883  1.00  0.00    -0.349 N 
HETATM   15  H5  UNL     1      19.836   1.812  51.992  1.00  0.00     0.167 HD
BRANCH  14  16
HETATM   16  C6  UNL     1      20.185   0.753  50.513  1.00  0.00     0.103 C 
HETATM   17  C5  UNL     1      20.234   1.612  49.481  1.00  0.00     0.005 C 
BRANCH  17  18
HETATM   18  P1  UNL     1      21.059   2.492  48.308  1.00  0.00    -0.005 P 
BRANCH  18  19
HETATM   19  C4  UNL     1      22.753   3.039  48.823  1.00  0.00     0.231 A 
HETATM   20  C3  UNL     1      23.929   3.493  49.310  1.00  0.00     0.107 A 
HETATM   21  F1  UNL     1      22.843   3.790  50.117  1.00  0.00    -0.353 F 
BRANCH  20  22
HETATM   22  C2  UNL     1      25.167   4.009  49.891  1.00  0.00     0.046 C 
HETATM   23  C1  UNL     1      24.446   4.668  50.769  1.00  0.00     0.060 C 
HETATM   24 CL1  UNL     1      26.745   3.628  49.288  1.00  0.00    -0.086 Cl
ENDBRANCH  20  22
ENDBRANCH  18  19
ENDBRANCH  17  18
ENDBRANCH  14  16
ENDBRANCH   1  14
TORSDOF 5
ENDMDL
MODEL 8
REMARK VINA RESULT:      -7.7      3.930      4.888
REMARK  5 active torsions:
REMARK  status: ('A' for Active; 'I' for Inactive)
REMARK    1  A    between atoms: C2_2  and  C3_4 
REMARK    2  A    between atoms: C4_6  and  P1_7 
REMARK    3  A    between atoms: P1_7  and  C5_8 
REMARK    4  A    between atoms: C6_9  and  N1_10 
REMARK    5  A    between atoms: N1_10  and  C7_11 
ROOT
HETATM    1  C7  UNL     1      24.202  -0.303  53.693  1.00  0.00     0.137 A 
HETATM    2  N2  UNL     1      24.455  -0.920  54.875  1.00  0.00    -0.224 NA
HETATM    3  C8  UNL     1      23.407  -1.446  55.573  1.00  0.00     0.236 A 
HETATM    4  N3  UNL     1      22.139  -1.360  55.102  1.00  0.00    -0.241 NA
HETATM    5  C9  UNL     1      21.941  -0.731  53.911  1.00  0.00     0.079 A 
HETATM    6  C10 UNL     1      22.938  -0.160  53.122  1.00  0.00     0.022 A 
HETATM    7  C11 UNL     1      22.372   0.449  51.915  1.00  0.00     0.084 A 
HETATM    8  C12 UNL     1      20.899   0.138  52.065  1.00  0.00    -0.041 A 
HETATM    9  C13 UNL     1      19.960   0.508  51.128  1.00  0.00     0.008 A 
HETATM   10  C14 UNL     1      18.650   0.164  51.395  1.00  0.00     0.001 A 
HETATM   11  C15 UNL     1      18.334  -0.518  52.556  1.00  0.00     0.001 A 
HETATM   12  C16 UNL     1      19.344  -0.851  53.443  1.00  0.00     0.014 A 
HETATM   13  C17 UNL     1      20.668  -0.539  53.238  1.00  0.00    -0.000 A 
ENDROOT
BRANCH   1  14
HETATM   14  N1  UNL     1      25.342   0.202  53.040  1.00  0.00    -0.349 N 
HETATM   15  H5  UNL     1      26.082  -0.243  52.475  1.00  0.00     0.167 HD
BRANCH  14  16
HETATM   16  C6  UNL     1      25.830   1.525  52.967  1.00  0.00     0.103 C 
HETATM   17  C5  UNL     1      26.199   2.242  51.892  1.00  0.00     0.005 C 
BRANCH  17  18
HETATM   18  P1  UNL     1      25.867   3.198  50.547  1.00  0.00    -0.005 P 
BRANCH  18  19
HETATM   19  C4  UNL     1      24.100   3.136  49.991  1.00  0.00     0.231 A 
HETATM   20  C3  UNL     1      22.859   3.043  49.465  1.00  0.00     0.107 A 
HETATM   21  F1  UNL     1      23.860   2.644  48.596  1.00  0.00    -0.353 F 
BRANCH  20  22
HETATM   22  C2  UNL     1      21.545   2.919  48.839  1.00  0.00     0.046 C 
HETATM   23  C1  UNL     1      22.037   1.983  48.059  1.00  0.00     0.060 C 
HETATM   24 CL1  UNL     1      20.172   3.876  49.283  1.00  0.00    -0.086 Cl
ENDBRANCH  20  22
ENDBRANCH  18  19
ENDBRANCH  17  18
ENDBRANCH  14  16
ENDBRANCH   1  14
TORSDOF 5
ENDMDL
MODEL 9
REMARK VINA RESULT:      -7.6      3.054      4.435
REMARK  5 active torsions:
REMARK  status: ('A' for Active; 'I' for Inactive)
REMARK    1  A    between atoms: C2_2  and  C3_4 
REMARK    2  A    between atoms: C4_6  and  P1_7 
REMARK    3  A    between atoms: P1_7  and  C5_8 
REMARK    4  A    between atoms: C6_9  and  N1_10 
REMARK    5  A    between atoms: N1_10  and  C7_11 
ROOT
HETATM    1  C7  UNL     1      21.885   3.964  52.385  1.00  0.00     0.137 A 
HETATM    2  N2  UNL     1      20.589   3.567  52.455  1.00  0.00    -0.224 NA
HETATM    3  C8  UNL     1      20.323   2.245  52.671  1.00  0.00     0.236 A 
HETATM    4  N3  UNL     1      21.326   1.344  52.814  1.00  0.00    -0.241 NA
HETATM    5  C9  UNL     1      22.608   1.797  52.735  1.00  0.00     0.079 A 
HETATM    6  C10 UNL     1      22.987   3.119  52.517  1.00  0.00     0.022 A 
HETATM    7  C11 UNL     1      24.446   3.250  52.471  1.00  0.00     0.084 A 
HETATM    8  C12 UNL     1      24.898   1.829  52.726  1.00  0.00    -0.041 A 
HETATM    9  C13 UNL     1      26.227   1.470  52.795  1.00  0.00     0.008 A 
HETATM   10  C14 UNL     1      26.497   0.137  53.027  1.00  0.00     0.001 A 
HETATM   11  C15 UNL     1      25.459  -0.765  53.178  1.00  0.00     0.001 A 
HETATM   12  C16 UNL     1      24.152  -0.317  53.094  1.00  0.00     0.014 A 
HETATM   13  C17 UNL     1      23.814   0.997  52.865  1.00  0.00    -0.000 A 
ENDROOT
BRANCH   1  14
HETATM   14  N1  UNL     1      22.064   5.343  52.168  1.00  0.00    -0.349 N 
HETATM   15  H5  UNL     1      22.501   6.091  52.730  1.00  0.00     0.167 HD
BRANCH  14  16
HETATM   16  C6  UNL     1      21.677   6.143  51.070  1.00  0.00     0.103 C 
HETATM   17  C5  UNL     1      22.359   7.114  50.438  1.00  0.00     0.005 C 
BRANCH  17  18
HETATM   18  P1  UNL     1      23.508   7.659  49.337  1.00  0.00    -0.005 P 
BRANCH  18  19
HETATM   19  C4  UNL     1      25.039   6.617  49.262  1.00  0.00     0.231 A 
HETATM   20  C3  UNL     1      26.087   5.776  49.120  1.00  0.00     0.107 A 
HETATM   21  F1  UNL     1      24.977   5.408  48.378  1.00  0.00    -0.353 F 
BRANCH  20  22
HETATM   22  C2  UNL     1      27.183   4.829  48.923  1.00  0.00     0.046 C 
HETATM   23  C1  UNL     1      26.424   3.888  49.437  1.00  0.00     0.060 C 
HETATM   24 CL1  UNL     1      28.719   5.261  48.249  1.00  0.00    -0.086 Cl
ENDBRANCH  20  22
ENDBRANCH  18  19
ENDBRANCH  17  18
ENDBRANCH  14  16
ENDBRANCH   1  14
TORSDOF 5
ENDMDL
