MODEL 1
REMARK VINA RESULT:      -8.0      0.000      0.000
REMARK  3 active torsions:
REMARK  status: ('A' for Active; 'I' for Inactive)
REMARK    1  A    between atoms: O1_2  and  C2_3 
REMARK    2  A    between atoms: C7_9  and  N2_10 
REMARK    3  A    between atoms: N2_10  and  C8_11 
ROOT
HETATM    1  C2  UNL     1      22.378  -1.459  54.394  1.00  0.00     0.349 C 
HETATM    2  C3  UNL     1      22.752  -0.487  53.427  1.00  0.00    -0.044 C 
HETATM    3  C4  UNL     1      23.071   0.289  52.656  1.00  0.00    -0.082 C 
HETATM    4  C5  UNL     1      23.493   1.251  51.700  1.00  0.00     0.216 C 
HETATM    5  N1  UNL     1      24.958   1.172  51.611  1.00  0.00    -0.363 N 
HETATM    6  C6  UNL     1      25.991   1.519  52.526  1.00  0.00     0.141 C 
HETATM    7  C7  UNL     1      26.897   2.334  51.956  1.00  0.00     0.138 C 
HETATM    8  N3  UNL     1      26.591   1.468  53.807  1.00  0.00    -0.223 NA
HETATM    9  C14 UNL     1      26.463   0.416  54.529  1.00  0.00     0.237 C 
HETATM   10  N4  UNL     1      25.877  -0.903  54.556  1.00  0.00    -0.230 NA
HETATM   11  C15 UNL     1      24.664  -0.969  55.032  1.00  0.00     0.257 C 
HETATM   12  O2  UNL     1      23.388  -1.433  55.470  1.00  0.00    -0.303 OA
HETATM   13  H7  UNL     1      25.349   0.768  50.706  1.00  0.00     0.162 HD
ENDROOT
BRANCH   7  14
HETATM   14  N2  UNL     1      26.659   2.684  50.596  1.00  0.00    -0.362 N 
HETATM   15  H9  UNL     1      26.648   2.149  49.697  1.00  0.00     0.165 HD
BRANCH  14  16
HETATM   16  C8  UNL     1      26.336   3.862  49.903  1.00  0.00     0.033 A 
HETATM   17  C9  UNL     1      25.062   4.404  49.835  1.00  0.00     0.032 A 
HETATM   18  C10 UNL     1      24.724   5.579  49.156  1.00  0.00     0.046 A 
HETATM   19  C11 UNL     1      25.772   6.221  48.514  1.00  0.00     0.138 A 
HETATM   20  F1  UNL     1      25.491   7.363  47.843  1.00  0.00    -0.204 F 
HETATM   21  C12 UNL     1      27.078   5.783  48.508  1.00  0.00     0.074 A 
HETATM   22 CL1  UNL     1      28.384   6.592  47.703  1.00  0.00    -0.081 Cl
HETATM   23  C13 UNL     1      27.309   4.598  49.218  1.00  0.00     0.056 A 
ENDBRANCH  14  16
ENDBRANCH   7  14
BRANCH   1  24
HETATM   24  O1  UNL     1      21.182  -1.178  54.991  1.00  0.00    -0.355 OA
HETATM   25  C1  UNL     1      20.149  -1.201  54.051  1.00  0.00     0.206 C 
ENDBRANCH   1  24
TORSDOF 3
ENDMDL
MODEL 2
REMARK VINA RESULT:      -8.0      6.066      9.079
REMARK  3 active torsions:
REMARK  status: ('A' for Active; 'I' for Inactive)
REMARK    1  A    between atoms: O1_2  and  C2_3 
REMARK    2  A    between atoms: C7_9  and  N2_10 
REMARK    3  A    between atoms: N2_10  and  C8_11 
ROOT
HETATM    1  C2  UNL     1      26.377  -0.277  54.010  1.00  0.00     0.349 C 
HETATM    2  C3  UNL     1      25.065  -0.643  54.417  1.00  0.00    -0.044 C 
HETATM    3  C4  UNL     1      24.006  -0.928  54.725  1.00  0.00    -0.082 C 
HETATM    4  C5  UNL     1      22.677  -1.273  55.089  1.00  0.00     0.216 C 
HETATM    5  N1  UNL     1      21.808  -0.941  53.951  1.00  0.00    -0.363 N 
HETATM    6  C6  UNL     1      21.409   0.302  53.384  1.00  0.00     0.141 C 
HETATM    7  C7  UNL     1      20.070   0.385  53.276  1.00  0.00     0.138 C 
HETATM    8  N3  UNL     1      21.701   1.584  52.860  1.00  0.00    -0.223 NA
HETATM    9  C14 UNL     1      22.798   1.779  52.226  1.00  0.00     0.237 C 
HETATM   10  N4  UNL     1      24.005   1.126  51.779  1.00  0.00    -0.230 NA
HETATM   11  C15 UNL     1      25.004   1.153  52.619  1.00  0.00     0.257 C 
HETATM   12  O2  UNL     1      26.276   0.978  53.241  1.00  0.00    -0.303 OA
HETATM   13  H7  UNL     1      21.396  -1.769  53.422  1.00  0.00     0.162 HD
ENDROOT
BRANCH   7  14
HETATM   14  N2  UNL     1      19.334  -0.745  53.735  1.00  0.00    -0.362 N 
HETATM   15  H9  UNL     1      19.448  -1.417  54.529  1.00  0.00     0.165 HD
BRANCH  14  16
HETATM   16  C8  UNL     1      18.167  -1.415  53.331  1.00  0.00     0.033 A 
HETATM   17  C9  UNL     1      17.166  -0.845  52.561  1.00  0.00     0.032 A 
HETATM   18  C10 UNL     1      16.001  -1.499  52.144  1.00  0.00     0.046 A 
HETATM   19  C11 UNL     1      15.877  -2.817  52.554  1.00  0.00     0.138 A 
HETATM   20  F1  UNL     1      14.765  -3.490  52.174  1.00  0.00    -0.204 F 
HETATM   21  C12 UNL     1      16.801  -3.494  53.320  1.00  0.00     0.074 A 
HETATM   22 CL1  UNL     1      16.638  -5.144  53.828  1.00  0.00    -0.081 Cl
HETATM   23  C13 UNL     1      17.930  -2.750  53.682  1.00  0.00     0.056 A 
ENDBRANCH  14  16
ENDBRANCH   7  14
BRANCH   1  24
HETATM   24  O1  UNL     1      27.202  -0.007  55.066  1.00  0.00    -0.355 OA
HETATM   25  C1  UNL     1      28.509   0.203  54.623  1.00  0.00     0.206 C 
ENDBRANCH   1  24
TORSDOF 3
ENDMDL
MODEL 3
REMARK VINA RESULT:      -7.7      5.226      8.401
REMARK  3 active torsions:
REMARK  status: ('A' for Active; 'I' for Inactive)
REMARK    1  A    between atoms: O1_2  and  C2_3 
REMARK    2  A    between atoms: C7_9  and  N2_10 
REMARK    3  A    between atoms: N2_10  and  C8_11 
ROOT
HETATM    1  C2  UNL     1      28.136   5.608  48.240  1.00  0.00     0.349 C 
HETATM    2  C3  UNL     1      27.367   4.621  48.915  1.00  0.00    -0.044 C 
HETATM    3  C4  UNL     1      26.735   3.844  49.458  1.00  0.00    -0.082 C 
HETATM    4  C5  UNL     1      25.929   2.890  50.134  1.00  0.00     0.216 C 
HETATM    5  N1  UNL     1      24.581   3.462  50.258  1.00  0.00    -0.363 N 
HETATM    6  C6  UNL     1      24.069   4.548  51.023  1.00  0.00     0.141 C 
HETATM    7  C7  UNL     1      23.004   4.173  51.754  1.00  0.00     0.138 C 
HETATM    8  N3  UNL     1      24.110   5.893  51.459  1.00  0.00    -0.223 NA
HETATM    9  C14 UNL     1      24.549   6.806  50.672  1.00  0.00     0.237 C 
HETATM   10  N4  UNL     1      25.084   7.031  49.351  1.00  0.00    -0.230 NA
HETATM   11  C15 UNL     1      26.382   6.941  49.247  1.00  0.00     0.257 C 
HETATM   12  O2  UNL     1      27.719   6.929  48.749  1.00  0.00    -0.303 OA
HETATM   13  H7  UNL     1      23.825   3.006  49.661  1.00  0.00     0.162 HD
ENDROOT
BRANCH   7  14
HETATM   14  N2  UNL     1      22.605   2.811  51.630  1.00  0.00    -0.362 N 
HETATM   15  H9  UNL     1      22.205   2.237  50.852  1.00  0.00     0.165 HD
BRANCH  14  16
HETATM   16  C8  UNL     1      22.588   1.688  52.473  1.00  0.00     0.033 A 
HETATM   17  C9  UNL     1      21.438   1.132  53.010  1.00  0.00     0.032 A 
HETATM   18  C10 UNL     1      21.402   0.010  53.845  1.00  0.00     0.046 A 
HETATM   19  C11 UNL     1      22.632  -0.560  54.134  1.00  0.00     0.138 A 
HETATM   20  F1  UNL     1      22.646  -1.649  54.939  1.00  0.00    -0.204 F 
HETATM   21  C12 UNL     1      23.843  -0.101  53.662  1.00  0.00     0.074 A 
HETATM   22 CL1  UNL     1      25.377  -0.820  54.028  1.00  0.00    -0.081 Cl
HETATM   23  C13 UNL     1      23.768   1.026  52.835  1.00  0.00     0.056 A 
ENDBRANCH  14  16
ENDBRANCH   7  14
BRANCH   1  24
HETATM   24  O1  UNL     1      29.474   5.507  48.503  1.00  0.00    -0.355 OA
HETATM   25  C1  UNL     1      30.094   6.750  48.360  1.00  0.00     0.206 C 
ENDBRANCH   1  24
TORSDOF 3
ENDMDL
MODEL 4
REMARK VINA RESULT:      -7.6      4.454      6.020
REMARK  3 active torsions:
REMARK  status: ('A' for Active; 'I' for Inactive)
REMARK    1  A    between atoms: O1_2  and  C2_3 
REMARK    2  A    between atoms: C7_9  and  N2_10 
REMARK    3  A    between atoms: N2_10  and  C8_11 
ROOT
HETATM    1  C2  UNL     1      18.422  -0.406  52.873  1.00  0.00     0.349 C 
HETATM    2  C3  UNL     1      19.808  -0.364  53.184  1.00  0.00    -0.044 C 
HETATM    3  C4  UNL     1      20.921  -0.314  53.421  1.00  0.00    -0.082 C 
HETATM    4  C5  UNL     1      22.311  -0.233  53.701  1.00  0.00     0.216 C 
HETATM    5  N1  UNL     1      22.827   0.966  53.026  1.00  0.00    -0.363 N 
HETATM    6  C6  UNL     1      23.010   1.286  51.651  1.00  0.00     0.141 C 
HETATM    7  C7  UNL     1      24.266   1.703  51.408  1.00  0.00     0.138 C 
HETATM    8  N3  UNL     1      22.539   1.381  50.321  1.00  0.00    -0.223 NA
HETATM    9  C14 UNL     1      21.304   1.648  50.099  1.00  0.00     0.237 C 
HETATM   10  N4  UNL     1      20.047   1.926  50.753  1.00  0.00    -0.230 NA
HETATM   11  C15 UNL     1      19.312   0.883  51.024  1.00  0.00     0.257 C 
HETATM   12  O2  UNL     1      18.263   0.025  51.470  1.00  0.00    -0.303 OA
HETATM   13  H7  UNL     1      23.113   1.772  53.662  1.00  0.00     0.162 HD
ENDROOT
BRANCH   7  14
HETATM   14  N2  UNL     1      25.142   1.743  52.530  1.00  0.00    -0.362 N 
HETATM   15  H9  UNL     1      25.126   2.241  53.450  1.00  0.00     0.165 HD
BRANCH  14  16
HETATM   16  C8  UNL     1      26.364   1.140  52.874  1.00  0.00     0.033 A 
HETATM   17  C9  UNL     1      27.447   1.821  53.407  1.00  0.00     0.032 A 
HETATM   18  C10 UNL     1      28.668   1.236  53.761  1.00  0.00     0.046 A 
HETATM   19  C11 UNL     1      28.761  -0.131  53.546  1.00  0.00     0.138 A 
HETATM   20  F1  UNL     1      29.925  -0.739  53.875  1.00  0.00    -0.204 F 
HETATM   21  C12 UNL     1      27.756  -0.915  53.023  1.00  0.00     0.074 A 
HETATM   22 CL1  UNL     1      27.880  -2.624  52.758  1.00  0.00    -0.081 Cl
HETATM   23  C13 UNL     1      26.577  -0.233  52.703  1.00  0.00     0.056 A 
ENDBRANCH  14  16
ENDBRANCH   7  14
BRANCH   1  24
HETATM   24  O1  UNL     1      17.902  -1.668  52.941  1.00  0.00    -0.355 OA
HETATM   25  C1  UNL     1      16.587  -1.681  52.474  1.00  0.00     0.206 C 
ENDBRANCH   1  24
TORSDOF 3
ENDMDL
MODEL 5
REMARK VINA RESULT:      -7.5      6.571      8.369
REMARK  3 active torsions:
REMARK  status: ('A' for Active; 'I' for Inactive)
REMARK    1  A    between atoms: O1_2  and  C2_3 
REMARK    2  A    between atoms: C7_9  and  N2_10 
REMARK    3  A    between atoms: N2_10  and  C8_11 
ROOT
HETATM    1  C2  UNL     1      24.236   6.912  50.820  1.00  0.00     0.349 C 
HETATM    2  C3  UNL     1      25.185   6.103  50.138  1.00  0.00    -0.044 C 
HETATM    3  C4  UNL     1      25.959   5.469  49.592  1.00  0.00    -0.082 C 
HETATM    4  C5  UNL     1      26.940   4.698  48.915  1.00  0.00     0.216 C 
HETATM    5  N1  UNL     1      28.203   5.448  48.967  1.00  0.00    -0.363 N 
HETATM    6  C6  UNL     1      28.622   6.659  48.349  1.00  0.00     0.141 C 
HETATM    7  C7  UNL     1      29.784   6.498  47.691  1.00  0.00     0.138 C 
HETATM    8  N3  UNL     1      28.433   8.025  48.027  1.00  0.00    -0.223 NA
HETATM    9  C14 UNL     1      27.811   8.792  48.845  1.00  0.00     0.237 C 
HETATM   10  N4  UNL     1      27.144   8.818  50.125  1.00  0.00    -0.230 NA
HETATM   11  C15 UNL     1      25.867   8.552  50.099  1.00  0.00     0.257 C 
HETATM   12  O2  UNL     1      24.508   8.319  50.467  1.00  0.00    -0.303 OA
HETATM   13  H7  UNL     1      28.964   5.038  49.590  1.00  0.00     0.162 HD
ENDROOT
BRANCH   7  14
HETATM   14  N2  UNL     1      30.354   5.193  47.735  1.00  0.00    -0.362 N 
HETATM   15  H9  UNL     1      29.969   4.235  47.900  1.00  0.00     0.165 HD
BRANCH  14  16
HETATM   16  C8  UNL     1      31.640   4.652  47.571  1.00  0.00     0.033 A 
HETATM   17  C9  UNL     1      31.926   3.543  46.790  1.00  0.00     0.032 A 
HETATM   18  C10 UNL     1      33.201   2.995  46.610  1.00  0.00     0.046 A 
HETATM   19  C11 UNL     1      34.229   3.639  47.281  1.00  0.00     0.138 A 
HETATM   20  F1  UNL     1      35.480   3.142  47.136  1.00  0.00    -0.204 F 
HETATM   21  C12 UNL     1      34.072   4.746  48.086  1.00  0.00     0.074 A 
HETATM   22 CL1  UNL     1      35.363   5.546  48.922  1.00  0.00    -0.081 Cl
HETATM   23  C13 UNL     1      32.757   5.215  48.198  1.00  0.00     0.056 A 
ENDBRANCH  14  16
ENDBRANCH   7  14
BRANCH   1  24
HETATM   24  O1  UNL     1      22.950   6.666  50.426  1.00  0.00    -0.355 OA
HETATM   25  C1  UNL     1      22.227   7.858  50.351  1.00  0.00     0.206 C 
ENDBRANCH   1  24
TORSDOF 3
ENDMDL
MODEL 6
REMARK VINA RESULT:      -7.5      2.152      3.808
REMARK  3 active torsions:
REMARK  status: ('A' for Active; 'I' for Inactive)
REMARK    1  A    between atoms: O1_2  and  C2_3 
REMARK    2  A    between atoms: C7_9  and  N2_10 
REMARK    3  A    between atoms: N2_10  and  C8_11 
ROOT
HETATM    1  C2  UNL     1      27.500  -0.784  53.791  1.00  0.00     0.349 C 
HETATM    2  C3  UNL     1      27.408   0.429  53.057  1.00  0.00    -0.044 C 
HETATM    3  C4  UNL     1      27.313   1.403  52.473  1.00  0.00    -0.082 C 
HETATM    4  C5  UNL     1      27.173   2.618  51.751  1.00  0.00     0.216 C 
HETATM    5  N1  UNL     1      25.815   3.123  52.000  1.00  0.00    -0.363 N 
HETATM    6  C6  UNL     1      24.532   2.652  51.602  1.00  0.00     0.141 C 
HETATM    7  C7  UNL     1      23.816   3.622  51.005  1.00  0.00     0.138 C 
HETATM    8  N3  UNL     1      23.563   1.628  51.481  1.00  0.00    -0.223 NA
HETATM    9  C14 UNL     1      23.503   0.699  52.364  1.00  0.00     0.237 C 
HETATM   10  N4  UNL     1      24.108   0.227  53.587  1.00  0.00    -0.230 NA
HETATM   11  C15 UNL     1      25.111  -0.593  53.437  1.00  0.00     0.257 C 
HETATM   12  O2  UNL     1      26.204  -1.479  53.675  1.00  0.00    -0.303 OA
HETATM   13  H7  UNL     1      25.746   4.000  52.601  1.00  0.00     0.162 HD
ENDROOT
BRANCH   7  14
HETATM   14  N2  UNL     1      24.455   4.890  50.887  1.00  0.00    -0.362 N 
HETATM   15  H9  UNL     1      24.784   5.607  51.573  1.00  0.00     0.165 HD
BRANCH  14  16
HETATM   16  C8  UNL     1      24.911   5.691  49.826  1.00  0.00     0.033 A 
HETATM   17  C9  UNL     1      24.109   6.562  49.106  1.00  0.00     0.032 A 
HETATM   18  C10 UNL     1      24.548   7.372  48.052  1.00  0.00     0.046 A 
HETATM   19  C11 UNL     1      25.893   7.265  47.736  1.00  0.00     0.138 A 
HETATM   20  F1  UNL     1      26.362   8.030  46.722  1.00  0.00    -0.204 F 
HETATM   21  C12 UNL     1      26.789   6.437  48.376  1.00  0.00     0.074 A 
HETATM   22 CL1  UNL     1      28.471   6.309  47.975  1.00  0.00    -0.081 Cl
HETATM   23  C13 UNL     1      26.249   5.670  49.416  1.00  0.00     0.056 A 
ENDBRANCH  14  16
ENDBRANCH   7  14
BRANCH   1  24
HETATM   24  O1  UNL     1      28.435  -1.641  53.281  1.00  0.00    -0.355 OA
HETATM   25  C1  UNL     1      29.723  -1.197  53.587  1.00  0.00     0.206 C 
ENDBRANCH   1  24
TORSDOF 3
ENDMDL
MODEL 7
REMARK VINA RESULT:      -7.4      4.978      7.736
REMARK  3 active torsions:
REMARK  status: ('A' for Active; 'I' for Inactive)
REMARK    1  A    between atoms: O1_2  and  C2_3 
REMARK    2  A    between atoms: C7_9  and  N2_10 
REMARK    3  A    between atoms: N2_10  and  C8_11 
ROOT
HETATM    1  C2  UNL     1      28.080   0.128  53.089  1.00  0.00     0.349 C 
HETATM    2  C3  UNL     1      26.753  -0.211  53.469  1.00  0.00    -0.044 C 
HETATM    3  C4  UNL     1      25.682  -0.471  53.759  1.00  0.00    -0.082 C 
HETATM    4  C5  UNL     1      24.340  -0.780  54.103  1.00  0.00     0.216 C 
HETATM    5  N1  UNL     1      23.470  -0.128  53.114  1.00  0.00    -0.363 N 
HETATM    6  C6  UNL     1      23.169   1.239  52.860  1.00  0.00     0.141 C 
HETATM    7  C7  UNL     1      21.840   1.453  52.841  1.00  0.00     0.138 C 
HETATM    8  N3  UNL     1      23.559   2.579  52.621  1.00  0.00    -0.223 NA
HETATM    9  C14 UNL     1      24.650   2.822  51.993  1.00  0.00     0.237 C 
HETATM   10  N4  UNL     1      25.778   2.191  51.350  1.00  0.00    -0.230 NA
HETATM   11  C15 UNL     1      26.801   1.945  52.124  1.00  0.00     0.257 C 
HETATM   12  O2  UNL     1      28.070   1.530  52.626  1.00  0.00    -0.303 OA
HETATM   13  H7  UNL     1      22.968  -0.777  52.434  1.00  0.00     0.162 HD
ENDROOT
BRANCH   7  14
HETATM   14  N2  UNL     1      21.018   0.313  53.071  1.00  0.00    -0.362 N 
HETATM   15  H9  UNL     1      21.139  -0.577  53.608  1.00  0.00     0.165 HD
BRANCH  14  16
HETATM   16  C8  UNL     1      19.725  -0.087  52.694  1.00  0.00     0.033 A 
HETATM   17  C9  UNL     1      18.935  -0.962  53.422  1.00  0.00     0.032 A 
HETATM   18  C10 UNL     1      17.644  -1.366  53.065  1.00  0.00     0.046 A 
HETATM   19  C11 UNL     1      17.154  -0.826  51.886  1.00  0.00     0.138 A 
HETATM   20  F1  UNL     1      15.907  -1.189  51.501  1.00  0.00    -0.204 F 
HETATM   21  C12 UNL     1      17.841   0.052  51.076  1.00  0.00     0.074 A 
HETATM   22 CL1  UNL     1      17.220   0.723  49.603  1.00  0.00    -0.081 Cl
HETATM   23  C13 UNL     1      19.123   0.392  51.524  1.00  0.00     0.056 A 
ENDBRANCH  14  16
ENDBRANCH   7  14
BRANCH   1  24
HETATM   24  O1  UNL     1      28.958   0.083  54.136  1.00  0.00    -0.355 OA
HETATM   25  C1  UNL     1      30.032  -0.757  53.836  1.00  0.00     0.206 C 
ENDBRANCH   1  24
TORSDOF 3
ENDMDL
MODEL 8
REMARK VINA RESULT:      -7.3      3.219      4.841
REMARK  3 active torsions:
REMARK  status: ('A' for Active; 'I' for Inactive)
REMARK    1  A    between atoms: O1_2  and  C2_3 
REMARK    2  A    between atoms: C7_9  and  N2_10 
REMARK    3  A    between atoms: N2_10  and  C8_11 
ROOT
HETATM    1  C2  UNL     1      29.002   0.751  54.213  1.00  0.00     0.349 C 
HETATM    2  C3  UNL     1      28.143   1.325  53.237  1.00  0.00    -0.044 C 
HETATM    3  C4  UNL     1      27.439   1.780  52.466  1.00  0.00    -0.082 C 
HETATM    4  C5  UNL     1      26.541   2.341  51.519  1.00  0.00     0.216 C 
HETATM    5  N1  UNL     1      25.194   2.289  52.104  1.00  0.00    -0.363 N 
HETATM    6  C6  UNL     1      24.321   1.204  52.399  1.00  0.00     0.141 C 
HETATM    7  C7  UNL     1      23.104   1.393  51.858  1.00  0.00     0.138 C 
HETATM    8  N3  UNL     1      24.053  -0.056  52.984  1.00  0.00    -0.223 NA
HETATM    9  C14 UNL     1      24.659  -0.401  54.061  1.00  0.00     0.237 C 
HETATM   10  N4  UNL     1      25.626   0.044  55.035  1.00  0.00    -0.230 NA
HETATM   11  C15 UNL     1      26.869  -0.253  54.770  1.00  0.00     0.257 C 
HETATM   12  O2  UNL     1      28.288  -0.385  54.828  1.00  0.00    -0.303 OA
HETATM   13  H7  UNL     1      24.771   3.226  52.384  1.00  0.00     0.162 HD
ENDROOT
BRANCH   7  14
HETATM   14  N2  UNL     1      22.927   2.597  51.118  1.00  0.00    -0.362 N 
HETATM   15  H9  UNL     1      22.906   3.612  51.371  1.00  0.00     0.165 HD
BRANCH  14  16
HETATM   16  C8  UNL     1      22.718   2.926  49.768  1.00  0.00     0.033 A 
HETATM   17  C9  UNL     1      22.263   2.036  48.809  1.00  0.00     0.032 A 
HETATM   18  C10 UNL     1      22.043   2.348  47.463  1.00  0.00     0.046 A 
HETATM   19  C11 UNL     1      22.315   3.658  47.101  1.00  0.00     0.138 A 
HETATM   20  F1  UNL     1      22.116   4.005  45.807  1.00  0.00    -0.204 F 
HETATM   21  C12 UNL     1      22.771   4.634  47.960  1.00  0.00     0.074 A 
HETATM   22 CL1  UNL     1      23.107   6.271  47.499  1.00  0.00    -0.081 Cl
HETATM   23  C13 UNL     1      22.957   4.218  49.284  1.00  0.00     0.056 A 
ENDBRANCH  14  16
ENDBRANCH   7  14
BRANCH   1  24
HETATM   24  O1  UNL     1      30.144   0.231  53.673  1.00  0.00    -0.355 OA
HETATM   25  C1  UNL     1      30.080  -1.164  53.646  1.00  0.00     0.206 C 
ENDBRANCH   1  24
TORSDOF 3
ENDMDL
MODEL 9
REMARK VINA RESULT:      -7.3      4.826      7.879
REMARK  3 active torsions:
REMARK  status: ('A' for Active; 'I' for Inactive)
REMARK    1  A    between atoms: O1_2  and  C2_3 
REMARK    2  A    between atoms: C7_9  and  N2_10 
REMARK    3  A    between atoms: N2_10  and  C8_11 
ROOT
HETATM    1  C2  UNL     1      26.230   3.275  50.624  1.00  0.00     0.349 C 
HETATM    2  C3  UNL     1      24.910   2.806  50.865  1.00  0.00    -0.044 C 
HETATM    3  C4  UNL     1      23.859   2.422  51.075  1.00  0.00    -0.082 C 
HETATM    4  C5  UNL     1      22.555   1.934  51.359  1.00  0.00     0.216 C 
HETATM    5  N1  UNL     1      22.578   1.383  52.721  1.00  0.00    -0.363 N 
HETATM    6  C6  UNL     1      23.210   0.234  53.277  1.00  0.00     0.141 C 
HETATM    7  C7  UNL     1      22.330  -0.534  53.945  1.00  0.00     0.138 C 
HETATM    8  N3  UNL     1      24.345  -0.583  53.492  1.00  0.00    -0.223 NA
HETATM    9  C14 UNL     1      25.510  -0.050  53.564  1.00  0.00     0.237 C 
HETATM   10  N4  UNL     1      26.207   1.213  53.509  1.00  0.00    -0.230 NA
HETATM   11  C15 UNL     1      26.600   1.586  52.321  1.00  0.00     0.257 C 
HETATM   12  O2  UNL     1      27.168   2.310  51.231  1.00  0.00    -0.303 OA
HETATM   13  H7  UNL     1      22.041   1.934  53.457  1.00  0.00     0.162 HD
ENDROOT
BRANCH   7  14
HETATM   14  N2  UNL     1      20.983  -0.071  53.967  1.00  0.00    -0.362 N 
HETATM   15  H9  UNL     1      20.492   0.720  54.444  1.00  0.00     0.165 HD
BRANCH  14  16
HETATM   16  C8  UNL     1      19.775  -0.463  53.366  1.00  0.00     0.033 A 
HETATM   17  C9  UNL     1      18.969  -1.489  53.832  1.00  0.00     0.032 A 
HETATM   18  C10 UNL     1      17.760  -1.888  53.251  1.00  0.00     0.046 A 
HETATM   19  C11 UNL     1      17.376  -1.178  52.125  1.00  0.00     0.138 A 
HETATM   20  F1  UNL     1      16.212  -1.530  51.528  1.00  0.00    -0.204 F 
HETATM   21  C12 UNL     1      18.090  -0.141  51.566  1.00  0.00     0.074 A 
HETATM   22 CL1  UNL     1      17.601   0.743  50.157  1.00  0.00    -0.081 Cl
HETATM   23  C13 UNL     1      19.283   0.179  52.224  1.00  0.00     0.056 A 
ENDBRANCH  14  16
ENDBRANCH   7  14
BRANCH   1  24
HETATM   24  O1  UNL     1      26.542   3.318  49.294  1.00  0.00    -0.355 OA
HETATM   25  C1  UNL     1      27.112   4.550  48.966  1.00  0.00     0.206 C 
ENDBRANCH   1  24
TORSDOF 3
ENDMDL
