MODEL 1
REMARK VINA RESULT:      -8.2      0.000      0.000
REMARK  3 active torsions:
REMARK  status: ('A' for Active; 'I' for Inactive)
REMARK    1  A    between atoms: N1_1  and  C1_2 
REMARK    2  A    between atoms: C7_11  and  N5_12 
REMARK    3  A    between atoms: C10_15  and  C11_16 
ROOT
HETATM    1  C1  UNL     1      19.557  -0.456  52.910  1.00  0.00     0.134 A 
HETATM    2  N2  UNL     1      19.562   0.176  51.731  1.00  0.00    -0.225 NA
HETATM    3  C2  UNL     1      20.741   0.584  51.171  1.00  0.00     0.233 A 
HETATM    4  N3  UNL     1      22.007   0.436  51.665  1.00  0.00    -0.229 NA
HETATM    5  C3  UNL     1      21.984  -0.232  52.909  1.00  0.00     0.357 A 
HETATM    6  C4  UNL     1      20.650  -0.708  53.570  1.00  0.00     0.069 A 
HETATM    7  C5  UNL     1      21.569  -1.049  54.363  1.00  0.00     0.049 A 
HETATM    8  C6  UNL     1      22.358  -1.325  55.015  1.00  0.00     0.080 A 
HETATM    9  N4  UNL     1      23.280  -1.634  55.750  1.00  0.00    -0.230 NA
HETATM   10  C7  UNL     1      23.870  -0.880  54.441  1.00  0.00     0.377 A 
HETATM   11  N6  UNL     1      23.506  -0.252  53.205  1.00  0.00     0.404 N 
HETATM   12  H4  UNL     1      24.238  -1.680  56.002  1.00  0.00     0.132 HD
ENDROOT
BRANCH  10  13
HETATM   13  N5  UNL     1      25.352  -0.615  54.187  1.00  0.00    -0.333 N 
HETATM   14  C8  UNL     1      25.907  -1.020  52.933  1.00  0.00     0.091 A 
HETATM   15  C9  UNL     1      27.185  -0.777  52.755  1.00  0.00     0.031 A 
HETATM   16  C10 UNL     1      28.014  -0.141  53.741  1.00  0.00     0.001 A 
HETATM   17  C12 UNL     1      27.472   0.221  54.886  1.00  0.00     0.007 A 
HETATM   18  C13 UNL     1      26.053   0.036  55.279  1.00  0.00     0.155 A 
BRANCH  16  19
HETATM   19  C11 UNL     1      29.439   0.111  53.499  1.00  0.00     0.269 C 
HETATM   20  O1  UNL     1      30.313  -0.809  53.558  1.00  0.00    -0.301 OA
ENDBRANCH  16  19
ENDBRANCH  10  13
BRANCH   1  21
HETATM   21  N1  UNL     1      18.770  -1.059  53.903  1.00  0.00    -0.383 N 
HETATM   22  H1  UNL     1      17.857  -0.723  54.322  1.00  0.00     0.157 HD
HETATM   23  H2  UNL     1      18.941  -1.963  54.429  1.00  0.00     0.157 HD
ENDBRANCH   1  21
TORSDOF 3
ENDMDL
MODEL 2
REMARK VINA RESULT:      -7.9      3.299      7.141
REMARK  3 active torsions:
REMARK  status: ('A' for Active; 'I' for Inactive)
REMARK    1  A    between atoms: N1_1  and  C1_2 
REMARK    2  A    between atoms: C7_11  and  N5_12 
REMARK    3  A    between atoms: C10_15  and  C11_16 
ROOT
HETATM    1  C1  UNL     1      29.600  -0.666  53.464  1.00  0.00     0.134 A 
HETATM    2  N2  UNL     1      29.563  -1.987  53.258  1.00  0.00    -0.225 NA
HETATM    3  C2  UNL     1      28.366  -2.625  53.082  1.00  0.00     0.233 A 
HETATM    4  N3  UNL     1      27.111  -2.083  53.085  1.00  0.00    -0.229 NA
HETATM    5  C3  UNL     1      27.169  -0.689  53.303  1.00  0.00     0.357 A 
HETATM    6  C4  UNL     1      28.523   0.063  53.507  1.00  0.00     0.069 A 
HETATM    7  C5  UNL     1      27.624   0.944  53.584  1.00  0.00     0.049 A 
HETATM    8  C6  UNL     1      26.851   1.668  53.646  1.00  0.00     0.080 A 
HETATM    9  N4  UNL     1      25.947   2.482  53.712  1.00  0.00    -0.230 NA
HETATM   10  C7  UNL     1      25.320   1.011  53.445  1.00  0.00     0.377 A 
HETATM   11  N6  UNL     1      25.651  -0.371  53.253  1.00  0.00     0.404 N 
HETATM   12  H4  UNL     1      24.995   2.756  53.694  1.00  0.00     0.132 HD
ENDROOT
BRANCH  10  13
HETATM   13  N5  UNL     1      23.830   0.717  53.297  1.00  0.00    -0.333 N 
HETATM   14  C8  UNL     1      23.343  -0.554  53.737  1.00  0.00     0.091 A 
HETATM   15  C9  UNL     1      22.056  -0.769  53.591  1.00  0.00     0.031 A 
HETATM   16  C10 UNL     1      21.154   0.194  53.023  1.00  0.00     0.001 A 
HETATM   17  C12 UNL     1      21.633   1.356  52.627  1.00  0.00     0.007 A 
HETATM   18  C13 UNL     1      23.050   1.790  52.707  1.00  0.00     0.155 A 
BRANCH  16  19
HETATM   19  C11 UNL     1      19.722  -0.089  52.878  1.00  0.00     0.269 C 
HETATM   20  O1  UNL     1      19.158  -1.069  53.457  1.00  0.00    -0.301 OA
ENDBRANCH  16  19
ENDBRANCH  10  13
BRANCH   1  21
HETATM   21  N1  UNL     1      30.415   0.453  53.689  1.00  0.00    -0.383 N 
HETATM   22  H1  UNL     1      31.445   0.486  53.938  1.00  0.00     0.157 HD
HETATM   23  H2  UNL     1      30.158   1.481  53.660  1.00  0.00     0.157 HD
ENDBRANCH   1  21
TORSDOF 3
ENDMDL
MODEL 3
REMARK VINA RESULT:      -7.6      3.399      6.755
REMARK  3 active torsions:
REMARK  status: ('A' for Active; 'I' for Inactive)
REMARK    1  A    between atoms: N1_1  and  C1_2 
REMARK    2  A    between atoms: C7_11  and  N5_12 
REMARK    3  A    between atoms: C10_15  and  C11_16 
ROOT
HETATM    1  C1  UNL     1      28.243   1.299  53.674  1.00  0.00     0.134 A 
HETATM    2  N2  UNL     1      28.171   2.137  52.634  1.00  0.00    -0.225 NA
HETATM    3  C2  UNL     1      26.980   2.337  51.992  1.00  0.00     0.233 A 
HETATM    4  N3  UNL     1      25.766   1.775  52.267  1.00  0.00    -0.229 NA
HETATM    5  C3  UNL     1      25.860   0.894  53.367  1.00  0.00     0.357 A 
HETATM    6  C4  UNL     1      27.208   0.647  54.118  1.00  0.00     0.069 A 
HETATM    7  C5  UNL     1      26.351  -0.070  54.701  1.00  0.00     0.049 A 
HETATM    8  C6  UNL     1      25.614  -0.667  55.177  1.00  0.00     0.080 A 
HETATM    9  N4  UNL     1      24.750  -1.343  55.708  1.00  0.00    -0.230 NA
HETATM   10  C7  UNL     1      24.095  -0.510  54.479  1.00  0.00     0.377 A 
HETATM   11  N6  UNL     1      24.382   0.430  53.436  1.00  0.00     0.404 N 
HETATM   12  H4  UNL     1      23.824  -1.683  55.809  1.00  0.00     0.132 HD
ENDROOT
BRANCH  10  13
HETATM   13  N5  UNL     1      22.625  -0.575  54.075  1.00  0.00    -0.333 N 
HETATM   14  C8  UNL     1      21.822  -1.632  54.608  1.00  0.00     0.091 A 
HETATM   15  C9  UNL     1      20.564  -1.654  54.233  1.00  0.00     0.031 A 
HETATM   16  C10 UNL     1      19.988  -0.689  53.339  1.00  0.00     0.001 A 
HETATM   17  C12 UNL     1      20.754   0.273  52.865  1.00  0.00     0.007 A 
HETATM   18  C13 UNL     1      22.194   0.472  53.166  1.00  0.00     0.155 A 
BRANCH  16  19
HETATM   19  C11 UNL     1      18.576  -0.752  52.946  1.00  0.00     0.269 C 
HETATM   20  O1  UNL     1      17.734  -1.489  53.548  1.00  0.00    -0.301 OA
ENDBRANCH  16  19
ENDBRANCH  10  13
BRANCH   1  21
HETATM   21  N1  UNL     1      29.073   0.724  54.649  1.00  0.00    -0.383 N 
HETATM   22  H1  UNL     1      30.097   0.914  54.845  1.00  0.00     0.157 HD
HETATM   23  H2  UNL     1      28.837  -0.013  55.372  1.00  0.00     0.157 HD
ENDBRANCH   1  21
TORSDOF 3
ENDMDL
MODEL 4
REMARK VINA RESULT:      -7.3      4.839      6.900
REMARK  3 active torsions:
REMARK  status: ('A' for Active; 'I' for Inactive)
REMARK    1  A    between atoms: N1_1  and  C1_2 
REMARK    2  A    between atoms: C7_11  and  N5_12 
REMARK    3  A    between atoms: C10_15  and  C11_16 
ROOT
HETATM    1  C1  UNL     1      26.365   5.422  48.955  1.00  0.00     0.134 A 
HETATM    2  N2  UNL     1      25.251   6.053  48.567  1.00  0.00    -0.225 NA
HETATM    3  C2  UNL     1      24.025   5.594  48.963  1.00  0.00     0.233 A 
HETATM    4  N3  UNL     1      23.740   4.513  49.749  1.00  0.00    -0.229 NA
HETATM    5  C3  UNL     1      24.926   3.859  50.149  1.00  0.00     0.357 A 
HETATM    6  C4  UNL     1      26.339   4.363  49.711  1.00  0.00     0.069 A 
HETATM    7  C5  UNL     1      26.541   3.345  50.427  1.00  0.00     0.049 A 
HETATM    8  C6  UNL     1      26.689   2.485  51.031  1.00  0.00     0.080 A 
HETATM    9  N4  UNL     1      26.834   1.497  51.728  1.00  0.00    -0.230 NA
HETATM   10  C7  UNL     1      25.251   1.821  51.586  1.00  0.00     0.377 A 
HETATM   11  N6  UNL     1      24.303   2.720  50.998  1.00  0.00     0.404 N 
HETATM   12  H4  UNL     1      26.504   0.744  52.282  1.00  0.00     0.132 HD
ENDROOT
BRANCH  10  13
HETATM   13  N5  UNL     1      24.138   1.006  52.236  1.00  0.00    -0.333 N 
HETATM   14  C8  UNL     1      24.469   0.180  53.357  1.00  0.00     0.091 A 
HETATM   15  C9  UNL     1      23.483  -0.507  53.887  1.00  0.00     0.031 A 
HETATM   16  C10 UNL     1      22.134  -0.461  53.396  1.00  0.00     0.001 A 
HETATM   17  C12 UNL     1      21.861   0.310  52.363  1.00  0.00     0.007 A 
HETATM   18  C13 UNL     1      22.829   1.161  51.628  1.00  0.00     0.155 A 
BRANCH  16  19
HETATM   19  C11 UNL     1      21.064  -1.248  54.019  1.00  0.00     0.269 C 
HETATM   20  O1  UNL     1      21.258  -1.971  55.046  1.00  0.00    -0.301 OA
ENDBRANCH  16  19
ENDBRANCH  10  13
BRANCH   1  21
HETATM   21  N1  UNL     1      27.766   5.395  48.896  1.00  0.00    -0.383 N 
HETATM   22  H1  UNL     1      28.441   6.198  48.742  1.00  0.00     0.157 HD
HETATM   23  H2  UNL     1      28.420   4.565  48.988  1.00  0.00     0.157 HD
ENDBRANCH   1  21
TORSDOF 3
ENDMDL
MODEL 5
REMARK VINA RESULT:      -7.3      5.403      7.181
REMARK  3 active torsions:
REMARK  status: ('A' for Active; 'I' for Inactive)
REMARK    1  A    between atoms: N1_1  and  C1_2 
REMARK    2  A    between atoms: C7_11  and  N5_12 
REMARK    3  A    between atoms: C10_15  and  C11_16 
ROOT
HETATM    1  C1  UNL     1      26.876  -0.182  54.165  1.00  0.00     0.134 A 
HETATM    2  N2  UNL     1      28.150   0.061  54.492  1.00  0.00    -0.225 NA
HETATM    3  C2  UNL     1      28.829   1.091  53.902  1.00  0.00     0.233 A 
HETATM    4  N3  UNL     1      28.376   1.974  52.962  1.00  0.00    -0.229 NA
HETATM    5  C3  UNL     1      27.031   1.702  52.628  1.00  0.00     0.357 A 
HETATM    6  C4  UNL     1      26.233   0.531  53.287  1.00  0.00     0.069 A 
HETATM    7  C5  UNL     1      25.435   1.084  52.483  1.00  0.00     0.049 A 
HETATM    8  C6  UNL     1      24.780   1.563  51.800  1.00  0.00     0.080 A 
HETATM    9  N4  UNL     1      24.045   2.130  51.010  1.00  0.00    -0.230 NA
HETATM   10  C7  UNL     1      25.496   2.855  51.004  1.00  0.00     0.377 A 
HETATM   11  N6  UNL     1      26.808   2.825  51.581  1.00  0.00     0.404 N 
HETATM   12  H4  UNL     1      23.834   2.822  50.332  1.00  0.00     0.132 HD
ENDROOT
BRANCH  10  13
HETATM   13  N5  UNL     1      25.859   4.060  50.140  1.00  0.00    -0.333 N 
HETATM   14  C8  UNL     1      27.048   3.992  49.347  1.00  0.00     0.091 A 
HETATM   15  C9  UNL     1      27.326   5.049  48.620  1.00  0.00     0.031 A 
HETATM   16  C10 UNL     1      26.509   6.230  48.597  1.00  0.00     0.001 A 
HETATM   17  C12 UNL     1      25.420   6.262  49.339  1.00  0.00     0.007 A 
HETATM   18  C13 UNL     1      24.933   5.175  50.224  1.00  0.00     0.155 A 
BRANCH  16  19
HETATM   19  C11 UNL     1      26.859   7.390  47.770  1.00  0.00     0.269 C 
HETATM   20  O1  UNL     1      28.025   7.562  47.297  1.00  0.00    -0.301 OA
ENDBRANCH  16  19
ENDBRANCH  10  13
BRANCH   1  21
HETATM   21  N1  UNL     1      25.754  -0.996  54.385  1.00  0.00    -0.383 N 
HETATM   22  H1  UNL     1      24.763  -0.710  54.627  1.00  0.00     0.157 HD
HETATM   23  H2  UNL     1      25.684  -2.053  54.357  1.00  0.00     0.157 HD
ENDBRANCH   1  21
TORSDOF 3
ENDMDL
MODEL 6
REMARK VINA RESULT:      -7.2      3.559      7.114
REMARK  3 active torsions:
REMARK  status: ('A' for Active; 'I' for Inactive)
REMARK    1  A    between atoms: N1_1  and  C1_2 
REMARK    2  A    between atoms: C7_11  and  N5_12 
REMARK    3  A    between atoms: C10_15  and  C11_16 
ROOT
HETATM    1  C1  UNL     1      28.465   1.648  53.695  1.00  0.00     0.134 A 
HETATM    2  N2  UNL     1      28.918   0.518  54.247  1.00  0.00    -0.225 NA
HETATM    3  C2  UNL     1      28.050  -0.492  54.562  1.00  0.00     0.233 A 
HETATM    4  N3  UNL     1      26.695  -0.527  54.388  1.00  0.00    -0.229 NA
HETATM    5  C3  UNL     1      26.235   0.674  53.804  1.00  0.00     0.357 A 
HETATM    6  C4  UNL     1      27.205   1.842  53.435  1.00  0.00     0.069 A 
HETATM    7  C5  UNL     1      26.052   2.232  53.104  1.00  0.00     0.049 A 
HETATM    8  C6  UNL     1      25.074   2.541  52.835  1.00  0.00     0.080 A 
HETATM    9  N4  UNL     1      23.942   2.875  52.532  1.00  0.00    -0.230 NA
HETATM   10  C7  UNL     1      23.907   1.384  53.171  1.00  0.00     0.377 A 
HETATM   11  N6  UNL     1      24.720   0.347  53.733  1.00  0.00     0.404 N 
HETATM   12  H4  UNL     1      22.964   2.732  52.458  1.00  0.00     0.132 HD
ENDROOT
BRANCH  10  13
HETATM   13  N5  UNL     1      22.643   0.548  53.350  1.00  0.00    -0.333 N 
HETATM   14  C8  UNL     1      21.424   1.031  52.778  1.00  0.00     0.091 A 
HETATM   15  C9  UNL     1      20.359   0.284  52.957  1.00  0.00     0.031 A 
HETATM   16  C10 UNL     1      20.376  -0.957  53.680  1.00  0.00     0.001 A 
HETATM   17  C12 UNL     1      21.515  -1.375  54.195  1.00  0.00     0.007 A 
HETATM   18  C13 UNL     1      22.823  -0.680  54.104  1.00  0.00     0.155 A 
BRANCH  16  19
HETATM   19  C11 UNL     1      19.161  -1.760  53.856  1.00  0.00     0.269 C 
HETATM   20  O1  UNL     1      18.034  -1.401  53.390  1.00  0.00    -0.301 OA
ENDBRANCH  16  19
ENDBRANCH  10  13
BRANCH   1  21
HETATM   21  N1  UNL     1      28.804   2.915  53.194  1.00  0.00    -0.383 N 
HETATM   22  H1  UNL     1      29.692   3.219  52.702  1.00  0.00     0.157 HD
HETATM   23  H2  UNL     1      28.241   3.812  53.218  1.00  0.00     0.157 HD
ENDBRANCH   1  21
TORSDOF 3
ENDMDL
MODEL 7
REMARK VINA RESULT:      -7.1      3.960      7.355
REMARK  3 active torsions:
REMARK  status: ('A' for Active; 'I' for Inactive)
REMARK    1  A    between atoms: N1_1  and  C1_2 
REMARK    2  A    between atoms: C7_11  and  N5_12 
REMARK    3  A    between atoms: C10_15  and  C11_16 
ROOT
HETATM    1  C1  UNL     1      25.345   0.061  53.837  1.00  0.00     0.134 A 
HETATM    2  N2  UNL     1      25.673   0.888  52.838  1.00  0.00    -0.225 NA
HETATM    3  C2  UNL     1      24.719   1.321  51.959  1.00  0.00     0.233 A 
HETATM    4  N3  UNL     1      23.386   1.018  51.941  1.00  0.00    -0.229 NA
HETATM    5  C3  UNL     1      23.058   0.145  53.001  1.00  0.00     0.357 A 
HETATM    6  C4  UNL     1      24.129  -0.365  54.019  1.00  0.00     0.069 A 
HETATM    7  C5  UNL     1      23.038  -0.889  54.373  1.00  0.00     0.049 A 
HETATM    8  C6  UNL     1      22.110  -1.320  54.653  1.00  0.00     0.080 A 
HETATM    9  N4  UNL     1      21.034  -1.803  54.958  1.00  0.00    -0.230 NA
HETATM   10  C7  UNL     1      20.847  -0.864  53.648  1.00  0.00     0.377 A 
HETATM   11  N6  UNL     1      21.539  -0.010  52.728  1.00  0.00     0.404 N 
HETATM   12  H4  UNL     1      20.060  -1.947  54.841  1.00  0.00     0.132 HD
ENDROOT
BRANCH  10  13
HETATM   13  N5  UNL     1      19.520  -0.633  52.929  1.00  0.00    -0.333 N 
HETATM   14  C8  UNL     1      18.353  -1.288  53.435  1.00  0.00     0.091 A 
HETATM   15  C9  UNL     1      17.233  -1.065  52.788  1.00  0.00     0.031 A 
HETATM   16  C10 UNL     1      17.143  -0.219  51.631  1.00  0.00     0.001 A 
HETATM   17  C12 UNL     1      18.236   0.371  51.190  1.00  0.00     0.007 A 
HETATM   18  C13 UNL     1      19.593   0.248  51.778  1.00  0.00     0.155 A 
BRANCH  16  19
HETATM   19  C11 UNL     1      15.869   0.001  50.938  1.00  0.00     0.269 C 
HETATM   20  O1  UNL     1      14.908  -0.828  50.998  1.00  0.00    -0.301 OA
ENDBRANCH  16  19
ENDBRANCH  10  13
BRANCH   1  21
HETATM   21  N1  UNL     1      25.807  -0.662  54.947  1.00  0.00    -0.383 N 
HETATM   22  H1  UNL     1      26.564  -0.402  55.642  1.00  0.00     0.157 HD
HETATM   23  H2  UNL     1      25.491  -1.610  55.302  1.00  0.00     0.157 HD
ENDBRANCH   1  21
TORSDOF 3
ENDMDL
MODEL 8
REMARK VINA RESULT:      -7.1      2.291      2.796
REMARK  3 active torsions:
REMARK  status: ('A' for Active; 'I' for Inactive)
REMARK    1  A    between atoms: N1_1  and  C1_2 
REMARK    2  A    between atoms: C7_11  and  N5_12 
REMARK    3  A    between atoms: C10_15  and  C11_16 
ROOT
HETATM    1  C1  UNL     1      20.873   3.519  52.084  1.00  0.00     0.134 A 
HETATM    2  N2  UNL     1      21.475   4.689  51.843  1.00  0.00    -0.225 NA
HETATM    3  C2  UNL     1      22.836   4.795  51.929  1.00  0.00     0.233 A 
HETATM    4  N3  UNL     1      23.741   3.821  52.247  1.00  0.00    -0.229 NA
HETATM    5  C3  UNL     1      23.088   2.594  52.499  1.00  0.00     0.357 A 
HETATM    6  C4  UNL     1      21.535   2.447  52.407  1.00  0.00     0.069 A 
HETATM    7  C5  UNL     1      21.973   1.308  52.726  1.00  0.00     0.049 A 
HETATM    8  C6  UNL     1      22.361   0.359  52.995  1.00  0.00     0.080 A 
HETATM    9  N4  UNL     1      22.830  -0.723  53.304  1.00  0.00    -0.230 NA
HETATM   10  C7  UNL     1      24.034   0.352  53.135  1.00  0.00     0.377 A 
HETATM   11  N6  UNL     1      24.328   1.719  52.819  1.00  0.00     0.404 N 
HETATM   12  H4  UNL     1      23.577  -1.338  53.520  1.00  0.00     0.132 HD
ENDROOT
BRANCH  10  13
HETATM   13  N5  UNL     1      25.513   0.035  53.331  1.00  0.00    -0.333 N 
HETATM   14  C8  UNL     1      26.062  -1.090  52.638  1.00  0.00     0.091 A 
HETATM   15  C9  UNL     1      27.338  -1.331  52.835  1.00  0.00     0.031 A 
HETATM   16  C10 UNL     1      28.170  -0.533  53.693  1.00  0.00     0.001 A 
HETATM   17  C12 UNL     1      27.634   0.497  54.317  1.00  0.00     0.007 A 
HETATM   18  C13 UNL     1      26.219   0.934  54.226  1.00  0.00     0.155 A 
BRANCH  16  19
HETATM   19  C11 UNL     1      29.592  -0.840  53.884  1.00  0.00     0.269 C 
HETATM   20  O1  UNL     1      30.516  -0.107  53.414  1.00  0.00    -0.301 OA
ENDBRANCH  16  19
ENDBRANCH  10  13
BRANCH   1  21
HETATM   21  N1  UNL     1      19.650   2.833  52.154  1.00  0.00    -0.383 N 
HETATM   22  H1  UNL     1      19.088   2.397  51.368  1.00  0.00     0.157 HD
HETATM   23  H2  UNL     1      19.052   2.625  53.003  1.00  0.00     0.157 HD
ENDBRANCH   1  21
TORSDOF 3
ENDMDL
MODEL 9
REMARK VINA RESULT:      -6.7      1.837      3.168
REMARK  3 active torsions:
REMARK  status: ('A' for Active; 'I' for Inactive)
REMARK    1  A    between atoms: N1_1  and  C1_2 
REMARK    2  A    between atoms: C7_11  and  N5_12 
REMARK    3  A    between atoms: C10_15  and  C11_16 
ROOT
HETATM    1  C1  UNL     1      18.282   0.015  51.379  1.00  0.00     0.134 A 
HETATM    2  N2  UNL     1      17.868  -0.671  52.450  1.00  0.00    -0.225 NA
HETATM    3  C2  UNL     1      18.753  -1.009  53.437  1.00  0.00     0.233 A 
HETATM    4  N3  UNL     1      20.090  -0.735  53.504  1.00  0.00    -0.229 NA
HETATM    5  C3  UNL     1      20.510  -0.011  52.366  1.00  0.00     0.357 A 
HETATM    6  C4  UNL     1      19.520   0.387  51.225  1.00  0.00     0.069 A 
HETATM    7  C5  UNL     1      20.645   0.839  50.880  1.00  0.00     0.049 A 
HETATM    8  C6  UNL     1      21.601   1.210  50.608  1.00  0.00     0.080 A 
HETATM    9  N4  UNL     1      22.708   1.628  50.317  1.00  0.00    -0.230 NA
HETATM   10  C7  UNL     1      22.785   0.860  51.744  1.00  0.00     0.377 A 
HETATM   11  N6  UNL     1      22.012   0.145  52.717  1.00  0.00     0.404 N 
HETATM   12  H4  UNL     1      23.677   1.763  50.478  1.00  0.00     0.132 HD
ENDROOT
BRANCH  10  13
HETATM   13  N5  UNL     1      24.055   0.703  52.576  1.00  0.00    -0.333 N 
HETATM   14  C8  UNL     1      25.080   1.692  52.441  1.00  0.00     0.091 A 
HETATM   15  C9  UNL     1      26.157   1.520  53.172  1.00  0.00     0.031 A 
HETATM   16  C10 UNL     1      26.335   0.412  54.069  1.00  0.00     0.001 A 
HETATM   17  C12 UNL     1      25.372  -0.482  54.171  1.00  0.00     0.007 A 
HETATM   18  C13 UNL     1      24.083  -0.466  53.436  1.00  0.00     0.155 A 
BRANCH  16  19
HETATM   19  C11 UNL     1      27.557   0.259  54.867  1.00  0.00     0.269 C 
HETATM   20  O1  UNL     1      28.488  -0.540  54.540  1.00  0.00    -0.301 OA
ENDBRANCH  16  19
ENDBRANCH  10  13
BRANCH   1  21
HETATM   21  N1  UNL     1      17.912   0.601  50.159  1.00  0.00    -0.383 N 
HETATM   22  H1  UNL     1      17.794   0.143  49.211  1.00  0.00     0.157 HD
HETATM   23  H2  UNL     1      17.685   1.615  49.950  1.00  0.00     0.157 HD
ENDBRANCH   1  21
TORSDOF 3
ENDMDL
