MODEL 1
REMARK VINA RESULT:      -8.7      0.000      0.000
REMARK  7 active torsions:
REMARK  status: ('A' for Active; 'I' for Inactive)
REMARK    1  A    between atoms: O1_2  and  C2_3 
REMARK    2  A    between atoms: C2_3  and  C22_29 
REMARK    3  A    between atoms: C3_4  and  C4_5 
REMARK    4  A    between atoms: C6_9  and  N3_10 
REMARK    5  A    between atoms: N3_10  and  C8_12 
REMARK    6  A    between atoms: C12_16  and  N4_17 
REMARK       I    between atoms: N4_17  and  C13_18 
REMARK       I    between atoms: C13_18  and  N5_20 
REMARK    7  A    between atoms: N5_20  and  C14_21 
ROOT
HETATM    1  C8  UNL     1      22.947   3.388  49.394  1.00  0.00     0.033 A 
HETATM    2  C9  UNL     1      23.460   4.425  48.652  1.00  0.00     0.029 A 
HETATM    3  C10 UNL     1      24.621   5.087  49.001  1.00  0.00     0.004 A 
HETATM    4  C11 UNL     1      25.256   4.657  50.148  1.00  0.00     0.029 A 
HETATM    5  C12 UNL     1      24.802   3.633  50.933  1.00  0.00     0.038 A 
HETATM    6  C20 UNL     1      23.641   3.028  50.518  1.00  0.00     0.059 A 
ENDROOT
BRANCH   1   7
HETATM    7  N3  UNL     1      21.778   2.679  49.089  1.00  0.00    -0.362 N 
HETATM    8  C7  UNL     1      21.831   1.438  48.381  1.00  0.00     0.152 C 
BRANCH   7   9
HETATM    9  C6  UNL     1      20.386   3.072  49.435  1.00  0.00     0.214 A 
HETATM   10  N2  UNL     1      20.383   4.140  50.353  1.00  0.00    -0.257 NA
HETATM   11  C5  UNL     1      19.828   4.224  51.457  1.00  0.00     0.229 A 
HETATM   12  N1  UNL     1      19.057   3.099  51.929  1.00  0.00    -0.247 NA
HETATM   13  C4  UNL     1      18.984   2.061  51.178  1.00  0.00     0.042 A 
HETATM   14  C21 UNL     1      19.609   1.883  49.866  1.00  0.00     0.108 A 
BRANCH  13  15
HETATM   15  C3  UNL     1      18.210   0.933  51.651  1.00  0.00     0.067 C 
HETATM   16  C2  UNL     1      18.846  -0.003  52.335  1.00  0.00     0.103 C 
BRANCH  16  17
HETATM   17  O1  UNL     1      20.196   0.169  52.542  1.00  0.00    -0.353 OA
HETATM   18  C1  UNL     1      20.630   0.515  53.849  1.00  0.00     0.210 C 
ENDBRANCH  16  17
BRANCH  16  19
HETATM   19  C22 UNL     1      18.234  -1.206  52.886  1.00  0.00     0.100 A 
HETATM   20  C23 UNL     1      17.070  -1.824  52.864  1.00  0.00     0.039 A 
HETATM   21  C24 UNL     1      17.578  -2.894  53.732  1.00  0.00     0.206 A 
HETATM   22  O3  UNL     1      18.801  -2.180  53.715  1.00  0.00    -0.345 OA
ENDBRANCH  16  19
ENDBRANCH  13  15
ENDBRANCH   7   9
ENDBRANCH   1   7
BRANCH   5  23
HETATM   23  N4  UNL     1      25.420   3.159  52.118  1.00  0.00    -0.309 N 
HETATM   24  C13 UNL     1      26.322   2.104  52.274  1.00  0.00     0.325 C 
HETATM   25  O2  UNL     1      26.678   1.447  51.292  1.00  0.00    -0.247 OA
HETATM   26  N5  UNL     1      26.897   1.694  53.507  1.00  0.00    -0.309 N 
HETATM   27  H14 UNL     1      26.635   2.210  54.382  1.00  0.00     0.170 HD
HETATM   28  H13 UNL     1      25.217   3.618  53.038  1.00  0.00     0.170 HD
BRANCH  26  29
HETATM   29  C14 UNL     1      27.804   0.579  53.437  1.00  0.00     0.036 A 
HETATM   30  C15 UNL     1      29.133   0.934  53.629  1.00  0.00     0.029 A 
HETATM   31  C16 UNL     1      30.068  -0.104  53.573  1.00  0.00     0.002 A 
HETATM   32  C17 UNL     1      29.688  -1.410  53.338  1.00  0.00     0.000 A 
HETATM   33  C18 UNL     1      28.361  -1.738  53.149  1.00  0.00     0.002 A 
HETATM   34  C19 UNL     1      27.424  -0.727  53.202  1.00  0.00     0.029 A 
ENDBRANCH  26  29
ENDBRANCH   5  23
TORSDOF 7
ENDMDL
MODEL 2
REMARK VINA RESULT:      -8.6      4.185      8.905
REMARK  7 active torsions:
REMARK  status: ('A' for Active; 'I' for Inactive)
REMARK    1  A    between atoms: O1_2  and  C2_3 
REMARK    2  A    between atoms: C2_3  and  C22_29 
REMARK    3  A    between atoms: C3_4  and  C4_5 
REMARK    4  A    between atoms: C6_9  and  N3_10 
REMARK    5  A    between atoms: N3_10  and  C8_12 
REMARK    6  A    between atoms: C12_16  and  N4_17 
REMARK       I    between atoms: N4_17  and  C13_18 
REMARK       I    between atoms: C13_18  and  N5_20 
REMARK    7  A    between atoms: N5_20  and  C14_21 
ROOT
HETATM    1  C8  UNL     1      24.325   4.735  49.137  1.00  0.00     0.033 A 
HETATM    2  C9  UNL     1      23.314   4.275  48.329  1.00  0.00     0.029 A 
HETATM    3  C10 UNL     1      22.612   3.117  48.600  1.00  0.00     0.004 A 
HETATM    4  C11 UNL     1      22.975   2.427  49.738  1.00  0.00     0.029 A 
HETATM    5  C12 UNL     1      23.971   2.826  50.587  1.00  0.00     0.038 A 
HETATM    6  C20 UNL     1      24.621   3.986  50.245  1.00  0.00     0.059 A 
ENDROOT
BRANCH   1   7
HETATM    7  N3  UNL     1      25.070   5.901  48.915  1.00  0.00    -0.362 N 
HETATM    8  C7  UNL     1      24.567   6.949  48.082  1.00  0.00     0.152 C 
BRANCH   7   9
HETATM    9  C6  UNL     1      26.410   6.218  49.476  1.00  0.00     0.214 A 
HETATM   10  N2  UNL     1      26.482   7.571  49.860  1.00  0.00    -0.257 NA
HETATM   11  C5  UNL     1      27.303   8.437  49.528  1.00  0.00     0.229 A 
HETATM   12  N1  UNL     1      28.363   8.072  48.619  1.00  0.00    -0.247 NA
HETATM   13  C4  UNL     1      28.403   6.861  48.197  1.00  0.00     0.042 A 
HETATM   14  C21 UNL     1      27.475   5.782  48.539  1.00  0.00     0.108 A 
BRANCH  13  15
HETATM   15  C3  UNL     1      29.466   6.495  47.285  1.00  0.00     0.067 C 
HETATM   16  C2  UNL     1      30.545   5.928  47.797  1.00  0.00     0.103 C 
BRANCH  16  17
HETATM   17  O1  UNL     1      30.572   5.732  49.159  1.00  0.00    -0.353 OA
HETATM   18  C1  UNL     1      31.730   6.149  49.869  1.00  0.00     0.210 C 
ENDBRANCH  16  17
BRANCH  16  19
HETATM   19  C22 UNL     1      31.711   5.496  47.037  1.00  0.00     0.100 A 
HETATM   20  C23 UNL     1      32.580   6.000  46.184  1.00  0.00     0.039 A 
HETATM   21  C24 UNL     1      33.284   4.716  46.081  1.00  0.00     0.206 A 
HETATM   22  O3  UNL     1      32.319   4.236  47.000  1.00  0.00    -0.345 OA
ENDBRANCH  16  19
ENDBRANCH  13  15
ENDBRANCH   7   9
ENDBRANCH   1   7
BRANCH   5  23
HETATM   23  N4  UNL     1      24.378   2.150  51.764  1.00  0.00    -0.309 N 
HETATM   24  C13 UNL     1      25.599   1.528  52.042  1.00  0.00     0.325 C 
HETATM   25  O2  UNL     1      26.495   1.527  51.194  1.00  0.00    -0.247 OA
HETATM   26  N5  UNL     1      25.925   0.869  53.257  1.00  0.00    -0.309 N 
HETATM   27  H14 UNL     1      25.205   0.834  54.020  1.00  0.00     0.170 HD
HETATM   28  H13 UNL     1      23.723   2.068  52.578  1.00  0.00     0.170 HD
BRANCH  26  29
HETATM   29  C14 UNL     1      27.242   0.297  53.327  1.00  0.00     0.036 A 
HETATM   30  C15 UNL     1      27.281  -1.048  52.981  1.00  0.00     0.029 A 
HETATM   31  C16 UNL     1      28.534  -1.666  53.028  1.00  0.00     0.002 A 
HETATM   32  C17 UNL     1      29.670  -0.976  53.400  1.00  0.00     0.000 A 
HETATM   33  C18 UNL     1      29.607   0.361  53.741  1.00  0.00     0.002 A 
HETATM   34  C19 UNL     1      28.379   0.987  53.699  1.00  0.00     0.029 A 
ENDBRANCH  26  29
ENDBRANCH   5  23
TORSDOF 7
ENDMDL
MODEL 3
REMARK VINA RESULT:      -8.5      2.075      2.735
REMARK  7 active torsions:
REMARK  status: ('A' for Active; 'I' for Inactive)
REMARK    1  A    between atoms: O1_2  and  C2_3 
REMARK    2  A    between atoms: C2_3  and  C22_29 
REMARK    3  A    between atoms: C3_4  and  C4_5 
REMARK    4  A    between atoms: C6_9  and  N3_10 
REMARK    5  A    between atoms: N3_10  and  C8_12 
REMARK    6  A    between atoms: C12_16  and  N4_17 
REMARK       I    between atoms: N4_17  and  C13_18 
REMARK       I    between atoms: C13_18  and  N5_20 
REMARK    7  A    between atoms: N5_20  and  C14_21 
ROOT
HETATM    1  C8  UNL     1      23.339   5.022  48.242  1.00  0.00     0.033 A 
HETATM    2  C9  UNL     1      23.577   6.265  47.707  1.00  0.00     0.029 A 
HETATM    3  C10 UNL     1      24.734   6.975  47.962  1.00  0.00     0.004 A 
HETATM    4  C11 UNL     1      25.658   6.374  48.790  1.00  0.00     0.029 A 
HETATM    5  C12 UNL     1      25.487   5.140  49.356  1.00  0.00     0.038 A 
HETATM    6  C20 UNL     1      24.310   4.501  49.054  1.00  0.00     0.059 A 
ENDROOT
BRANCH   1   7
HETATM    7  N3  UNL     1      22.188   4.254  48.018  1.00  0.00    -0.362 N 
HETATM    8  C7  UNL     1      21.868   3.767  46.713  1.00  0.00     0.152 C 
BRANCH   7   9
HETATM    9  C6  UNL     1      21.184   3.844  49.036  1.00  0.00     0.214 A 
HETATM   10  N2  UNL     1      20.729   4.960  49.765  1.00  0.00    -0.257 NA
HETATM   11  C5  UNL     1      20.713   5.143  50.990  1.00  0.00     0.229 A 
HETATM   12  N1  UNL     1      21.220   4.101  51.850  1.00  0.00    -0.247 NA
HETATM   13  C4  UNL     1      21.665   3.030  51.301  1.00  0.00     0.042 A 
HETATM   14  C21 UNL     1      21.720   2.737  49.868  1.00  0.00     0.108 A 
BRANCH  13  15
HETATM   15  C3  UNL     1      22.174   1.985  52.164  1.00  0.00     0.067 C 
HETATM   16  C2  UNL     1      21.303   1.125  52.665  1.00  0.00     0.103 C 
BRANCH  16  17
HETATM   17  O1  UNL     1      19.980   1.293  52.325  1.00  0.00    -0.353 OA
HETATM   18  C1  UNL     1      19.300   0.195  51.734  1.00  0.00     0.210 C 
ENDBRANCH  16  17
BRANCH  16  19
HETATM   19  C22 UNL     1      21.630   0.013  53.549  1.00  0.00     0.100 A 
HETATM   20  C23 UNL     1      22.342  -1.096  53.524  1.00  0.00     0.039 A 
HETATM   21  C24 UNL     1      21.960  -1.418  54.904  1.00  0.00     0.206 A 
HETATM   22  O3  UNL     1      21.215  -0.215  54.865  1.00  0.00    -0.345 OA
ENDBRANCH  16  19
ENDBRANCH  13  15
ENDBRANCH   7   9
ENDBRANCH   1   7
BRANCH   5  23
HETATM   23  N4  UNL     1      26.407   4.485  50.212  1.00  0.00    -0.309 N 
HETATM   24  C13 UNL     1      26.238   3.308  50.947  1.00  0.00     0.325 C 
HETATM   25  O2  UNL     1      25.166   2.700  50.895  1.00  0.00    -0.247 OA
HETATM   26  N5  UNL     1      27.220   2.718  51.785  1.00  0.00    -0.309 N 
HETATM   27  H14 UNL     1      28.155   3.187  51.875  1.00  0.00     0.170 HD
HETATM   28  H13 UNL     1      27.366   4.883  50.358  1.00  0.00     0.170 HD
BRANCH  26  29
HETATM   29  C14 UNL     1      26.830   1.504  52.451  1.00  0.00     0.036 A 
HETATM   30  C15 UNL     1      26.441   1.696  53.771  1.00  0.00     0.029 A 
HETATM   31  C16 UNL     1      26.050   0.553  54.476  1.00  0.00     0.002 A 
HETATM   32  C17 UNL     1      26.050  -0.696  53.890  1.00  0.00     0.000 A 
HETATM   33  C18 UNL     1      26.441  -0.862  52.576  1.00  0.00     0.002 A 
HETATM   34  C19 UNL     1      26.831   0.253  51.865  1.00  0.00     0.029 A 
ENDBRANCH  26  29
ENDBRANCH   5  23
TORSDOF 7
ENDMDL
MODEL 4
REMARK VINA RESULT:      -8.4      2.880      7.012
REMARK  7 active torsions:
REMARK  status: ('A' for Active; 'I' for Inactive)
REMARK    1  A    between atoms: O1_2  and  C2_3 
REMARK    2  A    between atoms: C2_3  and  C22_29 
REMARK    3  A    between atoms: C3_4  and  C4_5 
REMARK    4  A    between atoms: C6_9  and  N3_10 
REMARK    5  A    between atoms: N3_10  and  C8_12 
REMARK    6  A    between atoms: C12_16  and  N4_17 
REMARK       I    between atoms: N4_17  and  C13_18 
REMARK       I    between atoms: C13_18  and  N5_20 
REMARK    7  A    between atoms: N5_20  and  C14_21 
ROOT
HETATM    1  C8  UNL     1      21.736   1.662  50.543  1.00  0.00     0.033 A 
HETATM    2  C9  UNL     1      21.186   1.393  49.312  1.00  0.00     0.029 A 
HETATM    3  C10 UNL     1      21.771   1.805  48.131  1.00  0.00     0.004 A 
HETATM    4  C11 UNL     1      22.951   2.512  48.239  1.00  0.00     0.029 A 
HETATM    5  C12 UNL     1      23.552   2.814  49.430  1.00  0.00     0.038 A 
HETATM    6  C20 UNL     1      22.907   2.370  50.557  1.00  0.00     0.059 A 
ENDROOT
BRANCH   1   7
HETATM    7  N3  UNL     1      21.191   1.268  51.773  1.00  0.00    -0.362 N 
HETATM    8  C7  UNL     1      20.320   2.134  52.504  1.00  0.00     0.152 C 
BRANCH   7   9
HETATM    9  C6  UNL     1      21.411  -0.029  52.466  1.00  0.00     0.214 A 
HETATM   10  N2  UNL     1      20.735  -0.057  53.700  1.00  0.00    -0.257 NA
HETATM   11  C5  UNL     1      21.178  -0.292  54.832  1.00  0.00     0.229 A 
HETATM   12  N1  UNL     1      22.583  -0.590  54.975  1.00  0.00    -0.247 NA
HETATM   13  C4  UNL     1      23.308  -0.595  53.916  1.00  0.00     0.042 A 
HETATM   14  C21 UNL     1      22.863  -0.327  52.548  1.00  0.00     0.108 A 
BRANCH  13  15
HETATM   15  C3  UNL     1      24.717  -0.893  54.059  1.00  0.00     0.067 C 
HETATM   16  C2  UNL     1      25.570   0.112  53.969  1.00  0.00     0.103 C 
BRANCH  16  17
HETATM   17  O1  UNL     1      25.049   1.367  53.744  1.00  0.00    -0.353 OA
HETATM   18  C1  UNL     1      25.752   2.232  52.864  1.00  0.00     0.210 C 
ENDBRANCH  16  17
BRANCH  16  19
HETATM   19  C22 UNL     1      27.019   0.003  54.085  1.00  0.00     0.100 A 
HETATM   20  C23 UNL     1      28.021  -0.578  53.456  1.00  0.00     0.039 A 
HETATM   21  C24 UNL     1      28.990  -0.026  54.411  1.00  0.00     0.206 A 
HETATM   22  O3  UNL     1      27.870   0.570  55.039  1.00  0.00    -0.345 OA
ENDBRANCH  16  19
ENDBRANCH  13  15
ENDBRANCH   7   9
ENDBRANCH   1   7
BRANCH   5  23
HETATM   23  N4  UNL     1      24.761   3.537  49.588  1.00  0.00    -0.309 N 
HETATM   24  C13 UNL     1      25.025   4.880  49.306  1.00  0.00     0.325 C 
HETATM   25  O2  UNL     1      24.131   5.600  48.853  1.00  0.00    -0.247 OA
HETATM   26  N5  UNL     1      26.274   5.527  49.496  1.00  0.00    -0.309 N 
HETATM   27  H14 UNL     1      27.078   4.971  49.878  1.00  0.00     0.170 HD
HETATM   28  H13 UNL     1      25.615   3.060  49.966  1.00  0.00     0.170 HD
BRANCH  26  29
HETATM   29  C14 UNL     1      26.322   6.919  49.137  1.00  0.00     0.036 A 
HETATM   30  C15 UNL     1      26.063   7.776  50.200  1.00  0.00     0.029 A 
HETATM   31  C16 UNL     1      26.093   9.144  49.917  1.00  0.00     0.002 A 
HETATM   32  C17 UNL     1      26.365   9.617  48.650  1.00  0.00     0.000 A 
HETATM   33  C18 UNL     1      26.619   8.747  47.608  1.00  0.00     0.002 A 
HETATM   34  C19 UNL     1      26.594   7.393  47.868  1.00  0.00     0.029 A 
ENDBRANCH  26  29
ENDBRANCH   5  23
TORSDOF 7
ENDMDL
MODEL 5
REMARK VINA RESULT:      -8.3      4.409      8.563
REMARK  7 active torsions:
REMARK  status: ('A' for Active; 'I' for Inactive)
REMARK    1  A    between atoms: O1_2  and  C2_3 
REMARK    2  A    between atoms: C2_3  and  C22_29 
REMARK    3  A    between atoms: C3_4  and  C4_5 
REMARK    4  A    between atoms: C6_9  and  N3_10 
REMARK    5  A    between atoms: N3_10  and  C8_12 
REMARK    6  A    between atoms: C12_16  and  N4_17 
REMARK       I    between atoms: N4_17  and  C13_18 
REMARK       I    between atoms: C13_18  and  N5_20 
REMARK    7  A    between atoms: N5_20  and  C14_21 
ROOT
HETATM    1  C8  UNL     1      23.992   5.709  49.890  1.00  0.00     0.033 A 
HETATM    2  C9  UNL     1      23.476   4.987  48.841  1.00  0.00     0.029 A 
HETATM    3  C10 UNL     1      23.396   3.608  48.855  1.00  0.00     0.004 A 
HETATM    4  C11 UNL     1      23.865   2.974  49.987  1.00  0.00     0.029 A 
HETATM    5  C12 UNL     1      24.390   3.629  51.066  1.00  0.00     0.038 A 
HETATM    6  C20 UNL     1      24.435   4.998  50.973  1.00  0.00     0.059 A 
ENDROOT
BRANCH   1   7
HETATM    7  N3  UNL     1      24.096   7.106  49.934  1.00  0.00    -0.362 N 
HETATM    8  C7  UNL     1      23.028   7.910  50.440  1.00  0.00     0.152 C 
BRANCH   7   9
HETATM    9  C6  UNL     1      25.259   7.922  49.495  1.00  0.00     0.214 A 
HETATM   10  N2  UNL     1      24.989   8.557  48.268  1.00  0.00    -0.257 NA
HETATM   11  C5  UNL     1      25.634   8.526  47.211  1.00  0.00     0.229 A 
HETATM   12  N1  UNL     1      26.847   7.745  47.164  1.00  0.00    -0.247 NA
HETATM   13  C4  UNL     1      27.200   7.117  48.226  1.00  0.00     0.042 A 
HETATM   14  C21 UNL     1      26.496   7.101  49.509  1.00  0.00     0.108 A 
BRANCH  13  15
HETATM   15  C3  UNL     1      28.416   6.334  48.179  1.00  0.00     0.067 C 
HETATM   16  C2  UNL     1      29.545   6.933  48.517  1.00  0.00     0.103 C 
BRANCH  16  17
HETATM   17  O1  UNL     1      29.473   8.257  48.887  1.00  0.00    -0.353 OA
HETATM   18  C1  UNL     1      30.500   9.130  48.438  1.00  0.00     0.210 C 
ENDBRANCH  16  17
BRANCH  16  19
HETATM   19  C22 UNL     1      30.861   6.307  48.529  1.00  0.00     0.100 A 
HETATM   20  C23 UNL     1      31.741   5.869  49.407  1.00  0.00     0.039 A 
HETATM   21  C24 UNL     1      32.658   5.454  48.338  1.00  0.00     0.206 A 
HETATM   22  O3  UNL     1      31.672   5.943  47.449  1.00  0.00    -0.345 OA
ENDBRANCH  16  19
ENDBRANCH  13  15
ENDBRANCH   7   9
ENDBRANCH   1   7
BRANCH   5  23
HETATM   23  N4  UNL     1      24.883   3.020  52.248  1.00  0.00    -0.309 N 
HETATM   24  C13 UNL     1      25.930   2.106  52.392  1.00  0.00     0.325 C 
HETATM   25  O2  UNL     1      26.559   1.729  51.400  1.00  0.00    -0.247 OA
HETATM   26  N5  UNL     1      26.361   1.542  53.623  1.00  0.00    -0.309 N 
HETATM   27  H14 UNL     1      25.866   1.820  54.505  1.00  0.00     0.170 HD
HETATM   28  H13 UNL     1      24.449   3.242  53.175  1.00  0.00     0.170 HD
BRANCH  26  29
HETATM   29  C14 UNL     1      27.460   0.618  53.539  1.00  0.00     0.036 A 
HETATM   30  C15 UNL     1      28.682   1.177  53.893  1.00  0.00     0.029 A 
HETATM   31  C16 UNL     1      29.793   0.331  53.833  1.00  0.00     0.002 A 
HETATM   32  C17 UNL     1      29.681  -0.987  53.443  1.00  0.00     0.000 A 
HETATM   33  C18 UNL     1      28.456  -1.521  53.095  1.00  0.00     0.002 A 
HETATM   34  C19 UNL     1      27.348  -0.701  53.148  1.00  0.00     0.029 A 
ENDBRANCH  26  29
ENDBRANCH   5  23
TORSDOF 7
ENDMDL
MODEL 6
REMARK VINA RESULT:      -8.3      2.597      3.240
REMARK  7 active torsions:
REMARK  status: ('A' for Active; 'I' for Inactive)
REMARK    1  A    between atoms: O1_2  and  C2_3 
REMARK    2  A    between atoms: C2_3  and  C22_29 
REMARK    3  A    between atoms: C3_4  and  C4_5 
REMARK    4  A    between atoms: C6_9  and  N3_10 
REMARK    5  A    between atoms: N3_10  and  C8_12 
REMARK    6  A    between atoms: C12_16  and  N4_17 
REMARK       I    between atoms: N4_17  and  C13_18 
REMARK       I    between atoms: C13_18  and  N5_20 
REMARK    7  A    between atoms: N5_20  and  C14_21 
ROOT
HETATM    1  C8  UNL     1      22.670   5.404  48.334  1.00  0.00     0.033 A 
HETATM    2  C9  UNL     1      22.089   6.444  49.019  1.00  0.00     0.029 A 
HETATM    3  C10 UNL     1      22.619   6.953  50.188  1.00  0.00     0.004 A 
HETATM    4  C11 UNL     1      23.778   6.362  50.649  1.00  0.00     0.029 A 
HETATM    5  C12 UNL     1      24.408   5.325  50.019  1.00  0.00     0.038 A 
HETATM    6  C20 UNL     1      23.817   4.877  48.863  1.00  0.00     0.059 A 
ENDROOT
BRANCH   1   7
HETATM    7  N3  UNL     1      22.180   4.849  47.144  1.00  0.00    -0.362 N 
HETATM    8  C7  UNL     1      22.334   5.528  45.895  1.00  0.00     0.152 C 
BRANCH   7   9
HETATM    9  C6  UNL     1      21.475   3.547  46.997  1.00  0.00     0.214 A 
HETATM   10  N2  UNL     1      20.081   3.724  47.076  1.00  0.00    -0.257 NA
HETATM   11  C5  UNL     1      19.261   3.171  47.821  1.00  0.00     0.229 A 
HETATM   12  N1  UNL     1      19.740   2.194  48.770  1.00  0.00    -0.247 NA
HETATM   13  C4  UNL     1      20.998   1.946  48.795  1.00  0.00     0.042 A 
HETATM   14  C21 UNL     1      22.029   2.554  47.951  1.00  0.00     0.108 A 
BRANCH  13  15
HETATM   15  C3  UNL     1      21.479   0.966  49.746  1.00  0.00     0.067 C 
HETATM   16  C2  UNL     1      21.663   1.361  50.994  1.00  0.00     0.103 C 
BRANCH  16  17
HETATM   17  O1  UNL     1      21.383   2.677  51.290  1.00  0.00    -0.353 OA
HETATM   18  C1  UNL     1      20.449   2.941  52.327  1.00  0.00     0.210 C 
ENDBRANCH  16  17
BRANCH  16  19
HETATM   19  C22 UNL     1      22.140   0.519  52.083  1.00  0.00     0.100 A 
HETATM   20  C23 UNL     1      23.188   0.427  52.877  1.00  0.00     0.039 A 
HETATM   21  C24 UNL     1      22.618  -0.743  53.558  1.00  0.00     0.206 A 
HETATM   22  O3  UNL     1      21.523  -0.588  52.675  1.00  0.00    -0.345 OA
ENDBRANCH  16  19
ENDBRANCH  13  15
ENDBRANCH   7   9
ENDBRANCH   1   7
BRANCH   5  23
HETATM   23  N4  UNL     1      25.598   4.689  50.455  1.00  0.00    -0.309 N 
HETATM   24  C13 UNL     1      25.743   3.495  51.168  1.00  0.00     0.325 C 
HETATM   25  O2  UNL     1      24.745   2.851  51.499  1.00  0.00    -0.247 OA
HETATM   26  N5  UNL     1      26.982   2.926  51.567  1.00  0.00    -0.309 N 
HETATM   27  H14 UNL     1      27.870   3.426  51.318  1.00  0.00     0.170 HD
HETATM   28  H13 UNL     1      26.531   5.117  50.248  1.00  0.00     0.170 HD
BRANCH  26  29
HETATM   29  C14 UNL     1      26.898   1.689  52.296  1.00  0.00     0.036 A 
HETATM   30  C15 UNL     1      26.887   1.857  53.675  1.00  0.00     0.029 A 
HETATM   31  C16 UNL     1      26.807   0.692  54.443  1.00  0.00     0.002 A 
HETATM   32  C17 UNL     1      26.744  -0.558  53.861  1.00  0.00     0.000 A 
HETATM   33  C18 UNL     1      26.756  -0.700  52.487  1.00  0.00     0.002 A 
HETATM   34  C19 UNL     1      26.834   0.438  51.714  1.00  0.00     0.029 A 
ENDBRANCH  26  29
ENDBRANCH   5  23
TORSDOF 7
ENDMDL
MODEL 7
REMARK VINA RESULT:      -8.2      4.715      7.838
REMARK  7 active torsions:
REMARK  status: ('A' for Active; 'I' for Inactive)
REMARK    1  A    between atoms: O1_2  and  C2_3 
REMARK    2  A    between atoms: C2_3  and  C22_29 
REMARK    3  A    between atoms: C3_4  and  C4_5 
REMARK    4  A    between atoms: C6_9  and  N3_10 
REMARK    5  A    between atoms: N3_10  and  C8_12 
REMARK    6  A    between atoms: C12_16  and  N4_17 
REMARK       I    between atoms: N4_17  and  C13_18 
REMARK       I    between atoms: C13_18  and  N5_20 
REMARK    7  A    between atoms: N5_20  and  C14_21 
ROOT
HETATM    1  C8  UNL     1      24.557   5.828  49.811  1.00  0.00     0.033 A 
HETATM    2  C9  UNL     1      23.501   6.538  49.290  1.00  0.00     0.029 A 
HETATM    3  C10 UNL     1      23.530   7.911  49.140  1.00  0.00     0.004 A 
HETATM    4  C11 UNL     1      24.682   8.552  49.542  1.00  0.00     0.029 A 
HETATM    5  C12 UNL     1      25.770   7.910  50.067  1.00  0.00     0.038 A 
HETATM    6  C20 UNL     1      25.662   6.546  50.184  1.00  0.00     0.059 A 
ENDROOT
BRANCH   1   7
HETATM    7  N3  UNL     1      24.587   4.438  49.985  1.00  0.00    -0.362 N 
HETATM    8  C7  UNL     1      25.484   3.620  49.230  1.00  0.00     0.152 C 
BRANCH   7   9
HETATM    9  C6  UNL     1      23.751   3.644  50.924  1.00  0.00     0.214 A 
HETATM   10  N2  UNL     1      23.609   4.314  52.154  1.00  0.00    -0.257 NA
HETATM   11  C5  UNL     1      23.856   3.913  53.299  1.00  0.00     0.229 A 
HETATM   12  N1  UNL     1      24.367   2.574  53.466  1.00  0.00    -0.247 NA
HETATM   13  C4  UNL     1      24.541   1.860  52.414  1.00  0.00     0.042 A 
HETATM   14  C21 UNL     1      24.275   2.259  51.030  1.00  0.00     0.108 A 
BRANCH  13  15
HETATM   15  C3  UNL     1      25.053   0.517  52.581  1.00  0.00     0.067 C 
HETATM   16  C2  UNL     1      26.363   0.349  52.532  1.00  0.00     0.103 C 
BRANCH  16  17
HETATM   17  O1  UNL     1      27.138   1.467  52.325  1.00  0.00    -0.353 OA
HETATM   18  C1  UNL     1      27.914   1.950  53.412  1.00  0.00     0.210 C 
ENDBRANCH  16  17
BRANCH  16  19
HETATM   19  C22 UNL     1      27.056  -0.925  52.678  1.00  0.00     0.100 A 
HETATM   20  C23 UNL     1      26.968  -2.158  52.219  1.00  0.00     0.039 A 
HETATM   21  C24 UNL     1      28.134  -2.576  53.008  1.00  0.00     0.206 A 
HETATM   22  O3  UNL     1      28.172  -1.236  53.461  1.00  0.00    -0.345 OA
ENDBRANCH  16  19
ENDBRANCH  13  15
ENDBRANCH   7   9
ENDBRANCH   1   7
BRANCH   5  23
HETATM   23  N4  UNL     1      26.973   8.527  50.493  1.00  0.00    -0.309 N 
HETATM   24  C13 UNL     1      28.035   9.005  49.721  1.00  0.00     0.325 C 
HETATM   25  O2  UNL     1      27.992   8.913  48.491  1.00  0.00    -0.247 OA
HETATM   26  N5  UNL     1      29.211   9.614  50.233  1.00  0.00    -0.309 N 
HETATM   27  H14 UNL     1      29.311   9.723  51.272  1.00  0.00     0.170 HD
HETATM   28  H13 UNL     1      27.155   8.677  51.514  1.00  0.00     0.170 HD
BRANCH  26  29
HETATM   29  C14 UNL     1      30.178  10.033  49.255  1.00  0.00     0.036 A 
HETATM   30  C15 UNL     1      31.043   9.019  48.860  1.00  0.00     0.029 A 
HETATM   31  C16 UNL     1      32.009   9.361  47.910  1.00  0.00     0.002 A 
HETATM   32  C17 UNL     1      32.099  10.637  47.394  1.00  0.00     0.000 A 
HETATM   33  C18 UNL     1      31.230  11.629  47.801  1.00  0.00     0.002 A 
HETATM   34  C19 UNL     1      30.269  11.310  48.738  1.00  0.00     0.029 A 
ENDBRANCH  26  29
ENDBRANCH   5  23
TORSDOF 7
ENDMDL
MODEL 8
REMARK VINA RESULT:      -8.1      4.724      9.353
REMARK  7 active torsions:
REMARK  status: ('A' for Active; 'I' for Inactive)
REMARK    1  A    between atoms: O1_2  and  C2_3 
REMARK    2  A    between atoms: C2_3  and  C22_29 
REMARK    3  A    between atoms: C3_4  and  C4_5 
REMARK    4  A    between atoms: C6_9  and  N3_10 
REMARK    5  A    between atoms: N3_10  and  C8_12 
REMARK    6  A    between atoms: C12_16  and  N4_17 
REMARK       I    between atoms: N4_17  and  C13_18 
REMARK       I    between atoms: C13_18  and  N5_20 
REMARK    7  A    between atoms: N5_20  and  C14_21 
ROOT
HETATM    1  C8  UNL     1      25.119   6.624  48.560  1.00  0.00     0.033 A 
HETATM    2  C9  UNL     1      23.939   6.502  47.866  1.00  0.00     0.029 A 
HETATM    3  C10 UNL     1      22.895   5.713  48.308  1.00  0.00     0.004 A 
HETATM    4  C11 UNL     1      23.089   5.040  49.496  1.00  0.00     0.029 A 
HETATM    5  C12 UNL     1      24.236   5.115  50.237  1.00  0.00     0.038 A 
HETATM    6  C20 UNL     1      25.226   5.919  49.729  1.00  0.00     0.059 A 
ENDROOT
BRANCH   1   7
HETATM    7  N3  UNL     1      26.210   7.409  48.164  1.00  0.00    -0.362 N 
HETATM    8  C7  UNL     1      26.107   8.312  47.060  1.00  0.00     0.152 C 
BRANCH   7   9
HETATM    9  C6  UNL     1      27.559   7.433  48.789  1.00  0.00     0.214 A 
HETATM   10  N2  UNL     1      28.067   8.745  48.831  1.00  0.00    -0.257 NA
HETATM   11  C5  UNL     1      29.141   9.185  48.398  1.00  0.00     0.229 A 
HETATM   12  N1  UNL     1      30.048   8.272  47.746  1.00  0.00    -0.247 NA
HETATM   13  C4  UNL     1      29.695   7.042  47.645  1.00  0.00     0.042 A 
HETATM   14  C21 UNL     1      28.449   6.445  48.128  1.00  0.00     0.108 A 
BRANCH  13  15
HETATM   15  C3  UNL     1      30.605   6.126  46.991  1.00  0.00     0.067 C 
HETATM   16  C2  UNL     1      31.273   5.277  47.752  1.00  0.00     0.103 C 
BRANCH  16  17
HETATM   17  O1  UNL     1      31.051   5.331  49.110  1.00  0.00    -0.353 OA
HETATM   18  C1  UNL     1      31.993   6.028  49.911  1.00  0.00     0.210 C 
ENDBRANCH  16  17
BRANCH  16  19
HETATM   19  C22 UNL     1      32.229   4.287  47.272  1.00  0.00     0.100 A 
HETATM   20  C23 UNL     1      32.897   4.008  46.170  1.00  0.00     0.039 A 
HETATM   21  C24 UNL     1      33.530   2.844  46.802  1.00  0.00     0.206 A 
HETATM   22  O3  UNL     1      32.784   3.197  47.952  1.00  0.00    -0.345 OA
ENDBRANCH  16  19
ENDBRANCH  13  15
ENDBRANCH   7   9
ENDBRANCH   1   7
BRANCH   5  23
HETATM   23  N4  UNL     1      24.480   4.442  51.460  1.00  0.00    -0.309 N 
HETATM   24  C13 UNL     1      25.211   3.273  51.688  1.00  0.00     0.325 C 
HETATM   25  O2  UNL     1      25.749   2.689  50.743  1.00  0.00    -0.247 OA
HETATM   26  N5  UNL     1      25.405   2.663  52.956  1.00  0.00    -0.309 N 
HETATM   27  H14 UNL     1      24.973   3.109  53.802  1.00  0.00     0.170 HD
HETATM   28  H13 UNL     1      24.087   4.818  52.356  1.00  0.00     0.170 HD
BRANCH  26  29
HETATM   29  C14 UNL     1      26.194   1.460  52.959  1.00  0.00     0.036 A 
HETATM   30  C15 UNL     1      27.516   1.665  53.337  1.00  0.00     0.029 A 
HETATM   31  C16 UNL     1      28.338   0.535  53.361  1.00  0.00     0.002 A 
HETATM   32  C17 UNL     1      27.861  -0.716  53.026  1.00  0.00     0.000 A 
HETATM   33  C18 UNL     1      26.544  -0.896  52.653  1.00  0.00     0.002 A 
HETATM   34  C19 UNL     1      25.718   0.208  52.624  1.00  0.00     0.029 A 
ENDBRANCH  26  29
ENDBRANCH   5  23
TORSDOF 7
ENDMDL
MODEL 9
REMARK VINA RESULT:      -8.1      3.178      8.149
REMARK  7 active torsions:
REMARK  status: ('A' for Active; 'I' for Inactive)
REMARK    1  A    between atoms: O1_2  and  C2_3 
REMARK    2  A    between atoms: C2_3  and  C22_29 
REMARK    3  A    between atoms: C3_4  and  C4_5 
REMARK    4  A    between atoms: C6_9  and  N3_10 
REMARK    5  A    between atoms: N3_10  and  C8_12 
REMARK    6  A    between atoms: C12_16  and  N4_17 
REMARK       I    between atoms: N4_17  and  C13_18 
REMARK       I    between atoms: C13_18  and  N5_20 
REMARK    7  A    between atoms: N5_20  and  C14_21 
ROOT
HETATM    1  C8  UNL     1      20.995   1.031  52.107  1.00  0.00     0.033 A 
HETATM    2  C9  UNL     1      20.618   0.514  50.891  1.00  0.00     0.029 A 
HETATM    3  C10 UNL     1      20.328   1.311  49.801  1.00  0.00     0.004 A 
HETATM    4  C11 UNL     1      20.433   2.673  49.987  1.00  0.00     0.029 A 
HETATM    5  C12 UNL     1      20.801   3.256  51.168  1.00  0.00     0.038 A 
HETATM    6  C20 UNL     1      21.072   2.395  52.203  1.00  0.00     0.059 A 
ENDROOT
BRANCH   1   7
HETATM    7  N3  UNL     1      21.303   0.274  53.245  1.00  0.00    -0.362 N 
HETATM    8  C7  UNL     1      20.564   0.433  54.459  1.00  0.00     0.152 C 
BRANCH   7   9
HETATM    9  C6  UNL     1      22.373  -0.752  53.365  1.00  0.00     0.214 A 
HETATM   10  N2  UNL     1      22.194  -1.526  54.527  1.00  0.00    -0.257 NA
HETATM   11  C5  UNL     1      22.989  -1.748  55.451  1.00  0.00     0.229 A 
HETATM   12  N1  UNL     1      24.304  -1.158  55.387  1.00  0.00    -0.247 NA
HETATM   13  C4  UNL     1      24.588  -0.428  54.371  1.00  0.00     0.042 A 
HETATM   14  C21 UNL     1      23.709  -0.117  53.243  1.00  0.00     0.108 A 
BRANCH  13  15
HETATM   15  C3  UNL     1      25.907   0.164  54.307  1.00  0.00     0.067 C 
HETATM   16  C2  UNL     1      26.898  -0.591  53.864  1.00  0.00     0.103 C 
BRANCH  16  17
HETATM   17  O1  UNL     1      26.595  -1.883  53.498  1.00  0.00    -0.353 OA
HETATM   18  C1  UNL     1      26.889  -2.285  52.168  1.00  0.00     0.210 C 
ENDBRANCH  16  17
BRANCH  16  19
HETATM   19  C22 UNL     1      28.286  -0.168  53.732  1.00  0.00     0.100 A 
HETATM   20  C23 UNL     1      28.965   0.913  53.404  1.00  0.00     0.039 A 
HETATM   21  C24 UNL     1      30.243   0.221  53.610  1.00  0.00     0.206 A 
HETATM   22  O3  UNL     1      29.455  -0.904  53.951  1.00  0.00    -0.345 OA
ENDBRANCH  16  19
ENDBRANCH  13  15
ENDBRANCH   7   9
ENDBRANCH   1   7
BRANCH   5  23
HETATM   23  N4  UNL     1      20.922   4.649  51.405  1.00  0.00    -0.309 N 
HETATM   24  C13 UNL     1      21.819   5.560  50.841  1.00  0.00     0.325 C 
HETATM   25  O2  UNL     1      22.650   5.175  50.015  1.00  0.00    -0.247 OA
HETATM   26  N5  UNL     1      21.870   6.948  51.137  1.00  0.00    -0.309 N 
HETATM   27  H14 UNL     1      21.189   7.341  51.833  1.00  0.00     0.170 HD
HETATM   28  H13 UNL     1      20.281   5.125  52.084  1.00  0.00     0.170 HD
BRANCH  26  29
HETATM   29  C14 UNL     1      22.876   7.702  50.439  1.00  0.00     0.036 A 
HETATM   30  C15 UNL     1      22.395   8.361  49.314  1.00  0.00     0.029 A 
HETATM   31  C16 UNL     1      23.325   9.113  48.590  1.00  0.00     0.002 A 
HETATM   32  C17 UNL     1      24.648   9.195  48.972  1.00  0.00     0.000 A 
HETATM   33  C18 UNL     1      25.103   8.531  50.093  1.00  0.00     0.002 A 
HETATM   34  C19 UNL     1      24.201   7.784  50.821  1.00  0.00     0.029 A 
ENDBRANCH  26  29
ENDBRANCH   5  23
TORSDOF 7
ENDMDL
