MODEL 1
REMARK VINA RESULT:      -7.8      0.000      0.000
REMARK  6 active torsions:
REMARK  status: ('A' for Active; 'I' for Inactive)
REMARK    1  A    between atoms: O1_1  and  C1_2 
REMARK    2  A    between atoms: C1_2  and  C2_3 
REMARK    3  A    between atoms: C1_2  and  C16_21 
REMARK    4  A    between atoms: C2_3  and  O2_4 
REMARK    5  A    between atoms: O2_4  and  C3_5 
REMARK    6  A    between atoms: C16_21  and  N2_22 
ROOT
HETATM    1  C3  UNL     1      23.063   0.902  52.171  1.00  0.00     0.071 C 
HETATM    2  C4  UNL     1      21.744   0.393  51.893  1.00  0.00     0.017 C 
HETATM    3  C5  UNL     1      21.364   0.977  50.670  1.00  0.00     0.050 A 
HETATM    4  C6  UNL     1      20.558   1.211  49.631  1.00  0.00    -0.024 A 
HETATM    5  C7  UNL     1      21.710   2.027  49.378  1.00  0.00     0.029 A 
HETATM    6  C8  UNL     1      22.785   2.099  48.623  1.00  0.00    -0.014 A 
HETATM    7  C9  UNL     1      23.124   3.075  49.654  1.00  0.00     0.073 A 
HETATM    8  C10 UNL     1      22.045   3.056  50.399  1.00  0.00    -0.024 A 
HETATM    9  C11 UNL     1      21.424   3.692  51.556  1.00  0.00     0.037 C 
HETATM   10 CL1  UNL     1      19.794   3.278  52.010  1.00  0.00    -0.084 Cl
HETATM   11  C12 UNL     1      22.163   4.602  52.227  1.00  0.00     0.023 C 
HETATM   12  C13 UNL     1      23.323   5.457  51.869  1.00  0.00     0.200 C 
HETATM   13  O3  UNL     1      23.741   5.172  50.572  1.00  0.00    -0.352 OA
HETATM   14  C14 UNL     1      24.157   3.914  50.360  1.00  0.00     0.375 C 
HETATM   15  N1  UNL     1      24.161   3.137  51.714  1.00  0.00     0.119 N 
HETATM   16  C15 UNL     1      23.909   1.794  51.336  1.00  0.00     0.336 C 
HETATM   17  H13 UNL     1      25.077   3.377  52.103  1.00  0.00     0.319 HD
ENDROOT
BRANCH   1  18
HETATM   18  O2  UNL     1      23.918   0.674  53.279  1.00  0.00    -0.351 OA
BRANCH  18  19
HETATM   19  C2  UNL     1      23.774  -0.565  53.946  1.00  0.00     0.208 C 
BRANCH  19  20
HETATM   20  C1  UNL     1      25.155  -0.867  54.516  1.00  0.00     0.160 C 
BRANCH  20  21
HETATM   21  O1  UNL     1      25.077  -1.318  55.811  1.00  0.00    -0.392 OA
HETATM   22  H1  UNL     1      24.385  -2.033  55.890  1.00  0.00     0.210 HD
ENDBRANCH  20  21
BRANCH  20  23
HETATM   23  C16 UNL     1      26.112   0.269  54.406  1.00  0.00     0.150 C 
BRANCH  23  24
HETATM   24  N2  UNL     1      27.441  -0.179  54.182  1.00  0.00    -0.406 N 
HETATM   25  C17 UNL     1      27.537  -1.114  53.083  1.00  0.00     0.143 C 
HETATM   26  C18 UNL     1      28.865  -1.825  53.183  1.00  0.00     0.187 C 
HETATM   27  O4  UNL     1      29.844  -0.836  53.045  1.00  0.00    -0.388 OA
HETATM   28  C19 UNL     1      29.829   0.046  54.096  1.00  0.00     0.187 C 
HETATM   29  C20 UNL     1      28.502   0.735  54.329  1.00  0.00     0.143 C 
ENDBRANCH  23  24
ENDBRANCH  20  23
ENDBRANCH  19  20
ENDBRANCH  18  19
ENDBRANCH   1  18
TORSDOF 6
ENDMDL
MODEL 2
REMARK VINA RESULT:      -7.7      1.716      2.447
REMARK  6 active torsions:
REMARK  status: ('A' for Active; 'I' for Inactive)
REMARK    1  A    between atoms: O1_1  and  C1_2 
REMARK    2  A    between atoms: C1_2  and  C2_3 
REMARK    3  A    between atoms: C1_2  and  C16_21 
REMARK    4  A    between atoms: C2_3  and  O2_4 
REMARK    5  A    between atoms: O2_4  and  C3_5 
REMARK    6  A    between atoms: C16_21  and  N2_22 
ROOT
HETATM    1  C3  UNL     1      24.168   2.235  51.311  1.00  0.00     0.071 C 
HETATM    2  C4  UNL     1      23.383   1.222  51.968  1.00  0.00     0.017 C 
HETATM    3  C5  UNL     1      22.291   0.977  51.115  1.00  0.00     0.050 A 
HETATM    4  C6  UNL     1      21.159   0.386  50.725  1.00  0.00    -0.024 A 
HETATM    5  C7  UNL     1      21.437   1.336  49.689  1.00  0.00     0.029 A 
HETATM    6  C8  UNL     1      21.875   1.424  48.451  1.00  0.00    -0.014 A 
HETATM    7  C9  UNL     1      21.989   2.817  48.867  1.00  0.00     0.073 A 
HETATM    8  C10 UNL     1      21.515   2.767  50.088  1.00  0.00    -0.024 A 
HETATM    9  C11 UNL     1      21.173   3.603  51.234  1.00  0.00     0.037 C 
HETATM   10 CL1  UNL     1      20.403   2.900  52.630  1.00  0.00    -0.084 Cl
HETATM   11  C12 UNL     1      21.469   4.917  51.146  1.00  0.00     0.023 C 
HETATM   12  C13 UNL     1      21.691   5.853  50.015  1.00  0.00     0.200 C 
HETATM   13  O3  UNL     1      21.633   5.161  48.808  1.00  0.00    -0.352 OA
HETATM   14  C14 UNL     1      22.553   4.197  48.648  1.00  0.00     0.375 C 
HETATM   15  N1  UNL     1      23.533   4.213  49.863  1.00  0.00     0.119 N 
HETATM   16  C15 UNL     1      23.949   2.862  49.982  1.00  0.00     0.336 C 
HETATM   17  H13 UNL     1      24.220   4.918  49.583  1.00  0.00     0.319 HD
ENDROOT
BRANCH   1  18
HETATM   18  O2  UNL     1      25.361   2.882  51.724  1.00  0.00    -0.351 OA
BRANCH  18  19
HETATM   19  C2  UNL     1      26.563   2.155  51.565  1.00  0.00     0.208 C 
BRANCH  19  20
HETATM   20  C1  UNL     1      27.268   2.262  52.912  1.00  0.00     0.160 C 
BRANCH  20  21
HETATM   21  O1  UNL     1      28.627   2.390  52.760  1.00  0.00    -0.392 OA
HETATM   22  H1  UNL     1      28.989   1.638  52.212  1.00  0.00     0.210 HD
ENDBRANCH  20  21
BRANCH  20  23
HETATM   23  C16 UNL     1      26.940   1.155  53.852  1.00  0.00     0.150 C 
BRANCH  23  24
HETATM   24  N2  UNL     1      27.457  -0.090  53.405  1.00  0.00    -0.406 N 
HETATM   25  C17 UNL     1      28.643  -0.493  54.128  1.00  0.00     0.143 C 
HETATM   26  C18 UNL     1      29.331  -1.578  53.336  1.00  0.00     0.187 C 
HETATM   27  O4  UNL     1      28.431  -2.646  53.279  1.00  0.00    -0.388 OA
HETATM   28  C19 UNL     1      27.309  -2.329  52.554  1.00  0.00     0.187 C 
HETATM   29  C20 UNL     1      26.557  -1.112  53.047  1.00  0.00     0.143 C 
ENDBRANCH  23  24
ENDBRANCH  20  23
ENDBRANCH  19  20
ENDBRANCH  18  19
ENDBRANCH   1  18
TORSDOF 6
ENDMDL
MODEL 3
REMARK VINA RESULT:      -7.5      3.186      6.341
REMARK  6 active torsions:
REMARK  status: ('A' for Active; 'I' for Inactive)
REMARK    1  A    between atoms: O1_1  and  C1_2 
REMARK    2  A    between atoms: C1_2  and  C2_3 
REMARK    3  A    between atoms: C1_2  and  C16_21 
REMARK    4  A    between atoms: C2_3  and  O2_4 
REMARK    5  A    between atoms: O2_4  and  C3_5 
REMARK    6  A    between atoms: C16_21  and  N2_22 
ROOT
HETATM    1  C3  UNL     1      22.076   4.431  51.664  1.00  0.00     0.071 C 
HETATM    2  C4  UNL     1      21.058   3.835  50.837  1.00  0.00     0.017 C 
HETATM    3  C5  UNL     1      21.339   2.456  50.826  1.00  0.00     0.050 A 
HETATM    4  C6  UNL     1      21.145   1.176  50.498  1.00  0.00    -0.024 A 
HETATM    5  C7  UNL     1      22.334   1.160  51.299  1.00  0.00     0.029 A 
HETATM    6  C8  UNL     1      22.774   0.837  52.497  1.00  0.00    -0.014 A 
HETATM    7  C9  UNL     1      23.881   1.661  52.025  1.00  0.00     0.073 A 
HETATM    8  C10 UNL     1      23.488   1.962  50.811  1.00  0.00    -0.024 A 
HETATM    9  C11 UNL     1      23.909   2.643  49.592  1.00  0.00     0.037 C 
HETATM   10 CL1  UNL     1      22.909   2.580  48.166  1.00  0.00    -0.084 Cl
HETATM   11  C12 UNL     1      25.089   3.297  49.629  1.00  0.00     0.023 C 
HETATM   12  C13 UNL     1      26.308   3.181  50.469  1.00  0.00     0.200 C 
HETATM   13  O3  UNL     1      26.115   2.219  51.456  1.00  0.00    -0.352 OA
HETATM   14  C14 UNL     1      25.120   2.468  52.321  1.00  0.00     0.375 C 
HETATM   15  N1  UNL     1      24.520   3.879  52.025  1.00  0.00     0.119 N 
HETATM   16  C15 UNL     1      23.164   3.762  52.423  1.00  0.00     0.336 C 
HETATM   17  H13 UNL     1      25.140   4.496  52.557  1.00  0.00     0.319 HD
ENDROOT
BRANCH   1  18
HETATM   18  O2  UNL     1      22.301   5.789  52.004  1.00  0.00    -0.351 OA
BRANCH  18  19
HETATM   19  C2  UNL     1      22.510   6.684  50.930  1.00  0.00     0.208 C 
BRANCH  19  20
HETATM   20  C1  UNL     1      24.004   6.987  50.955  1.00  0.00     0.160 C 
BRANCH  20  21
HETATM   21  O1  UNL     1      24.492   7.007  52.239  1.00  0.00    -0.392 OA
HETATM   22  H1  UNL     1      25.166   7.734  52.345  1.00  0.00     0.210 HD
ENDBRANCH  20  21
BRANCH  20  23
HETATM   23  C16 UNL     1      24.377   8.231  50.225  1.00  0.00     0.150 C 
BRANCH  23  24
HETATM   24  N2  UNL     1      25.595   8.080  49.512  1.00  0.00    -0.406 N 
HETATM   25  C17 UNL     1      26.679   8.843  50.091  1.00  0.00     0.143 C 
HETATM   26  C18 UNL     1      27.783   8.946  49.067  1.00  0.00     0.187 C 
HETATM   27  O4  UNL     1      28.209   7.636  48.824  1.00  0.00    -0.388 OA
HETATM   28  C19 UNL     1      27.230   6.885  48.223  1.00  0.00     0.187 C 
HETATM   29  C20 UNL     1      25.923   6.817  48.984  1.00  0.00     0.143 C 
ENDBRANCH  23  24
ENDBRANCH  20  23
ENDBRANCH  19  20
ENDBRANCH  18  19
ENDBRANCH   1  18
TORSDOF 6
ENDMDL
MODEL 4
REMARK VINA RESULT:      -7.5      2.641      7.253
REMARK  6 active torsions:
REMARK  status: ('A' for Active; 'I' for Inactive)
REMARK    1  A    between atoms: O1_1  and  C1_2 
REMARK    2  A    between atoms: C1_2  and  C2_3 
REMARK    3  A    between atoms: C1_2  and  C16_21 
REMARK    4  A    between atoms: C2_3  and  O2_4 
REMARK    5  A    between atoms: O2_4  and  C3_5 
REMARK    6  A    between atoms: C16_21  and  N2_22 
ROOT
HETATM    1  C3  UNL     1      26.376   1.759  51.996  1.00  0.00     0.071 C 
HETATM    2  C4  UNL     1      25.197   0.964  51.766  1.00  0.00     0.017 C 
HETATM    3  C5  UNL     1      25.003   0.227  52.949  1.00  0.00     0.050 A 
HETATM    4  C6  UNL     1      24.385  -0.639  53.756  1.00  0.00    -0.024 A 
HETATM    5  C7  UNL     1      25.520  -0.198  54.512  1.00  0.00     0.029 A 
HETATM    6  C8  UNL     1      25.859   0.576  55.521  1.00  0.00    -0.014 A 
HETATM    7  C9  UNL     1      27.165   0.360  54.908  1.00  0.00     0.073 A 
HETATM    8  C10 UNL     1      26.863  -0.448  53.921  1.00  0.00    -0.024 A 
HETATM    9  C11 UNL     1      27.455  -1.235  52.845  1.00  0.00     0.037 C 
HETATM   10 CL1  UNL     1      26.455  -2.283  51.877  1.00  0.00    -0.084 Cl
HETATM   11  C12 UNL     1      28.786  -1.115  52.656  1.00  0.00     0.023 C 
HETATM   12  C13 UNL     1      29.918  -0.696  53.522  1.00  0.00     0.200 C 
HETATM   13  O3  UNL     1      29.441  -0.288  54.764  1.00  0.00    -0.352 OA
HETATM   14  C14 UNL     1      28.608   0.764  54.749  1.00  0.00     0.375 C 
HETATM   15  N1  UNL     1      28.506   1.318  53.293  1.00  0.00     0.119 N 
HETATM   16  C15 UNL     1      27.199   1.865  53.228  1.00  0.00     0.336 C 
HETATM   17  H13 UNL     1      29.309   1.950  53.241  1.00  0.00     0.319 HD
ENDROOT
BRANCH   1  18
HETATM   18  O2  UNL     1      27.050   2.667  51.140  1.00  0.00    -0.351 OA
BRANCH  18  19
HETATM   19  C2  UNL     1      26.649   2.676  49.784  1.00  0.00     0.208 C 
BRANCH  19  20
HETATM   20  C1  UNL     1      26.585   4.150  49.402  1.00  0.00     0.160 C 
BRANCH  20  21
HETATM   21  O1  UNL     1      27.819   4.748  49.496  1.00  0.00    -0.392 OA
HETATM   22  H1  UNL     1      28.249   4.803  48.598  1.00  0.00     0.210 HD
ENDBRANCH  20  21
BRANCH  20  23
HETATM   23  C16 UNL     1      25.561   4.923  50.158  1.00  0.00     0.150 C 
BRANCH  23  24
HETATM   24  N2  UNL     1      24.267   4.352  50.031  1.00  0.00    -0.406 N 
HETATM   25  C17 UNL     1      23.524   4.369  51.272  1.00  0.00     0.143 C 
HETATM   26  C18 UNL     1      22.370   3.405  51.145  1.00  0.00     0.187 C 
HETATM   27  O4  UNL     1      21.567   3.897  50.111  1.00  0.00    -0.388 OA
HETATM   28  C19 UNL     1      22.211   3.849  48.899  1.00  0.00     0.187 C 
HETATM   29  C20 UNL     1      23.533   4.584  48.852  1.00  0.00     0.143 C 
ENDBRANCH  23  24
ENDBRANCH  20  23
ENDBRANCH  19  20
ENDBRANCH  18  19
ENDBRANCH   1  18
TORSDOF 6
ENDMDL
MODEL 5
REMARK VINA RESULT:      -7.2      1.979      3.300
REMARK  6 active torsions:
REMARK  status: ('A' for Active; 'I' for Inactive)
REMARK    1  A    between atoms: O1_1  and  C1_2 
REMARK    2  A    between atoms: C1_2  and  C2_3 
REMARK    3  A    between atoms: C1_2  and  C16_21 
REMARK    4  A    between atoms: C2_3  and  O2_4 
REMARK    5  A    between atoms: O2_4  and  C3_5 
REMARK    6  A    between atoms: C16_21  and  N2_22 
ROOT
HETATM    1  C3  UNL     1      24.069   3.697  50.426  1.00  0.00     0.071 C 
HETATM    2  C4  UNL     1      23.961   3.494  49.004  1.00  0.00     0.017 C 
HETATM    3  C5  UNL     1      22.646   3.866  48.669  1.00  0.00     0.050 A 
HETATM    4  C6  UNL     1      21.610   4.075  47.851  1.00  0.00    -0.024 A 
HETATM    5  C7  UNL     1      21.109   4.410  49.151  1.00  0.00     0.029 A 
HETATM    6  C8  UNL     1      20.784   5.439  49.906  1.00  0.00    -0.014 A 
HETATM    7  C9  UNL     1      20.852   4.386  50.914  1.00  0.00     0.073 A 
HETATM    8  C10 UNL     1      21.131   3.336  50.181  1.00  0.00    -0.024 A 
HETATM    9  C11 UNL     1      21.319   1.891  50.250  1.00  0.00     0.037 C 
HETATM   10 CL1  UNL     1      21.567   0.971  48.791  1.00  0.00    -0.084 Cl
HETATM   11  C12 UNL     1      21.280   1.324  51.475  1.00  0.00     0.023 C 
HETATM   12  C13 UNL     1      20.682   1.717  52.776  1.00  0.00     0.200 C 
HETATM   13  O3  UNL     1      20.107   2.981  52.672  1.00  0.00    -0.352 OA
HETATM   14  C14 UNL     1      20.950   3.978  52.361  1.00  0.00     0.375 C 
HETATM   15  N1  UNL     1      22.409   3.425  52.320  1.00  0.00     0.119 N 
HETATM   16  C15 UNL     1      23.058   4.249  51.365  1.00  0.00     0.336 C 
HETATM   17  H13 UNL     1      22.696   3.486  53.300  1.00  0.00     0.319 HD
ENDROOT
BRANCH   1  18
HETATM   18  O2  UNL     1      25.156   3.461  51.306  1.00  0.00    -0.351 OA
BRANCH  18  19
HETATM   19  C2  UNL     1      25.598   2.123  51.422  1.00  0.00     0.208 C 
BRANCH  19  20
HETATM   20  C1  UNL     1      25.982   1.962  52.888  1.00  0.00     0.160 C 
BRANCH  20  21
HETATM   21  O1  UNL     1      25.324   2.869  53.683  1.00  0.00    -0.392 OA
HETATM   22  H1  UNL     1      24.674   3.399  53.144  1.00  0.00     0.210 HD
ENDBRANCH  20  21
BRANCH  20  23
HETATM   23  C16 UNL     1      27.451   2.007  53.133  1.00  0.00     0.150 C 
BRANCH  23  24
HETATM   24  N2  UNL     1      28.033   0.712  53.098  1.00  0.00    -0.406 N 
HETATM   25  C17 UNL     1      29.184   0.594  53.965  1.00  0.00     0.143 C 
HETATM   26  C18 UNL     1      29.953  -0.641  53.562  1.00  0.00     0.187 C 
HETATM   27  O4  UNL     1      29.091  -1.721  53.778  1.00  0.00    -0.388 OA
HETATM   28  C19 UNL     1      28.006  -1.683  52.939  1.00  0.00     0.187 C 
HETATM   29  C20 UNL     1      27.188  -0.412  53.013  1.00  0.00     0.143 C 
ENDBRANCH  23  24
ENDBRANCH  20  23
ENDBRANCH  19  20
ENDBRANCH  18  19
ENDBRANCH   1  18
TORSDOF 6
ENDMDL
MODEL 6
REMARK VINA RESULT:      -7.0      9.508     12.267
REMARK  6 active torsions:
REMARK  status: ('A' for Active; 'I' for Inactive)
REMARK    1  A    between atoms: O1_1  and  C1_2 
REMARK    2  A    between atoms: C1_2  and  C2_3 
REMARK    3  A    between atoms: C1_2  and  C16_21 
REMARK    4  A    between atoms: C2_3  and  O2_4 
REMARK    5  A    between atoms: O2_4  and  C3_5 
REMARK    6  A    between atoms: C16_21  and  N2_22 
ROOT
HETATM    1  C3  UNL     1      31.680   5.215  48.354  1.00  0.00     0.071 C 
HETATM    2  C4  UNL     1      31.970   4.047  47.561  1.00  0.00     0.017 C 
HETATM    3  C5  UNL     1      33.371   4.013  47.438  1.00  0.00     0.050 A 
HETATM    4  C6  UNL     1      34.547   3.521  47.037  1.00  0.00    -0.024 A 
HETATM    5  C7  UNL     1      34.887   4.717  47.751  1.00  0.00     0.029 A 
HETATM    6  C8  UNL     1      35.395   5.137  48.890  1.00  0.00    -0.014 A 
HETATM    7  C9  UNL     1      34.797   6.374  48.399  1.00  0.00     0.073 A 
HETATM    8  C10 UNL     1      34.320   5.994  47.239  1.00  0.00    -0.024 A 
HETATM    9  C11 UNL     1      33.650   6.490  46.042  1.00  0.00     0.037 C 
HETATM   10 CL1  UNL     1      33.377   5.428  44.689  1.00  0.00    -0.084 Cl
HETATM   11  C12 UNL     1      33.274   7.787  46.042  1.00  0.00     0.023 C 
HETATM   12  C13 UNL     1      33.723   8.993  46.785  1.00  0.00     0.200 C 
HETATM   13  O3  UNL     1      34.696   8.642  47.716  1.00  0.00    -0.352 OA
HETATM   14  C14 UNL     1      34.308   7.775  48.663  1.00  0.00     0.375 C 
HETATM   15  N1  UNL     1      32.780   7.490  48.506  1.00  0.00     0.119 N 
HETATM   16  C15 UNL     1      32.630   6.165  48.988  1.00  0.00     0.336 C 
HETATM   17  H13 UNL     1      32.358   8.259  49.033  1.00  0.00     0.319 HD
ENDROOT
BRANCH   1  18
HETATM   18  O2  UNL     1      30.436   5.755  48.769  1.00  0.00    -0.351 OA
BRANCH  18  19
HETATM   19  C2  UNL     1      29.622   6.317  47.759  1.00  0.00     0.208 C 
BRANCH  19  20
HETATM   20  C1  UNL     1      28.914   7.488  48.431  1.00  0.00     0.160 C 
BRANCH  20  21
HETATM   21  O1  UNL     1      27.848   7.065  49.187  1.00  0.00    -0.392 OA
HETATM   22  H1  UNL     1      28.157   6.469  49.924  1.00  0.00     0.210 HD
ENDBRANCH  20  21
BRANCH  20  23
HETATM   23  C16 UNL     1      28.504   8.564  47.486  1.00  0.00     0.150 C 
BRANCH  23  24
HETATM   24  N2  UNL     1      29.337   9.708  47.593  1.00  0.00    -0.406 N 
HETATM   25  C17 UNL     1      29.948   9.835  48.897  1.00  0.00     0.143 C 
HETATM   26  C18 UNL     1      30.464  11.246  49.042  1.00  0.00     0.187 C 
HETATM   27  O4  UNL     1      31.437  11.405  48.052  1.00  0.00    -0.388 OA
HETATM   28  C19 UNL     1      30.897  11.348  46.791  1.00  0.00     0.187 C 
HETATM   29  C20 UNL     1      30.126  10.081  46.487  1.00  0.00     0.143 C 
ENDBRANCH  23  24
ENDBRANCH  20  23
ENDBRANCH  19  20
ENDBRANCH  18  19
ENDBRANCH   1  18
TORSDOF 6
ENDMDL
MODEL 7
REMARK VINA RESULT:      -6.9      9.442     12.339
REMARK  6 active torsions:
REMARK  status: ('A' for Active; 'I' for Inactive)
REMARK    1  A    between atoms: O1_1  and  C1_2 
REMARK    2  A    between atoms: C1_2  and  C2_3 
REMARK    3  A    between atoms: C1_2  and  C16_21 
REMARK    4  A    between atoms: C2_3  and  O2_4 
REMARK    5  A    between atoms: O2_4  and  C3_5 
REMARK    6  A    between atoms: C16_21  and  N2_22 
ROOT
HETATM    1  C3  UNL     1      31.092   6.551  47.280  1.00  0.00     0.071 C 
HETATM    2  C4  UNL     1      31.221   7.474  46.182  1.00  0.00     0.017 C 
HETATM    3  C5  UNL     1      32.181   6.907  45.323  1.00  0.00     0.050 A 
HETATM    4  C6  UNL     1      32.953   6.839  44.235  1.00  0.00    -0.024 A 
HETATM    5  C7  UNL     1      33.290   5.664  44.983  1.00  0.00     0.029 A 
HETATM    6  C8  UNL     1      33.116   4.359  45.001  1.00  0.00    -0.014 A 
HETATM    7  C9  UNL     1      33.604   4.576  46.358  1.00  0.00     0.073 A 
HETATM    8  C10 UNL     1      33.830   5.868  46.354  1.00  0.00    -0.024 A 
HETATM    9  C11 UNL     1      34.360   6.954  47.171  1.00  0.00     0.037 C 
HETATM   10 CL1  UNL     1      34.518   8.554  46.499  1.00  0.00    -0.084 Cl
HETATM   11  C12 UNL     1      34.720   6.653  48.436  1.00  0.00     0.023 C 
HETATM   12  C13 UNL     1      35.113   5.398  49.127  1.00  0.00     0.200 C 
HETATM   13  O3  UNL     1      35.008   4.321  48.252  1.00  0.00    -0.352 OA
HETATM   14  C14 UNL     1      33.778   4.082  47.771  1.00  0.00     0.375 C 
HETATM   15  N1  UNL     1      32.761   5.051  48.453  1.00  0.00     0.119 N 
HETATM   16  C15 UNL     1      31.756   5.235  47.470  1.00  0.00     0.336 C 
HETATM   17  H13 UNL     1      32.524   4.550  49.314  1.00  0.00     0.319 HD
ENDROOT
BRANCH   1  18
HETATM   18  O2  UNL     1      30.291   6.623  48.448  1.00  0.00    -0.351 OA
BRANCH  18  19
HETATM   19  C2  UNL     1      28.900   6.785  48.252  1.00  0.00     0.208 C 
BRANCH  19  20
HETATM   20  C1  UNL     1      28.567   8.129  48.890  1.00  0.00     0.160 C 
BRANCH  20  21
HETATM   21  O1  UNL     1      27.570   8.008  49.826  1.00  0.00    -0.392 OA
HETATM   22  H1  UNL     1      26.677   8.164  49.408  1.00  0.00     0.210 HD
ENDBRANCH  20  21
BRANCH  20  23
HETATM   23  C16 UNL     1      28.245   9.198  47.904  1.00  0.00     0.150 C 
BRANCH  23  24
HETATM   24  N2  UNL     1      28.981  10.387  48.154  1.00  0.00    -0.406 N 
HETATM   25  C17 UNL     1      28.144  11.480  48.595  1.00  0.00     0.143 C 
HETATM   26  C18 UNL     1      28.923  12.763  48.440  1.00  0.00     0.187 C 
HETATM   27  O4  UNL     1      30.029  12.648  49.288  1.00  0.00    -0.388 OA
HETATM   28  C19 UNL     1      30.885  11.657  48.879  1.00  0.00     0.187 C 
HETATM   29  C20 UNL     1      30.254  10.287  48.747  1.00  0.00     0.143 C 
ENDBRANCH  23  24
ENDBRANCH  20  23
ENDBRANCH  19  20
ENDBRANCH  18  19
ENDBRANCH   1  18
TORSDOF 6
ENDMDL
MODEL 8
REMARK VINA RESULT:      -6.8      2.167      3.863
REMARK  6 active torsions:
REMARK  status: ('A' for Active; 'I' for Inactive)
REMARK    1  A    between atoms: O1_1  and  C1_2 
REMARK    2  A    between atoms: C1_2  and  C2_3 
REMARK    3  A    between atoms: C1_2  and  C16_21 
REMARK    4  A    between atoms: C2_3  and  O2_4 
REMARK    5  A    between atoms: O2_4  and  C3_5 
REMARK    6  A    between atoms: C16_21  and  N2_22 
ROOT
HETATM    1  C3  UNL     1      24.284   3.696  50.994  1.00  0.00     0.071 C 
HETATM    2  C4  UNL     1      23.529   4.099  52.153  1.00  0.00     0.017 C 
HETATM    3  C5  UNL     1      22.240   3.565  51.967  1.00  0.00     0.050 A 
HETATM    4  C6  UNL     1      20.968   3.313  52.288  1.00  0.00    -0.024 A 
HETATM    5  C7  UNL     1      21.139   2.697  51.005  1.00  0.00     0.029 A 
HETATM    6  C8  UNL     1      21.277   1.522  50.428  1.00  0.00    -0.014 A 
HETATM    7  C9  UNL     1      21.706   2.398  49.343  1.00  0.00     0.073 A 
HETATM    8  C10 UNL     1      21.535   3.583  49.878  1.00  0.00    -0.024 A 
HETATM    9  C11 UNL     1      21.613   5.009  49.583  1.00  0.00     0.037 C 
HETATM   10 CL1  UNL     1      21.098   6.176  50.770  1.00  0.00    -0.084 Cl
HETATM   11  C12 UNL     1      22.085   5.361  48.368  1.00  0.00     0.023 C 
HETATM   12  C13 UNL     1      22.176   4.671  47.056  1.00  0.00     0.200 C 
HETATM   13  O3  UNL     1      21.723   3.360  47.177  1.00  0.00    -0.352 OA
HETATM   14  C14 UNL     1      22.413   2.584  48.026  1.00  0.00     0.375 C 
HETATM   15  N1  UNL     1      23.645   3.378  48.565  1.00  0.00     0.119 N 
HETATM   16  C15 UNL     1      23.857   2.838  49.859  1.00  0.00     0.336 C 
HETATM   17  H13 UNL     1      24.347   3.213  47.840  1.00  0.00     0.319 HD
ENDROOT
BRANCH   1  18
HETATM   18  O2  UNL     1      25.628   3.973  50.635  1.00  0.00    -0.351 OA
BRANCH  18  19
HETATM   19  C2  UNL     1      26.475   2.857  50.443  1.00  0.00     0.208 C 
BRANCH  19  20
HETATM   20  C1  UNL     1      26.758   2.331  51.845  1.00  0.00     0.160 C 
BRANCH  20  21
HETATM   21  O1  UNL     1      27.957   2.800  52.326  1.00  0.00    -0.392 OA
HETATM   22  H1  UNL     1      27.878   3.033  53.292  1.00  0.00     0.210 HD
ENDBRANCH  20  21
BRANCH  20  23
HETATM   23  C16 UNL     1      26.683   0.848  51.958  1.00  0.00     0.150 C 
BRANCH  23  24
HETATM   24  N2  UNL     1      25.719   0.439  52.917  1.00  0.00    -0.406 N 
HETATM   25  C17 UNL     1      24.378   0.399  52.379  1.00  0.00     0.143 C 
HETATM   26  C18 UNL     1      23.407   0.357  53.533  1.00  0.00     0.187 C 
HETATM   27  O4  UNL     1      23.672  -0.832  54.219  1.00  0.00    -0.388 OA
HETATM   28  C19 UNL     1      24.917  -0.821  54.797  1.00  0.00     0.187 C 
HETATM   29  C20 UNL     1      26.061  -0.571  53.837  1.00  0.00     0.143 C 
ENDBRANCH  23  24
ENDBRANCH  20  23
ENDBRANCH  19  20
ENDBRANCH  18  19
ENDBRANCH   1  18
TORSDOF 6
ENDMDL
MODEL 9
REMARK VINA RESULT:      -6.8      2.140      3.133
REMARK  6 active torsions:
REMARK  status: ('A' for Active; 'I' for Inactive)
REMARK    1  A    between atoms: O1_1  and  C1_2 
REMARK    2  A    between atoms: C1_2  and  C2_3 
REMARK    3  A    between atoms: C1_2  and  C16_21 
REMARK    4  A    between atoms: C2_3  and  O2_4 
REMARK    5  A    between atoms: O2_4  and  C3_5 
REMARK    6  A    between atoms: C16_21  and  N2_22 
ROOT
HETATM    1  C3  UNL     1      21.841   1.400  51.845  1.00  0.00     0.071 C 
HETATM    2  C4  UNL     1      20.991   2.158  52.728  1.00  0.00     0.017 C 
HETATM    3  C5  UNL     1      19.873   2.521  51.955  1.00  0.00     0.050 A 
HETATM    4  C6  UNL     1      18.687   3.090  51.721  1.00  0.00    -0.024 A 
HETATM    5  C7  UNL     1      19.063   2.521  50.460  1.00  0.00     0.029 A 
HETATM    6  C8  UNL     1      18.795   1.516  49.654  1.00  0.00    -0.014 A 
HETATM    7  C9  UNL     1      20.063   1.970  49.093  1.00  0.00     0.073 A 
HETATM    8  C10 UNL     1      20.332   3.004  49.853  1.00  0.00    -0.024 A 
HETATM    9  C11 UNL     1      21.285   4.093  50.033  1.00  0.00     0.037 C 
HETATM   10 CL1  UNL     1      21.002   5.311  51.247  1.00  0.00    -0.084 Cl
HETATM   11  C12 UNL     1      22.363   4.108  49.219  1.00  0.00     0.023 C 
HETATM   12  C13 UNL     1      22.656   3.530  47.883  1.00  0.00     0.200 C 
HETATM   13  O3  UNL     1      21.577   2.763  47.450  1.00  0.00    -0.352 OA
HETATM   14  C14 UNL     1      21.266   1.712  48.223  1.00  0.00     0.375 C 
HETATM   15  N1  UNL     1      22.321   1.582  49.366  1.00  0.00     0.119 N 
HETATM   16  C15 UNL     1      21.594   1.000  50.436  1.00  0.00     0.336 C 
HETATM   17  H13 UNL     1      23.063   1.037  48.919  1.00  0.00     0.319 HD
ENDROOT
BRANCH   1  18
HETATM   18  O2  UNL     1      23.108   0.808  52.078  1.00  0.00    -0.351 OA
BRANCH  18  19
HETATM   19  C2  UNL     1      23.968   1.485  52.973  1.00  0.00     0.208 C 
BRANCH  19  20
HETATM   20  C1  UNL     1      25.211   1.811  52.154  1.00  0.00     0.160 C 
BRANCH  20  21
HETATM   21  O1  UNL     1      24.882   2.321  50.922  1.00  0.00    -0.392 OA
HETATM   22  H1  UNL     1      25.224   1.728  50.196  1.00  0.00     0.210 HD
ENDBRANCH  20  21
BRANCH  20  23
HETATM   23  C16 UNL     1      26.160   0.670  52.021  1.00  0.00     0.150 C 
BRANCH  23  24
HETATM   24  N2  UNL     1      27.248   0.778  52.927  1.00  0.00    -0.406 N 
HETATM   25  C17 UNL     1      27.608   2.150  53.206  1.00  0.00     0.143 C 
HETATM   26  C18 UNL     1      28.984   2.160  53.827  1.00  0.00     0.187 C 
HETATM   27  O4  UNL     1      28.871   1.452  55.027  1.00  0.00    -0.388 OA
HETATM   28  C19 UNL     1      28.583   0.127  54.813  1.00  0.00     0.187 C 
HETATM   29  C20 UNL     1      27.331  -0.128  54.002  1.00  0.00     0.143 C 
ENDBRANCH  23  24
ENDBRANCH  20  23
ENDBRANCH  19  20
ENDBRANCH  18  19
ENDBRANCH   1  18
TORSDOF 6
ENDMDL
