MODEL 1
REMARK VINA RESULT:      -8.1      0.000      0.000
REMARK  2 active torsions:
REMARK  status: ('A' for Active; 'I' for Inactive)
REMARK    1  A    between atoms: C5_6  and  N1_7 
REMARK    2  A    between atoms: N1_7  and  C6_8 
ROOT
HETATM    1  C6  UNL     1      24.341   1.583  52.693  1.00  0.00     0.160 A 
HETATM    2  N2  UNL     1      24.401   2.512  51.727  1.00  0.00    -0.222 NA
HETATM    3  C7  UNL     1      23.465   2.512  50.774  1.00  0.00     0.238 A 
HETATM    4  N3  UNL     1      22.502   1.586  50.818  1.00  0.00    -0.215 NA
HETATM    5  C8  UNL     1      22.389   0.630  51.759  1.00  0.00     0.201 A 
HETATM    6  C9  UNL     1      23.331   0.612  52.739  1.00  0.00     0.128 A 
HETATM    7  N4  UNL     1      23.320  -0.332  53.788  1.00  0.00    -0.383 N 
HETATM    8  C10 UNL     1      22.485  -0.810  54.837  1.00  0.00     0.120 C 
HETATM    9  C11 UNL     1      21.347  -1.641  54.334  1.00  0.00     0.025 C 
HETATM   10  C12 UNL     1      20.476  -0.898  53.450  1.00  0.00     0.027 C 
HETATM   11  C13 UNL     1      19.313  -0.379  53.146  1.00  0.00     0.001 C 
HETATM   12  C14 UNL     1      18.978   0.358  51.952  1.00  0.00    -0.001 C 
HETATM   13  C15 UNL     1      20.066   0.436  51.147  1.00  0.00     0.140 C 
HETATM   14  O1  UNL     1      21.298  -0.148  51.509  1.00  0.00    -0.303 OA
HETATM   15  H6  UNL     1      24.279  -0.794  53.685  1.00  0.00     0.159 HD
ENDROOT
BRANCH   1  16
HETATM   16  N1  UNL     1      25.303   1.538  53.723  1.00  0.00    -0.339 N 
HETATM   17  H4  UNL     1      25.024   1.781  54.721  1.00  0.00     0.167 HD
BRANCH  16  18
HETATM   18  C5  UNL     1      26.676   1.205  53.666  1.00  0.00     0.035 A 
HETATM   19  C4  UNL     1      27.698   2.156  53.777  1.00  0.00     0.029 A 
HETATM   20  C3  UNL     1      29.034   1.848  53.728  1.00  0.00     0.004 A 
HETATM   21  C2  UNL     1      29.442   0.547  53.561  1.00  0.00     0.019 A 
HETATM   22  C1  UNL     1      28.490  -0.429  53.446  1.00  0.00     0.013 A 
HETATM   23 BR1  UNL     1      29.108  -2.208  53.218  1.00  0.00    -0.051 Br
HETATM   24  C16 UNL     1      27.160  -0.075  53.502  1.00  0.00     0.048 A 
ENDBRANCH  16  18
ENDBRANCH   1  16
TORSDOF 2
ENDMDL
MODEL 2
REMARK VINA RESULT:      -8.1      3.182      7.049
REMARK  2 active torsions:
REMARK  status: ('A' for Active; 'I' for Inactive)
REMARK    1  A    between atoms: C5_6  and  N1_7 
REMARK    2  A    between atoms: N1_7  and  C6_8 
ROOT
HETATM    1  C6  UNL     1      24.669   0.891  52.953  1.00  0.00     0.160 A 
HETATM    2  N2  UNL     1      24.575   2.198  53.244  1.00  0.00    -0.222 NA
HETATM    3  C7  UNL     1      25.561   2.777  53.933  1.00  0.00     0.238 A 
HETATM    4  N3  UNL     1      26.607   2.034  54.307  1.00  0.00    -0.215 NA
HETATM    5  C8  UNL     1      26.758   0.722  54.046  1.00  0.00     0.201 A 
HETATM    6  C9  UNL     1      25.765   0.113  53.346  1.00  0.00     0.128 A 
HETATM    7  N4  UNL     1      25.807  -1.255  53.000  1.00  0.00    -0.383 N 
HETATM    8  C10 UNL     1      26.622  -2.197  52.310  1.00  0.00     0.120 C 
HETATM    9  C11 UNL     1      27.865  -2.546  53.066  1.00  0.00     0.025 C 
HETATM   10  C12 UNL     1      28.709  -1.394  53.294  1.00  0.00     0.027 C 
HETATM   11  C13 UNL     1      29.830  -0.737  53.136  1.00  0.00     0.001 C 
HETATM   12  C14 UNL     1      30.162   0.557  53.680  1.00  0.00    -0.001 C 
HETATM   13  C15 UNL     1      29.121   1.019  54.416  1.00  0.00     0.140 C 
HETATM   14  O1  UNL     1      27.934   0.272  54.569  1.00  0.00    -0.303 OA
HETATM   15  H6  UNL     1      24.907  -1.627  53.441  1.00  0.00     0.159 HD
ENDROOT
BRANCH   1  16
HETATM   16  N1  UNL     1      23.656   0.230  52.227  1.00  0.00    -0.339 N 
HETATM   17  H4  UNL     1      23.845  -0.103  51.234  1.00  0.00     0.167 HD
BRANCH  16  18
HETATM   18  C5  UNL     1      22.334  -0.093  52.609  1.00  0.00     0.035 A 
HETATM   19  C4  UNL     1      22.030  -0.841  53.753  1.00  0.00     0.029 A 
HETATM   20  C3  UNL     1      20.752  -1.159  54.138  1.00  0.00     0.004 A 
HETATM   21  C2  UNL     1      19.676  -0.742  53.392  1.00  0.00     0.019 A 
HETATM   22  C1  UNL     1      19.909  -0.007  52.262  1.00  0.00     0.013 A 
HETATM   23 BR1  UNL     1      18.388   0.543  51.268  1.00  0.00    -0.051 Br
HETATM   24  C16 UNL     1      21.207   0.290  51.912  1.00  0.00     0.048 A 
ENDBRANCH  16  18
ENDBRANCH   1  16
TORSDOF 2
ENDMDL
MODEL 3
REMARK VINA RESULT:      -7.9      4.163      5.622
REMARK  2 active torsions:
REMARK  status: ('A' for Active; 'I' for Inactive)
REMARK    1  A    between atoms: C5_6  and  N1_7 
REMARK    2  A    between atoms: N1_7  and  C6_8 
ROOT
HETATM    1  C6  UNL     1      26.089   2.738  50.814  1.00  0.00     0.160 A 
HETATM    2  N2  UNL     1      27.175   2.485  51.559  1.00  0.00    -0.222 NA
HETATM    3  C7  UNL     1      27.017   1.904  52.752  1.00  0.00     0.238 A 
HETATM    4  N3  UNL     1      25.782   1.597  53.159  1.00  0.00    -0.215 NA
HETATM    5  C8  UNL     1      24.656   1.826  52.458  1.00  0.00     0.201 A 
HETATM    6  C9  UNL     1      24.794   2.416  51.242  1.00  0.00     0.128 A 
HETATM    7  N4  UNL     1      23.694   2.702  50.405  1.00  0.00    -0.383 N 
HETATM    8  C10 UNL     1      22.595   2.061  49.765  1.00  0.00     0.120 C 
HETATM    9  C11 UNL     1      21.518   1.668  50.726  1.00  0.00     0.025 C 
HETATM   10  C12 UNL     1      21.989   0.731  51.723  1.00  0.00     0.027 C 
HETATM   11  C13 UNL     1      21.966  -0.441  52.305  1.00  0.00     0.001 C 
HETATM   12  C14 UNL     1      22.774  -0.872  53.419  1.00  0.00    -0.001 C 
HETATM   13  C15 UNL     1      23.586   0.141  53.809  1.00  0.00     0.140 C 
HETATM   14  O1  UNL     1      23.570   1.394  53.160  1.00  0.00    -0.303 OA
HETATM   15  H6  UNL     1      23.788   3.757  50.260  1.00  0.00     0.159 HD
ENDROOT
BRANCH   1  16
HETATM   16  N1  UNL     1      26.199   3.349  49.547  1.00  0.00    -0.339 N 
HETATM   17  H4  UNL     1      25.925   2.809  48.672  1.00  0.00     0.167 HD
BRANCH  16  18
HETATM   18  C5  UNL     1      26.644   4.646  49.203  1.00  0.00     0.035 A 
HETATM   19  C4  UNL     1      27.864   4.890  48.561  1.00  0.00     0.029 A 
HETATM   20  C3  UNL     1      28.307   6.142  48.217  1.00  0.00     0.004 A 
HETATM   21  C2  UNL     1      27.545   7.251  48.497  1.00  0.00     0.019 A 
HETATM   22  C1  UNL     1      26.342   7.077  49.124  1.00  0.00     0.013 A 
HETATM   23 BR1  UNL     1      25.331   8.641  49.487  1.00  0.00    -0.051 Br
HETATM   24  C16 UNL     1      25.936   5.803  49.451  1.00  0.00     0.048 A 
ENDBRANCH  16  18
ENDBRANCH   1  16
TORSDOF 2
ENDMDL
MODEL 4
REMARK VINA RESULT:      -7.9      1.239      2.834
REMARK  2 active torsions:
REMARK  status: ('A' for Active; 'I' for Inactive)
REMARK    1  A    between atoms: C5_6  and  N1_7 
REMARK    2  A    between atoms: N1_7  and  C6_8 
ROOT
HETATM    1  C6  UNL     1      23.766  -0.027  53.160  1.00  0.00     0.160 A 
HETATM    2  N2  UNL     1      23.835  -0.809  54.249  1.00  0.00    -0.222 NA
HETATM    3  C7  UNL     1      22.714  -1.074  54.924  1.00  0.00     0.238 A 
HETATM    4  N3  UNL     1      21.563  -0.551  54.490  1.00  0.00    -0.215 NA
HETATM    5  C8  UNL     1      21.430   0.238  53.408  1.00  0.00     0.201 A 
HETATM    6  C9  UNL     1      22.559   0.521  52.706  1.00  0.00     0.128 A 
HETATM    7  N4  UNL     1      22.554   1.328  51.548  1.00  0.00    -0.383 N 
HETATM    8  C10 UNL     1      21.953   1.411  50.261  1.00  0.00     0.120 C 
HETATM    9  C11 UNL     1      20.515   1.820  50.321  1.00  0.00     0.025 C 
HETATM   10  C12 UNL     1      19.709   0.880  51.067  1.00  0.00     0.027 C 
HETATM   11  C13 UNL     1      18.737   0.007  51.151  1.00  0.00     0.001 C 
HETATM   12  C14 UNL     1      18.322  -0.719  52.327  1.00  0.00    -0.001 C 
HETATM   13  C15 UNL     1      19.094  -0.355  53.380  1.00  0.00     0.140 C 
HETATM   14  O1  UNL     1      20.125   0.599  53.247  1.00  0.00    -0.303 OA
HETATM   15  H6  UNL     1      23.242   2.104  51.811  1.00  0.00     0.159 HD
ENDROOT
BRANCH   1  16
HETATM   16  N1  UNL     1      24.920   0.284  52.411  1.00  0.00    -0.339 N 
HETATM   17  H4  UNL     1      24.883   0.265  51.347  1.00  0.00     0.167 HD
BRANCH  16  18
HETATM   18  C5  UNL     1      26.215   0.642  52.849  1.00  0.00     0.035 A 
HETATM   19  C4  UNL     1      26.576   1.954  53.175  1.00  0.00     0.029 A 
HETATM   20  C3  UNL     1      27.827   2.317  53.606  1.00  0.00     0.004 A 
HETATM   21  C2  UNL     1      28.816   1.372  53.743  1.00  0.00     0.019 A 
HETATM   22  C1  UNL     1      28.524   0.070  53.440  1.00  0.00     0.013 A 
HETATM   23 BR1  UNL     1      29.925  -1.193  53.647  1.00  0.00    -0.051 Br
HETATM   24  C16 UNL     1      27.255  -0.249  53.011  1.00  0.00     0.048 A 
ENDBRANCH  16  18
ENDBRANCH   1  16
TORSDOF 2
ENDMDL
MODEL 5
REMARK VINA RESULT:      -7.7      3.554      4.764
REMARK  2 active torsions:
REMARK  status: ('A' for Active; 'I' for Inactive)
REMARK    1  A    between atoms: C5_6  and  N1_7 
REMARK    2  A    between atoms: N1_7  and  C6_8 
ROOT
HETATM    1  C6  UNL     1      23.431   3.299  51.596  1.00  0.00     0.160 A 
HETATM    2  N2  UNL     1      22.278   3.825  51.155  1.00  0.00    -0.222 NA
HETATM    3  C7  UNL     1      21.188   3.054  51.123  1.00  0.00     0.238 A 
HETATM    4  N3  UNL     1      21.285   1.785  51.532  1.00  0.00    -0.215 NA
HETATM    5  C8  UNL     1      22.411   1.201  51.983  1.00  0.00     0.201 A 
HETATM    6  C9  UNL     1      23.532   1.969  52.024  1.00  0.00     0.128 A 
HETATM    7  N4  UNL     1      24.773   1.479  52.485  1.00  0.00    -0.383 N 
HETATM    8  C10 UNL     1      25.367   0.873  53.628  1.00  0.00     0.120 C 
HETATM    9  C11 UNL     1      24.955  -0.554  53.804  1.00  0.00     0.025 C 
HETATM   10  C12 UNL     1      23.527  -0.692  53.988  1.00  0.00     0.027 C 
HETATM   11  C13 UNL     1      22.485  -1.035  54.702  1.00  0.00     0.001 C 
HETATM   12  C14 UNL     1      21.099  -0.942  54.313  1.00  0.00    -0.001 C 
HETATM   13  C15 UNL     1      21.013  -0.443  53.055  1.00  0.00     0.140 C 
HETATM   14  O1  UNL     1      22.165  -0.097  52.317  1.00  0.00    -0.303 OA
HETATM   15  H6  UNL     1      25.410   1.650  51.643  1.00  0.00     0.159 HD
ENDROOT
BRANCH   1  16
HETATM   16  N1  UNL     1      24.611   4.069  51.650  1.00  0.00    -0.339 N 
HETATM   17  H4  UNL     1      25.013   4.358  52.592  1.00  0.00     0.167 HD
BRANCH  16  18
HETATM   18  C5  UNL     1      25.418   4.565  50.600  1.00  0.00     0.035 A 
HETATM   19  C4  UNL     1      26.415   3.806  49.978  1.00  0.00     0.029 A 
HETATM   20  C3  UNL     1      27.203   4.272  48.956  1.00  0.00     0.004 A 
HETATM   21  C2  UNL     1      27.039   5.551  48.480  1.00  0.00     0.019 A 
HETATM   22  C1  UNL     1      26.079   6.343  49.048  1.00  0.00     0.013 A 
HETATM   23 BR1  UNL     1      25.896   8.100  48.353  1.00  0.00    -0.051 Br
HETATM   24  C16 UNL     1      25.311   5.834  50.071  1.00  0.00     0.048 A 
ENDBRANCH  16  18
ENDBRANCH   1  16
TORSDOF 2
ENDMDL
MODEL 6
REMARK VINA RESULT:      -7.6      4.129      6.764
REMARK  2 active torsions:
REMARK  status: ('A' for Active; 'I' for Inactive)
REMARK    1  A    between atoms: C5_6  and  N1_7 
REMARK    2  A    between atoms: N1_7  and  C6_8 
ROOT
HETATM    1  C6  UNL     1      23.663   3.604  51.020  1.00  0.00     0.160 A 
HETATM    2  N2  UNL     1      22.512   4.137  51.456  1.00  0.00    -0.222 NA
HETATM    3  C7  UNL     1      22.395   5.467  51.503  1.00  0.00     0.238 A 
HETATM    4  N3  UNL     1      23.430   6.218  51.115  1.00  0.00    -0.215 NA
HETATM    5  C8  UNL     1      24.607   5.743  50.669  1.00  0.00     0.201 A 
HETATM    6  C9  UNL     1      24.748   4.392  50.613  1.00  0.00     0.128 A 
HETATM    7  N4  UNL     1      25.928   3.768  50.156  1.00  0.00    -0.383 N 
HETATM    8  C10 UNL     1      26.786   3.721  49.020  1.00  0.00     0.120 C 
HETATM    9  C11 UNL     1      27.610   4.961  48.869  1.00  0.00     0.025 C 
HETATM   10  C12 UNL     1      26.795   6.142  48.692  1.00  0.00     0.027 C 
HETATM   11  C13 UNL     1      26.389   7.168  47.987  1.00  0.00     0.001 C 
HETATM   12  C14 UNL     1      25.418   8.160  48.379  1.00  0.00    -0.001 C 
HETATM   13  C15 UNL     1      24.969   7.886  49.628  1.00  0.00     0.140 C 
HETATM   14  O1  UNL     1      25.442   6.775  50.357  1.00  0.00    -0.303 OA
HETATM   15  H6  UNL     1      26.201   3.161  50.993  1.00  0.00     0.159 HD
ENDROOT
BRANCH   1  16
HETATM   16  N1  UNL     1      23.840   2.206  50.949  1.00  0.00    -0.339 N 
HETATM   17  H4  UNL     1      23.832   1.717  50.004  1.00  0.00     0.167 HD
BRANCH  16  18
HETATM   18  C5  UNL     1      24.039   1.265  51.985  1.00  0.00     0.035 A 
HETATM   19  C4  UNL     1      25.308   0.873  52.427  1.00  0.00     0.029 A 
HETATM   20  C3  UNL     1      25.518  -0.035  53.434  1.00  0.00     0.004 A 
HETATM   21  C2  UNL     1      24.453  -0.619  54.076  1.00  0.00     0.019 A 
HETATM   22  C1  UNL     1      23.186  -0.276  53.689  1.00  0.00     0.013 A 
HETATM   23 BR1  UNL     1      21.752  -1.113  54.609  1.00  0.00    -0.051 Br
HETATM   24  C16 UNL     1      23.022   0.640  52.674  1.00  0.00     0.048 A 
ENDBRANCH  16  18
ENDBRANCH   1  16
TORSDOF 2
ENDMDL
MODEL 7
REMARK VINA RESULT:      -7.5      3.912      6.534
REMARK  2 active torsions:
REMARK  status: ('A' for Active; 'I' for Inactive)
REMARK    1  A    between atoms: C5_6  and  N1_7 
REMARK    2  A    between atoms: N1_7  and  C6_8 
ROOT
HETATM    1  C6  UNL     1      24.120   3.592  51.100  1.00  0.00     0.160 A 
HETATM    2  N2  UNL     1      22.913   3.813  51.642  1.00  0.00    -0.222 NA
HETATM    3  C7  UNL     1      22.484   5.071  51.768  1.00  0.00     0.238 A 
HETATM    4  N3  UNL     1      23.274   6.065  51.348  1.00  0.00    -0.215 NA
HETATM    5  C8  UNL     1      24.491   5.907  50.798  1.00  0.00     0.201 A 
HETATM    6  C9  UNL     1      24.948   4.633  50.661  1.00  0.00     0.128 A 
HETATM    7  N4  UNL     1      26.203   4.332  50.091  1.00  0.00    -0.383 N 
HETATM    8  C10 UNL     1      26.953   4.534  48.898  1.00  0.00     0.120 C 
HETATM    9  C11 UNL     1      27.441   5.941  48.755  1.00  0.00     0.025 C 
HETATM   10  C12 UNL     1      26.354   6.893  48.697  1.00  0.00     0.027 C 
HETATM   11  C13 UNL     1      25.658   7.813  48.077  1.00  0.00     0.001 C 
HETATM   12  C14 UNL     1      24.512   8.525  48.586  1.00  0.00    -0.001 C 
HETATM   13  C15 UNL     1      24.244   8.108  49.848  1.00  0.00     0.140 C 
HETATM   14  O1  UNL     1      25.026   7.120  50.483  1.00  0.00    -0.303 OA
HETATM   15  H6  UNL     1      26.680   3.781  50.874  1.00  0.00     0.159 HD
ENDROOT
BRANCH   1  16
HETATM   16  N1  UNL     1      24.621   2.282  50.944  1.00  0.00    -0.339 N 
HETATM   17  H4  UNL     1      24.785   1.889  49.969  1.00  0.00     0.167 HD
BRANCH  16  18
HETATM   18  C5  UNL     1      24.970   1.324  51.924  1.00  0.00     0.035 A 
HETATM   19  C4  UNL     1      24.024   0.659  52.713  1.00  0.00     0.029 A 
HETATM   20  C3  UNL     1      24.346  -0.276  53.664  1.00  0.00     0.004 A 
HETATM   21  C2  UNL     1      25.659  -0.614  53.890  1.00  0.00     0.019 A 
HETATM   22  C1  UNL     1      26.631   0.002  53.149  1.00  0.00     0.013 A 
HETATM   23 BR1  UNL     1      28.426  -0.502  53.502  1.00  0.00    -0.051 Br
HETATM   24  C16 UNL     1      26.262   0.934  52.205  1.00  0.00     0.048 A 
ENDBRANCH  16  18
ENDBRANCH   1  16
TORSDOF 2
ENDMDL
MODEL 8
REMARK VINA RESULT:      -7.4      3.697      4.974
REMARK  2 active torsions:
REMARK  status: ('A' for Active; 'I' for Inactive)
REMARK    1  A    between atoms: C5_6  and  N1_7 
REMARK    2  A    between atoms: N1_7  and  C6_8 
ROOT
HETATM    1  C6  UNL     1      25.966   3.092  50.880  1.00  0.00     0.160 A 
HETATM    2  N2  UNL     1      27.057   3.304  50.127  1.00  0.00    -0.222 NA
HETATM    3  C7  UNL     1      27.006   4.230  49.166  1.00  0.00     0.238 A 
HETATM    4  N3  UNL     1      25.870   4.913  48.990  1.00  0.00    -0.215 NA
HETATM    5  C8  UNL     1      24.746   4.746  49.711  1.00  0.00     0.201 A 
HETATM    6  C9  UNL     1      24.776   3.808  50.694  1.00  0.00     0.128 A 
HETATM    7  N4  UNL     1      23.668   3.542  51.527  1.00  0.00    -0.383 N 
HETATM    8  C10 UNL     1      22.781   4.195  52.429  1.00  0.00     0.120 C 
HETATM    9  C11 UNL     1      21.802   5.085  51.731  1.00  0.00     0.025 C 
HETATM   10  C12 UNL     1      22.454   6.144  50.993  1.00  0.00     0.027 C 
HETATM   11  C13 UNL     1      22.699   7.409  50.766  1.00  0.00     0.001 C 
HETATM   12  C14 UNL     1      23.551   7.958  49.739  1.00  0.00    -0.001 C 
HETATM   13  C15 UNL     1      24.077   6.949  49.001  1.00  0.00     0.140 C 
HETATM   14  O1  UNL     1      23.777   5.598  49.273  1.00  0.00    -0.303 OA
HETATM   15  H6  UNL     1      23.506   2.498  51.361  1.00  0.00     0.159 HD
ENDROOT
BRANCH   1  16
HETATM   16  N1  UNL     1      25.966   2.126  51.908  1.00  0.00    -0.339 N 
HETATM   17  H4  UNL     1      25.043   1.742  52.274  1.00  0.00     0.167 HD
BRANCH  16  18
HETATM   18  C5  UNL     1      27.050   1.532  52.592  1.00  0.00     0.035 A 
HETATM   19  C4  UNL     1      27.936   2.258  53.396  1.00  0.00     0.029 A 
HETATM   20  C3  UNL     1      28.991   1.695  54.070  1.00  0.00     0.004 A 
HETATM   21  C2  UNL     1      29.231   0.345  53.982  1.00  0.00     0.019 A 
HETATM   22  C1  UNL     1      28.399  -0.419  53.211  1.00  0.00     0.013 A 
HETATM   23 BR1  UNL     1      28.776  -2.277  53.125  1.00  0.00    -0.051 Br
HETATM   24  C16 UNL     1      27.353   0.187  52.552  1.00  0.00     0.048 A 
ENDBRANCH  16  18
ENDBRANCH   1  16
TORSDOF 2
ENDMDL
MODEL 9
REMARK VINA RESULT:      -7.2      4.225      6.219
REMARK  2 active torsions:
REMARK  status: ('A' for Active; 'I' for Inactive)
REMARK    1  A    between atoms: C5_6  and  N1_7 
REMARK    2  A    between atoms: N1_7  and  C6_8 
ROOT
HETATM    1  C6  UNL     1      23.999   4.876  51.083  1.00  0.00     0.160 A 
HETATM    2  N2  UNL     1      22.724   5.270  51.221  1.00  0.00    -0.222 NA
HETATM    3  C7  UNL     1      21.785   4.347  51.444  1.00  0.00     0.238 A 
HETATM    4  N3  UNL     1      22.151   3.063  51.522  1.00  0.00    -0.215 NA
HETATM    5  C8  UNL     1      23.410   2.607  51.392  1.00  0.00     0.201 A 
HETATM    6  C9  UNL     1      24.382   3.531  51.164  1.00  0.00     0.128 A 
HETATM    7  N4  UNL     1      25.742   3.184  51.018  1.00  0.00    -0.383 N 
HETATM    8  C10 UNL     1      26.794   2.517  51.709  1.00  0.00     0.120 C 
HETATM    9  C11 UNL     1      26.615   1.032  51.734  1.00  0.00     0.025 C 
HETATM   10  C12 UNL     1      25.397   0.639  52.407  1.00  0.00     0.027 C 
HETATM   11  C13 UNL     1      24.759   0.029  53.374  1.00  0.00     0.001 C 
HETATM   12  C14 UNL     1      23.330  -0.046  53.559  1.00  0.00    -0.001 C 
HETATM   13  C15 UNL     1      22.708   0.616  52.553  1.00  0.00     0.140 C 
HETATM   14  O1  UNL     1      23.435   1.251  51.524  1.00  0.00    -0.303 OA
HETATM   15  H6  UNL     1      25.974   3.581  50.052  1.00  0.00     0.159 HD
ENDROOT
BRANCH   1  16
HETATM   16  N1  UNL     1      25.030   5.810  50.846  1.00  0.00    -0.339 N 
HETATM   17  H4  UNL     1      25.661   6.117  51.645  1.00  0.00     0.167 HD
BRANCH  16  18
HETATM   18  C5  UNL     1      25.403   6.461  49.648  1.00  0.00     0.035 A 
HETATM   19  C4  UNL     1      24.490   7.132  48.826  1.00  0.00     0.029 A 
HETATM   20  C3  UNL     1      24.837   7.773  47.664  1.00  0.00     0.004 A 
HETATM   21  C2  UNL     1      26.145   7.785  47.241  1.00  0.00     0.019 A 
HETATM   22  C1  UNL     1      27.085   7.147  48.002  1.00  0.00     0.013 A 
HETATM   23 BR1  UNL     1      28.875   7.195  47.372  1.00  0.00    -0.051 Br
HETATM   24  C16 UNL     1      26.692   6.516  49.161  1.00  0.00     0.048 A 
ENDBRANCH  16  18
ENDBRANCH   1  16
TORSDOF 2
ENDMDL
