MODEL 1
REMARK VINA RESULT:      -7.0      0.000      0.000
REMARK  8 active torsions:
REMARK  status: ('A' for Active; 'I' for Inactive)
REMARK    1  A    between atoms: C2_3  and  C3_4 
REMARK    2  A    between atoms: C3_4  and  N1_5 
REMARK    3  A    between atoms: N1_5  and  C4_6 
REMARK    4  A    between atoms: C7_11  and  C8_12 
REMARK    5  A    between atoms: N4_16  and  C12_17 
REMARK    6  A    between atoms: C12_17  and  C13_18 
REMARK    7  A    between atoms: C13_18  and  C14_19 
REMARK    8  A    between atoms: C14_19  and  N5_20 
ROOT
HETATM    1  C8  UNL     1      24.798   0.098  52.987  1.00  0.00     0.261 C 
HETATM    2  C9  UNL     1      25.937  -0.873  53.042  1.00  0.00     0.042 C 
HETATM    3  C10 UNL     1      27.020   0.093  52.538  1.00  0.00     0.033 C 
HETATM    4  C11 UNL     1      26.773   1.188  53.556  1.00  0.00     0.273 C 
HETATM    5  N4  UNL     1      25.312   1.350  53.492  1.00  0.00     0.097 N 
ENDROOT
BRANCH   1   6
HETATM    6  C7  UNL     1      23.517  -0.328  53.468  1.00  0.00     0.038 A 
HETATM    7  C4  UNL     1      22.267  -0.121  52.923  1.00  0.00     0.135 A 
HETATM    8  N2  UNL     1      21.142  -0.564  53.463  1.00  0.00    -0.224 NA
HETATM    9  C5  UNL     1      21.173  -1.260  54.605  1.00  0.00     0.234 A 
HETATM   10  N3  UNL     1      22.337  -1.519  55.220  1.00  0.00    -0.253 NA
HETATM   11  C6  UNL     1      23.475  -1.066  54.669  1.00  0.00     0.131 A 
BRANCH   7  12
HETATM   12  N1  UNL     1      22.198   0.618  51.715  1.00  0.00    -0.371 N 
HETATM   13  H5  UNL     1      22.897   1.270  51.301  1.00  0.00     0.161 HD
BRANCH  12  14
HETATM   14  C3  UNL     1      21.020   0.519  50.875  1.00  0.00     0.149 C 
BRANCH  14  15
HETATM   15  C2  UNL     1      21.365   0.872  49.467  1.00  0.00     0.004 C 
HETATM   16  C1  UNL     1      22.201   1.823  49.152  1.00  0.00     0.082 C 
HETATM   17 CL1  UNL     1      22.528   2.144  47.461  1.00  0.00    -0.097 Cl
ENDBRANCH  14  15
ENDBRANCH  12  14
ENDBRANCH   7  12
ENDBRANCH   1   6
BRANCH   5  18
HETATM   18  C12 UNL     1      25.117   2.469  52.552  1.00  0.00     0.275 C 
BRANCH  18  19
HETATM   19  C13 UNL     1      24.140   3.460  53.088  1.00  0.00     0.060 C 
BRANCH  19  20
HETATM   20  C14 UNL     1      23.193   4.064  52.123  1.00  0.00     0.274 C 
BRANCH  20  21
HETATM   21  N5  UNL     1      23.440   5.385  51.658  1.00  0.00     0.088 N 
HETATM   22  C15 UNL     1      22.164   5.981  51.143  1.00  0.00     0.272 C 
HETATM   23  C16 UNL     1      22.514   7.310  50.510  1.00  0.00     0.030 C 
HETATM   24  C17 UNL     1      23.894   7.770  50.931  1.00  0.00     0.003 C 
HETATM   25  C18 UNL     1      24.987   6.787  50.518  1.00  0.00     0.030 C 
HETATM   26  C19 UNL     1      24.269   5.443  50.438  1.00  0.00     0.272 C 
ENDBRANCH  20  21
ENDBRANCH  19  20
ENDBRANCH  18  19
ENDBRANCH   5  18
TORSDOF 8
ENDMDL
MODEL 2
REMARK VINA RESULT:      -6.9      2.813      7.211
REMARK  8 active torsions:
REMARK  status: ('A' for Active; 'I' for Inactive)
REMARK    1  A    between atoms: C2_3  and  C3_4 
REMARK    2  A    between atoms: C3_4  and  N1_5 
REMARK    3  A    between atoms: N1_5  and  C4_6 
REMARK    4  A    between atoms: C7_11  and  C8_12 
REMARK    5  A    between atoms: N4_16  and  C12_17 
REMARK    6  A    between atoms: C12_17  and  C13_18 
REMARK    7  A    between atoms: C13_18  and  C14_19 
REMARK    8  A    between atoms: C14_19  and  N5_20 
ROOT
HETATM    1  C8  UNL     1      23.563   3.457  50.985  1.00  0.00     0.261 C 
HETATM    2  C9  UNL     1      22.352   2.787  50.415  1.00  0.00     0.042 C 
HETATM    3  C10 UNL     1      22.685   1.370  50.907  1.00  0.00     0.033 C 
HETATM    4  C11 UNL     1      22.864   1.723  52.369  1.00  0.00     0.273 C 
HETATM    5  N4  UNL     1      23.756   2.891  52.300  1.00  0.00     0.097 N 
ENDROOT
BRANCH   1   6
HETATM    6  C7  UNL     1      23.677   4.880  50.860  1.00  0.00     0.038 A 
HETATM    7  C4  UNL     1      24.790   5.647  50.584  1.00  0.00     0.135 A 
HETATM    8  N2  UNL     1      24.773   6.968  50.494  1.00  0.00    -0.224 NA
HETATM    9  C5  UNL     1      23.631   7.641  50.673  1.00  0.00     0.234 A 
HETATM   10  N3  UNL     1      22.488   6.993  50.946  1.00  0.00    -0.253 NA
HETATM   11  C6  UNL     1      22.510   5.653  51.037  1.00  0.00     0.131 A 
BRANCH   7  12
HETATM   12  N1  UNL     1      26.018   4.965  50.394  1.00  0.00    -0.371 N 
HETATM   13  H5  UNL     1      26.719   4.661  51.102  1.00  0.00     0.161 HD
BRANCH  12  14
HETATM   14  C3  UNL     1      26.444   4.609  49.054  1.00  0.00     0.149 C 
BRANCH  14  15
HETATM   15  C2  UNL     1      27.410   5.623  48.539  1.00  0.00     0.004 C 
HETATM   16  C1  UNL     1      28.660   5.353  48.275  1.00  0.00     0.082 C 
HETATM   17 CL1  UNL     1      29.699   6.628  47.672  1.00  0.00    -0.097 Cl
ENDBRANCH  14  15
ENDBRANCH  12  14
ENDBRANCH   7  12
ENDBRANCH   1   6
BRANCH   5  18
HETATM   18  C12 UNL     1      25.103   2.324  52.488  1.00  0.00     0.275 C 
BRANCH  18  19
HETATM   19  C13 UNL     1      25.063   1.109  53.351  1.00  0.00     0.060 C 
BRANCH  19  20
HETATM   20  C14 UNL     1      25.875  -0.052  52.922  1.00  0.00     0.274 C 
BRANCH  20  21
HETATM   21  N5  UNL     1      27.272  -0.045  53.185  1.00  0.00     0.088 N 
HETATM   22  C15 UNL     1      27.828  -1.422  52.977  1.00  0.00     0.272 C 
HETATM   23  C16 UNL     1      29.271  -1.396  53.433  1.00  0.00     0.030 C 
HETATM   24  C17 UNL     1      29.777   0.025  53.567  1.00  0.00     0.003 C 
HETATM   25  C18 UNL     1      28.981   0.832  54.589  1.00  0.00     0.030 C 
HETATM   26  C19 UNL     1      27.610   0.163  54.608  1.00  0.00     0.272 C 
ENDBRANCH  20  21
ENDBRANCH  19  20
ENDBRANCH  18  19
ENDBRANCH   5  18
TORSDOF 8
ENDMDL
MODEL 3
REMARK VINA RESULT:      -6.8      2.525      4.733
REMARK  8 active torsions:
REMARK  status: ('A' for Active; 'I' for Inactive)
REMARK    1  A    between atoms: C2_3  and  C3_4 
REMARK    2  A    between atoms: C3_4  and  N1_5 
REMARK    3  A    between atoms: N1_5  and  C4_6 
REMARK    4  A    between atoms: C7_11  and  C8_12 
REMARK    5  A    between atoms: N4_16  and  C12_17 
REMARK    6  A    between atoms: C12_17  and  C13_18 
REMARK    7  A    between atoms: C13_18  and  C14_19 
REMARK    8  A    between atoms: C14_19  and  N5_20 
ROOT
HETATM    1  C8  UNL     1      25.711   2.035  51.824  1.00  0.00     0.261 C 
HETATM    2  C9  UNL     1      26.476   2.598  50.667  1.00  0.00     0.042 C 
HETATM    3  C10 UNL     1      25.277   3.248  49.960  1.00  0.00     0.033 C 
HETATM    4  C11 UNL     1      24.788   4.059  51.142  1.00  0.00     0.273 C 
HETATM    5  N4  UNL     1      24.770   3.058  52.220  1.00  0.00     0.097 N 
ENDROOT
BRANCH   1   6
HETATM    6  C7  UNL     1      26.441   1.375  52.866  1.00  0.00     0.038 A 
HETATM    7  C4  UNL     1      26.136   0.213  53.545  1.00  0.00     0.135 A 
HETATM    8  N2  UNL     1      26.893  -0.305  54.500  1.00  0.00    -0.224 NA
HETATM    9  C5  UNL     1      28.030   0.300  54.860  1.00  0.00     0.234 A 
HETATM   10  N3  UNL     1      28.422   1.437  54.265  1.00  0.00    -0.253 NA
HETATM   11  C6  UNL     1      27.650   1.959  53.297  1.00  0.00     0.131 A 
BRANCH   7  12
HETATM   12  N1  UNL     1      24.935  -0.450  53.191  1.00  0.00    -0.371 N 
HETATM   13  H5  UNL     1      24.614  -0.778  52.256  1.00  0.00     0.161 HD
BRANCH  12  14
HETATM   14  C3  UNL     1      23.949  -0.749  54.212  1.00  0.00     0.149 C 
BRANCH  14  15
HETATM   15  C2  UNL     1      22.586  -0.800  53.607  1.00  0.00     0.004 C 
HETATM   16  C1  UNL     1      21.554  -0.179  54.112  1.00  0.00     0.082 C 
HETATM   17 CL1  UNL     1      20.003  -0.313  53.310  1.00  0.00    -0.097 Cl
ENDBRANCH  14  15
ENDBRANCH  12  14
ENDBRANCH   7  12
ENDBRANCH   1   6
BRANCH   5  18
HETATM   18  C12 UNL     1      23.378   2.577  52.240  1.00  0.00     0.275 C 
BRANCH  18  19
HETATM   19  C13 UNL     1      22.413   3.714  52.219  1.00  0.00     0.060 C 
BRANCH  19  20
HETATM   20  C14 UNL     1      21.389   3.711  51.149  1.00  0.00     0.274 C 
BRANCH  20  21
HETATM   21  N5  UNL     1      21.692   3.076  49.913  1.00  0.00     0.088 N 
HETATM   22  C15 UNL     1      21.575   4.070  48.797  1.00  0.00     0.272 C 
HETATM   23  C16 UNL     1      21.737   3.308  47.500  1.00  0.00     0.030 C 
HETATM   24  C17 UNL     1      22.332   1.937  47.742  1.00  0.00     0.003 C 
HETATM   25  C18 UNL     1      21.457   1.075  48.648  1.00  0.00     0.030 C 
HETATM   26  C19 UNL     1      20.682   2.085  49.490  1.00  0.00     0.272 C 
ENDBRANCH  20  21
ENDBRANCH  19  20
ENDBRANCH  18  19
ENDBRANCH   5  18
TORSDOF 8
ENDMDL
MODEL 4
REMARK VINA RESULT:      -6.8      2.756      5.178
REMARK  8 active torsions:
REMARK  status: ('A' for Active; 'I' for Inactive)
REMARK    1  A    between atoms: C2_3  and  C3_4 
REMARK    2  A    between atoms: C3_4  and  N1_5 
REMARK    3  A    between atoms: N1_5  and  C4_6 
REMARK    4  A    between atoms: C7_11  and  C8_12 
REMARK    5  A    between atoms: N4_16  and  C12_17 
REMARK    6  A    between atoms: C12_17  and  C13_18 
REMARK    7  A    between atoms: C13_18  and  C14_19 
REMARK    8  A    between atoms: C14_19  and  N5_20 
ROOT
HETATM    1  C8  UNL     1      21.771   0.899  52.139  1.00  0.00     0.261 C 
HETATM    2  C9  UNL     1      20.928   0.371  51.021  1.00  0.00     0.042 C 
HETATM    3  C10 UNL     1      21.049   1.602  50.110  1.00  0.00     0.033 C 
HETATM    4  C11 UNL     1      22.562   1.664  50.090  1.00  0.00     0.273 C 
HETATM    5  N4  UNL     1      22.898   1.557  51.518  1.00  0.00     0.097 N 
ENDROOT
BRANCH   1   6
HETATM    6  C7  UNL     1      22.046   0.036  53.251  1.00  0.00     0.038 A 
HETATM    7  C4  UNL     1      21.166  -0.573  54.122  1.00  0.00     0.135 A 
HETATM    8  N2  UNL     1      21.540  -1.355  55.123  1.00  0.00    -0.224 NA
HETATM    9  C5  UNL     1      22.838  -1.596  55.340  1.00  0.00     0.234 A 
HETATM   10  N3  UNL     1      23.778  -1.054  54.552  1.00  0.00    -0.253 NA
HETATM   11  C6  UNL     1      23.394  -0.261  53.538  1.00  0.00     0.131 A 
BRANCH   7  12
HETATM   12  N1  UNL     1      19.783  -0.333  53.923  1.00  0.00    -0.371 N 
HETATM   13  H5  UNL     1      19.254   0.561  53.989  1.00  0.00     0.161 HD
BRANCH  12  14
HETATM   14  C3  UNL     1      18.903  -1.434  53.584  1.00  0.00     0.149 C 
BRANCH  14  15
HETATM   15  C2  UNL     1      17.894  -0.991  52.578  1.00  0.00     0.004 C 
HETATM   16  C1  UNL     1      16.659  -1.416  52.567  1.00  0.00     0.082 C 
HETATM   17 CL1  UNL     1      15.565  -0.821  51.335  1.00  0.00    -0.097 Cl
ENDBRANCH  14  15
ENDBRANCH  12  14
ENDBRANCH   7  12
ENDBRANCH   1   6
BRANCH   5  18
HETATM   18  C12 UNL     1      23.055   2.955  51.955  1.00  0.00     0.275 C 
BRANCH  18  19
HETATM   19  C13 UNL     1      24.374   3.169  52.617  1.00  0.00     0.060 C 
BRANCH  19  20
HETATM   20  C14 UNL     1      25.566   2.598  51.951  1.00  0.00     0.274 C 
BRANCH  20  21
HETATM   21  N5  UNL     1      26.339   1.627  52.646  1.00  0.00     0.088 N 
HETATM   22  C15 UNL     1      27.680   2.204  52.987  1.00  0.00     0.272 C 
HETATM   23  C16 UNL     1      28.515   1.084  53.567  1.00  0.00     0.030 C 
HETATM   24  C17 UNL     1      27.651  -0.093  53.966  1.00  0.00     0.003 C 
HETATM   25  C18 UNL     1      26.888  -0.684  52.782  1.00  0.00     0.030 C 
HETATM   26  C19 UNL     1      26.750   0.482  51.807  1.00  0.00     0.272 C 
ENDBRANCH  20  21
ENDBRANCH  19  20
ENDBRANCH  18  19
ENDBRANCH   5  18
TORSDOF 8
ENDMDL
MODEL 5
REMARK VINA RESULT:      -6.6      2.458      3.923
REMARK  8 active torsions:
REMARK  status: ('A' for Active; 'I' for Inactive)
REMARK    1  A    between atoms: C2_3  and  C3_4 
REMARK    2  A    between atoms: C3_4  and  N1_5 
REMARK    3  A    between atoms: N1_5  and  C4_6 
REMARK    4  A    between atoms: C7_11  and  C8_12 
REMARK    5  A    between atoms: N4_16  and  C12_17 
REMARK    6  A    between atoms: C12_17  and  C13_18 
REMARK    7  A    between atoms: C13_18  and  C14_19 
REMARK    8  A    between atoms: C14_19  and  N5_20 
ROOT
HETATM    1  C8  UNL     1      22.077   0.778  52.299  1.00  0.00     0.261 C 
HETATM    2  C9  UNL     1      21.441   0.027  51.171  1.00  0.00     0.042 C 
HETATM    3  C10 UNL     1      21.179   1.244  50.271  1.00  0.00     0.033 C 
HETATM    4  C11 UNL     1      22.600   1.769  50.260  1.00  0.00     0.273 C 
HETATM    5  N4  UNL     1      22.948   1.757  51.689  1.00  0.00     0.097 N 
ENDROOT
BRANCH   1   6
HETATM    6  C7  UNL     1      22.601   0.032  53.404  1.00  0.00     0.038 A 
HETATM    7  C4  UNL     1      21.929  -0.576  54.445  1.00  0.00     0.135 A 
HETATM    8  N2  UNL     1      22.526  -1.243  55.421  1.00  0.00    -0.224 NA
HETATM    9  C5  UNL     1      23.858  -1.360  55.439  1.00  0.00     0.234 A 
HETATM   10  N3  UNL     1      24.610  -0.807  54.475  1.00  0.00    -0.253 NA
HETATM   11  C6  UNL     1      24.000  -0.131  53.487  1.00  0.00     0.131 A 
BRANCH   7  12
HETATM   12  N1  UNL     1      20.516  -0.466  54.458  1.00  0.00    -0.371 N 
HETATM   13  H5  UNL     1      19.920   0.316  54.802  1.00  0.00     0.161 HD
BRANCH  12  14
HETATM   14  C3  UNL     1      19.704  -1.553  53.948  1.00  0.00     0.149 C 
BRANCH  14  15
HETATM   15  C2  UNL     1      18.553  -1.009  53.169  1.00  0.00     0.004 C 
HETATM   16  C1  UNL     1      17.328  -1.440  53.305  1.00  0.00     0.082 C 
HETATM   17 CL1  UNL     1      16.059  -0.721  52.334  1.00  0.00    -0.097 Cl
ENDBRANCH  14  15
ENDBRANCH  12  14
ENDBRANCH   7  12
ENDBRANCH   1   6
BRANCH   5  18
HETATM   18  C12 UNL     1      22.665   3.132  52.138  1.00  0.00     0.275 C 
BRANCH  18  19
HETATM   19  C13 UNL     1      23.911   3.951  52.188  1.00  0.00     0.060 C 
BRANCH  19  20
HETATM   20  C14 UNL     1      23.935   5.195  51.387  1.00  0.00     0.274 C 
BRANCH  20  21
HETATM   21  N5  UNL     1      24.977   5.378  50.437  1.00  0.00     0.088 N 
HETATM   22  C15 UNL     1      24.539   6.365  49.397  1.00  0.00     0.272 C 
HETATM   23  C16 UNL     1      25.609   6.392  48.327  1.00  0.00     0.030 C 
HETATM   24  C17 UNL     1      26.890   5.753  48.818  1.00  0.00     0.003 C 
HETATM   25  C18 UNL     1      26.699   4.289  49.208  1.00  0.00     0.030 C 
HETATM   26  C19 UNL     1      25.224   4.194  49.588  1.00  0.00     0.272 C 
ENDBRANCH  20  21
ENDBRANCH  19  20
ENDBRANCH  18  19
ENDBRANCH   5  18
TORSDOF 8
ENDMDL
MODEL 6
REMARK VINA RESULT:      -6.6      2.882      6.153
REMARK  8 active torsions:
REMARK  status: ('A' for Active; 'I' for Inactive)
REMARK    1  A    between atoms: C2_3  and  C3_4 
REMARK    2  A    between atoms: C3_4  and  N1_5 
REMARK    3  A    between atoms: N1_5  and  C4_6 
REMARK    4  A    between atoms: C7_11  and  C8_12 
REMARK    5  A    between atoms: N4_16  and  C12_17 
REMARK    6  A    between atoms: C12_17  and  C13_18 
REMARK    7  A    between atoms: C13_18  and  C14_19 
REMARK    8  A    between atoms: C14_19  and  N5_20 
ROOT
HETATM    1  C8  UNL     1      23.990   3.430  50.232  1.00  0.00     0.261 C 
HETATM    2  C9  UNL     1      24.535   4.439  49.270  1.00  0.00     0.042 C 
HETATM    3  C10 UNL     1      25.782   4.808  50.087  1.00  0.00     0.033 C 
HETATM    4  C11 UNL     1      26.316   3.400  50.249  1.00  0.00     0.273 C 
HETATM    5  N4  UNL     1      25.123   2.665  50.699  1.00  0.00     0.097 N 
ENDROOT
BRANCH   1   6
HETATM    6  C7  UNL     1      22.813   2.700  49.861  1.00  0.00     0.038 A 
HETATM    7  C4  UNL     1      21.756   2.288  50.646  1.00  0.00     0.135 A 
HETATM    8  N2  UNL     1      20.715   1.611  50.186  1.00  0.00    -0.224 NA
HETATM    9  C5  UNL     1      20.641   1.286  48.891  1.00  0.00     0.234 A 
HETATM   10  N3  UNL     1      21.615   1.638  48.038  1.00  0.00    -0.253 NA
HETATM   11  C6  UNL     1      22.670   2.324  48.509  1.00  0.00     0.131 A 
BRANCH   7  12
HETATM   12  N1  UNL     1      21.806   2.611  52.025  1.00  0.00    -0.371 N 
HETATM   13  H5  UNL     1      22.398   3.313  52.516  1.00  0.00     0.161 HD
BRANCH  12  14
HETATM   14  C3  UNL     1      20.951   1.907  52.961  1.00  0.00     0.149 C 
BRANCH  14  15
HETATM   15  C2  UNL     1      21.621   0.656  53.424  1.00  0.00     0.004 C 
HETATM   16  C1  UNL     1      21.268   0.013  54.503  1.00  0.00     0.082 C 
HETATM   17 CL1  UNL     1      22.131  -1.447  54.944  1.00  0.00    -0.097 Cl
ENDBRANCH  14  15
ENDBRANCH  12  14
ENDBRANCH   7  12
ENDBRANCH   1   6
BRANCH   5  18
HETATM   18  C12 UNL     1      25.241   2.655  52.168  1.00  0.00     0.275 C 
BRANCH  18  19
HETATM   19  C13 UNL     1      25.155   1.267  52.707  1.00  0.00     0.060 C 
BRANCH  19  20
HETATM   20  C14 UNL     1      26.093   0.266  52.150  1.00  0.00     0.274 C 
BRANCH  20  21
HETATM   21  N5  UNL     1      27.400   0.170  52.702  1.00  0.00     0.088 N 
HETATM   22  C15 UNL     1      27.782  -1.274  52.836  1.00  0.00     0.272 C 
HETATM   23  C16 UNL     1      29.099  -1.321  53.580  1.00  0.00     0.030 C 
HETATM   24  C17 UNL     1      29.768   0.037  53.595  1.00  0.00     0.003 C 
HETATM   25  C18 UNL     1      28.914   1.099  54.284  1.00  0.00     0.030 C 
HETATM   26  C19 UNL     1      27.483   0.597  54.113  1.00  0.00     0.272 C 
ENDBRANCH  20  21
ENDBRANCH  19  20
ENDBRANCH  18  19
ENDBRANCH   5  18
TORSDOF 8
ENDMDL
MODEL 7
REMARK VINA RESULT:      -6.5      2.857      6.193
REMARK  8 active torsions:
REMARK  status: ('A' for Active; 'I' for Inactive)
REMARK    1  A    between atoms: C2_3  and  C3_4 
REMARK    2  A    between atoms: C3_4  and  N1_5 
REMARK    3  A    between atoms: N1_5  and  C4_6 
REMARK    4  A    between atoms: C7_11  and  C8_12 
REMARK    5  A    between atoms: N4_16  and  C12_17 
REMARK    6  A    between atoms: C12_17  and  C13_18 
REMARK    7  A    between atoms: C13_18  and  C14_19 
REMARK    8  A    between atoms: C14_19  and  N5_20 
ROOT
HETATM    1  C8  UNL     1      22.880   2.550  52.048  1.00  0.00     0.261 C 
HETATM    2  C9  UNL     1      23.230   4.001  52.163  1.00  0.00     0.042 C 
HETATM    3  C10 UNL     1      24.224   3.853  53.325  1.00  0.00     0.033 C 
HETATM    4  C11 UNL     1      25.105   2.805  52.677  1.00  0.00     0.273 C 
HETATM    5  N4  UNL     1      24.120   1.824  52.196  1.00  0.00     0.097 N 
ENDROOT
BRANCH   1   6
HETATM    6  C7  UNL     1      22.003   2.143  50.990  1.00  0.00     0.038 A 
HETATM    7  C4  UNL     1      20.702   1.688  51.060  1.00  0.00     0.135 A 
HETATM    8  N2  UNL     1      19.985   1.336  50.004  1.00  0.00    -0.224 NA
HETATM    9  C5  UNL     1      20.512   1.410  48.777  1.00  0.00     0.234 A 
HETATM   10  N3  UNL     1      21.770   1.840  48.595  1.00  0.00    -0.253 NA
HETATM   11  C6  UNL     1      22.494   2.196  49.669  1.00  0.00     0.131 A 
BRANCH   7  12
HETATM   12  N1  UNL     1      20.116   1.592  52.347  1.00  0.00    -0.371 N 
HETATM   13  H5  UNL     1      19.919   2.344  53.039  1.00  0.00     0.161 HD
BRANCH  12  14
HETATM   14  C3  UNL     1      19.708   0.297  52.857  1.00  0.00     0.149 C 
BRANCH  14  15
HETATM   15  C2  UNL     1      20.640  -0.143  53.937  1.00  0.00     0.004 C 
HETATM   16  C1  UNL     1      21.274  -1.284  53.915  1.00  0.00     0.082 C 
HETATM   17 CL1  UNL     1      22.345  -1.689  55.241  1.00  0.00    -0.097 Cl
ENDBRANCH  14  15
ENDBRANCH  12  14
ENDBRANCH   7  12
ENDBRANCH   1   6
BRANCH   5  18
HETATM   18  C12 UNL     1      24.067   0.814  53.269  1.00  0.00     0.275 C 
BRANCH  18  19
HETATM   19  C13 UNL     1      25.205  -0.144  53.166  1.00  0.00     0.060 C 
BRANCH  19  20
HETATM   20  C14 UNL     1      26.088  -0.274  54.347  1.00  0.00     0.274 C 
BRANCH  20  21
HETATM   21  N5  UNL     1      27.476  -0.509  54.142  1.00  0.00     0.088 N 
HETATM   22  C15 UNL     1      28.175   0.797  53.904  1.00  0.00     0.272 C 
HETATM   23  C16 UNL     1      29.604   0.477  53.525  1.00  0.00     0.030 C 
HETATM   24  C17 UNL     1      29.957  -0.953  53.878  1.00  0.00     0.003 C 
HETATM   25  C18 UNL     1      29.075  -1.966  53.153  1.00  0.00     0.030 C 
HETATM   26  C19 UNL     1      27.782  -1.205  52.875  1.00  0.00     0.272 C 
ENDBRANCH  20  21
ENDBRANCH  19  20
ENDBRANCH  18  19
ENDBRANCH   5  18
TORSDOF 8
ENDMDL
MODEL 8
REMARK VINA RESULT:      -6.5      2.561      6.066
REMARK  8 active torsions:
REMARK  status: ('A' for Active; 'I' for Inactive)
REMARK    1  A    between atoms: C2_3  and  C3_4 
REMARK    2  A    between atoms: C3_4  and  N1_5 
REMARK    3  A    between atoms: N1_5  and  C4_6 
REMARK    4  A    between atoms: C7_11  and  C8_12 
REMARK    5  A    between atoms: N4_16  and  C12_17 
REMARK    6  A    between atoms: C12_17  and  C13_18 
REMARK    7  A    between atoms: C13_18  and  C14_19 
REMARK    8  A    between atoms: C14_19  and  N5_20 
ROOT
HETATM    1  C8  UNL     1      22.015   3.205  51.886  1.00  0.00     0.261 C 
HETATM    2  C9  UNL     1      21.757   4.671  51.720  1.00  0.00     0.042 C 
HETATM    3  C10 UNL     1      23.154   5.147  52.145  1.00  0.00     0.033 C 
HETATM    4  C11 UNL     1      23.940   4.297  51.168  1.00  0.00     0.273 C 
HETATM    5  N4  UNL     1      23.339   2.968  51.358  1.00  0.00     0.097 N 
ENDROOT
BRANCH   1   6
HETATM    6  C7  UNL     1      20.983   2.285  51.509  1.00  0.00     0.038 A 
HETATM    7  C4  UNL     1      20.497   1.190  52.192  1.00  0.00     0.135 A 
HETATM    8  N2  UNL     1      19.532   0.404  51.738  1.00  0.00    -0.224 NA
HETATM    9  C5  UNL     1      18.966   0.650  50.552  1.00  0.00     0.234 A 
HETATM   10  N3  UNL     1      19.364   1.690  49.804  1.00  0.00    -0.253 NA
HETATM   11  C6  UNL     1      20.343   2.484  50.268  1.00  0.00     0.131 A 
BRANCH   7  12
HETATM   12  N1  UNL     1      21.079   0.899  53.451  1.00  0.00    -0.371 N 
HETATM   13  H5  UNL     1      21.768   1.452  54.002  1.00  0.00     0.161 HD
BRANCH  12  14
HETATM   14  C3  UNL     1      20.729  -0.329  54.140  1.00  0.00     0.149 C 
BRANCH  14  15
HETATM   15  C2  UNL     1      21.940  -0.916  54.785  1.00  0.00     0.004 C 
HETATM   16  C1  UNL     1      23.158  -0.570  54.469  1.00  0.00     0.082 C 
HETATM   17 CL1  UNL     1      24.502  -1.330  55.298  1.00  0.00    -0.097 Cl
ENDBRANCH  14  15
ENDBRANCH  12  14
ENDBRANCH   7  12
ENDBRANCH   1   6
BRANCH   5  18
HETATM   18  C12 UNL     1      24.231   2.307  52.327  1.00  0.00     0.275 C 
BRANCH  18  19
HETATM   19  C13 UNL     1      25.481   1.825  51.670  1.00  0.00     0.060 C 
BRANCH  19  20
HETATM   20  C14 UNL     1      26.749   2.018  52.408  1.00  0.00     0.274 C 
BRANCH  20  21
HETATM   21  N5  UNL     1      27.505   0.872  52.781  1.00  0.00     0.088 N 
HETATM   22  C15 UNL     1      26.806  -0.366  52.305  1.00  0.00     0.272 C 
HETATM   23  C16 UNL     1      27.557  -1.550  52.873  1.00  0.00     0.030 C 
HETATM   24  C17 UNL     1      28.925  -1.141  53.376  1.00  0.00     0.003 C 
HETATM   25  C18 UNL     1      28.849  -0.097  54.488  1.00  0.00     0.030 C 
HETATM   26  C19 UNL     1      27.526   0.621  54.236  1.00  0.00     0.272 C 
ENDBRANCH  20  21
ENDBRANCH  19  20
ENDBRANCH  18  19
ENDBRANCH   5  18
TORSDOF 8
ENDMDL
MODEL 9
REMARK VINA RESULT:      -6.5      2.508      4.418
REMARK  8 active torsions:
REMARK  status: ('A' for Active; 'I' for Inactive)
REMARK    1  A    between atoms: C2_3  and  C3_4 
REMARK    2  A    between atoms: C3_4  and  N1_5 
REMARK    3  A    between atoms: N1_5  and  C4_6 
REMARK    4  A    between atoms: C7_11  and  C8_12 
REMARK    5  A    between atoms: N4_16  and  C12_17 
REMARK    6  A    between atoms: C12_17  and  C13_18 
REMARK    7  A    between atoms: C13_18  and  C14_19 
REMARK    8  A    between atoms: C14_19  and  N5_20 
ROOT
HETATM    1  C8  UNL     1      25.883   2.544  52.707  1.00  0.00     0.261 C 
HETATM    2  C9  UNL     1      24.507   2.775  53.252  1.00  0.00     0.042 C 
HETATM    3  C10 UNL     1      24.012   3.675  52.110  1.00  0.00     0.033 C 
HETATM    4  C11 UNL     1      24.339   2.725  50.976  1.00  0.00     0.273 C 
HETATM    5  N4  UNL     1      25.723   2.334  51.287  1.00  0.00     0.097 N 
ENDROOT
BRANCH   1   6
HETATM    6  C7  UNL     1      26.752   1.647  53.410  1.00  0.00     0.038 A 
HETATM    7  C4  UNL     1      26.564   0.318  53.728  1.00  0.00     0.135 A 
HETATM    8  N2  UNL     1      27.446  -0.416  54.389  1.00  0.00    -0.224 NA
HETATM    9  C5  UNL     1      28.602   0.122  54.792  1.00  0.00     0.234 A 
HETATM   10  N3  UNL     1      28.887   1.408  54.536  1.00  0.00    -0.253 NA
HETATM   11  C6  UNL     1      27.989   2.148  53.865  1.00  0.00     0.131 A 
BRANCH   7  12
HETATM   12  N1  UNL     1      25.346  -0.282  53.319  1.00  0.00    -0.371 N 
HETATM   13  H5  UNL     1      24.952  -0.386  52.361  1.00  0.00     0.161 HD
BRANCH  12  14
HETATM   14  C3  UNL     1      24.454  -0.850  54.312  1.00  0.00     0.149 C 
BRANCH  14  15
HETATM   15  C2  UNL     1      23.052  -0.409  54.051  1.00  0.00     0.004 C 
HETATM   16  C1  UNL     1      22.278  -0.973  53.164  1.00  0.00     0.082 C 
HETATM   17 CL1  UNL     1      20.649  -0.368  52.948  1.00  0.00    -0.097 Cl
ENDBRANCH  14  15
ENDBRANCH  12  14
ENDBRANCH   7  12
ENDBRANCH   1   6
BRANCH   5  18
HETATM   18  C12 UNL     1      26.544   3.251  50.477  1.00  0.00     0.275 C 
BRANCH  18  19
HETATM   19  C13 UNL     1      25.733   3.903  49.408  1.00  0.00     0.060 C 
BRANCH  19  20
HETATM   20  C14 UNL     1      26.117   5.276  49.011  1.00  0.00     0.274 C 
BRANCH  20  21
HETATM   21  N5  UNL     1      25.157   6.318  49.133  1.00  0.00     0.088 N 
HETATM   22  C15 UNL     1      25.152   6.832  50.541  1.00  0.00     0.272 C 
HETATM   23  C16 UNL     1      24.003   7.811  50.656  1.00  0.00     0.030 C 
HETATM   24  C17 UNL     1      23.507   8.235  49.290  1.00  0.00     0.003 C 
HETATM   25  C18 UNL     1      22.996   7.057  48.464  1.00  0.00     0.030 C 
HETATM   26  C19 UNL     1      23.759   5.855  49.017  1.00  0.00     0.272 C 
ENDBRANCH  20  21
ENDBRANCH  19  20
ENDBRANCH  18  19
ENDBRANCH   5  18
TORSDOF 8
ENDMDL
