MODEL 1
REMARK VINA RESULT:      -9.5      0.000      0.000
REMARK  4 active torsions:
REMARK  status: ('A' for Active; 'I' for Inactive)
REMARK    1  A    between atoms: N1_2  and  C3_4 
REMARK    2  A    between atoms: C6_7  and  C7_8 
REMARK    3  A    between atoms: C9_10  and  C10_11 
REMARK    4  A    between atoms: N3_22  and  C18_23 
ROOT
HETATM    1  C7  UNL     1      25.234   1.449  53.373  1.00  0.00     0.145 A 
HETATM    2  C8  UNL     1      24.888   2.785  52.752  1.00  0.00     0.093 A 
HETATM    3  C9  UNL     1      25.763   2.860  51.553  1.00  0.00     0.067 A 
HETATM    4  N2  UNL     1      26.529   1.843  51.480  1.00  0.00    -0.175 NA
HETATM    5  N3  UNL     1      26.303   0.974  52.554  1.00  0.00    -0.260 N 
ENDROOT
BRANCH   3   6
HETATM    6  C10 UNL     1      25.775   3.935  50.569  1.00  0.00    -0.007 A 
HETATM    7  C11 UNL     1      26.850   4.040  49.700  1.00  0.00     0.016 A 
HETATM    8  C12 UNL     1      26.949   5.025  48.734  1.00  0.00     0.040 A 
HETATM    9  C13 UNL     1      25.919   5.936  48.651  1.00  0.00     0.102 A 
HETATM   10  C14 UNL     1      24.823   5.860  49.506  1.00  0.00     0.103 A 
HETATM   11  O2  UNL     1      25.929   6.948  47.724  1.00  0.00    -0.346 OA
HETATM   12  C15 UNL     1      24.751   4.853  50.472  1.00  0.00     0.053 A 
HETATM   13  O1  UNL     1      23.819   6.804  49.372  1.00  0.00    -0.346 OA
HETATM   14  C16 UNL     1      23.984   8.035  48.725  1.00  0.00     0.202 C 
HETATM   15  C17 UNL     1      25.138   8.103  47.778  1.00  0.00     0.202 C 
ENDBRANCH   3   6
BRANCH   1  16
HETATM   16  C6  UNL     1      24.027   0.597  53.363  1.00  0.00    -0.049 A 
HETATM   17  C5  UNL     1      23.752  -0.590  53.826  1.00  0.00     0.007 A 
HETATM   18  C4  UNL     1      22.377  -0.988  53.547  1.00  0.00     0.025 A 
HETATM   19  C3  UNL     1      21.837   0.027  52.891  1.00  0.00     0.010 A 
HETATM   20  C24 UNL     1      22.804   1.139  52.696  1.00  0.00     0.093 A 
BRANCH  19  21
HETATM   21  N1  UNL     1      20.475  -0.041  52.462  1.00  0.00    -0.393 N 
HETATM   22  C1  UNL     1      19.537  -0.632  53.381  1.00  0.00     0.148 C 
HETATM   23  C2  UNL     1      19.894   0.410  51.207  1.00  0.00     0.148 C 
ENDBRANCH  19  21
ENDBRANCH   1  16
BRANCH   5  24
HETATM   24  C18 UNL     1      27.087  -0.196  52.718  1.00  0.00     0.053 A 
HETATM   25  C19 UNL     1      28.340  -0.147  53.287  1.00  0.00     0.031 A 
HETATM   26  C20 UNL     1      29.185  -1.231  53.491  1.00  0.00     0.002 A 
HETATM   27  C21 UNL     1      28.728  -2.470  53.088  1.00  0.00     0.000 A 
HETATM   28  C22 UNL     1      27.469  -2.566  52.509  1.00  0.00     0.002 A 
HETATM   29  C23 UNL     1      26.672  -1.451  52.331  1.00  0.00     0.031 A 
ENDBRANCH   5  24
TORSDOF 4
ENDMDL
MODEL 2
REMARK VINA RESULT:      -9.5      3.325      7.589
REMARK  4 active torsions:
REMARK  status: ('A' for Active; 'I' for Inactive)
REMARK    1  A    between atoms: N1_2  and  C3_4 
REMARK    2  A    between atoms: C6_7  and  C7_8 
REMARK    3  A    between atoms: C9_10  and  C10_11 
REMARK    4  A    between atoms: N3_22  and  C18_23 
ROOT
HETATM    1  C7  UNL     1      24.449   2.390  52.619  1.00  0.00     0.145 A 
HETATM    2  C8  UNL     1      23.154   1.685  52.962  1.00  0.00     0.093 A 
HETATM    3  C9  UNL     1      22.350   1.791  51.717  1.00  0.00     0.067 A 
HETATM    4  N2  UNL     1      22.966   2.465  50.829  1.00  0.00    -0.175 NA
HETATM    5  N3  UNL     1      24.210   2.894  51.306  1.00  0.00    -0.260 N 
ENDROOT
BRANCH   3   6
HETATM    6  C10 UNL     1      21.028   1.215  51.503  1.00  0.00    -0.007 A 
HETATM    7  C11 UNL     1      20.340   1.525  50.339  1.00  0.00     0.016 A 
HETATM    8  C12 UNL     1      19.083   1.027  50.048  1.00  0.00     0.040 A 
HETATM    9  C13 UNL     1      18.505   0.186  50.974  1.00  0.00     0.102 A 
HETATM   10  C14 UNL     1      19.167  -0.147  52.152  1.00  0.00     0.103 A 
HETATM   11  O2  UNL     1      17.261  -0.357  50.773  1.00  0.00    -0.346 OA
HETATM   12  C15 UNL     1      20.437   0.371  52.419  1.00  0.00     0.053 A 
HETATM   13  O1  UNL     1      18.535  -0.998  53.043  1.00  0.00    -0.346 OA
HETATM   14  C16 UNL     1      17.155  -1.241  53.047  1.00  0.00     0.202 C 
HETATM   15  C17 UNL     1      16.452  -0.919  51.768  1.00  0.00     0.202 C 
ENDBRANCH   3   6
BRANCH   1  16
HETATM   16  C6  UNL     1      25.556   1.414  52.711  1.00  0.00    -0.049 A 
HETATM   17  C5  UNL     1      25.725   0.193  52.289  1.00  0.00     0.007 A 
HETATM   18  C4  UNL     1      27.034  -0.342  52.649  1.00  0.00     0.025 A 
HETATM   19  C3  UNL     1      27.645   0.628  53.313  1.00  0.00     0.010 A 
HETATM   20  C24 UNL     1      26.794   1.841  53.431  1.00  0.00     0.093 A 
BRANCH  19  21
HETATM   21  N1  UNL     1      28.968   0.426  53.815  1.00  0.00    -0.393 N 
HETATM   22  C1  UNL     1      29.561   1.525  54.533  1.00  0.00     0.148 C 
HETATM   23  C2  UNL     1      29.813  -0.753  53.702  1.00  0.00     0.148 C 
ENDBRANCH  19  21
ENDBRANCH   1  16
BRANCH   5  24
HETATM   24  C18 UNL     1      25.047   3.719  50.511  1.00  0.00     0.053 A 
HETATM   25  C19 UNL     1      24.764   5.052  50.315  1.00  0.00     0.031 A 
HETATM   26  C20 UNL     1      25.517   5.941  49.557  1.00  0.00     0.002 A 
HETATM   27  C21 UNL     1      26.651   5.445  48.945  1.00  0.00     0.000 A 
HETATM   28  C22 UNL     1      26.975   4.104  49.117  1.00  0.00     0.002 A 
HETATM   29  C23 UNL     1      26.187   3.267  49.883  1.00  0.00     0.031 A 
ENDBRANCH   5  24
TORSDOF 4
ENDMDL
MODEL 3
REMARK VINA RESULT:      -9.1      3.892      7.190
REMARK  4 active torsions:
REMARK  status: ('A' for Active; 'I' for Inactive)
REMARK    1  A    between atoms: N1_2  and  C3_4 
REMARK    2  A    between atoms: C6_7  and  C7_8 
REMARK    3  A    between atoms: C9_10  and  C10_11 
REMARK    4  A    between atoms: N3_22  and  C18_23 
ROOT
HETATM    1  C7  UNL     1      21.833   2.038  51.864  1.00  0.00     0.145 A 
HETATM    2  C8  UNL     1      23.302   2.360  52.034  1.00  0.00     0.093 A 
HETATM    3  C9  UNL     1      23.862   1.141  52.676  1.00  0.00     0.067 A 
HETATM    4  N2  UNL     1      22.947   0.288  52.916  1.00  0.00    -0.175 NA
HETATM    5  N3  UNL     1      21.699   0.767  52.499  1.00  0.00    -0.260 N 
ENDROOT
BRANCH   3   6
HETATM    6  C10 UNL     1      25.264   0.916  53.003  1.00  0.00    -0.007 A 
HETATM    7  C11 UNL     1      26.066   2.003  53.316  1.00  0.00     0.016 A 
HETATM    8  C12 UNL     1      27.405   1.888  53.639  1.00  0.00     0.040 A 
HETATM    9  C13 UNL     1      27.949   0.622  53.642  1.00  0.00     0.102 A 
HETATM   10  C14 UNL     1      27.175  -0.492  53.334  1.00  0.00     0.103 A 
HETATM   11  O2  UNL     1      29.269   0.410  53.951  1.00  0.00    -0.346 OA
HETATM   12  C15 UNL     1      25.823  -0.345  53.012  1.00  0.00     0.053 A 
HETATM   13  O1  UNL     1      27.779  -1.738  53.356  1.00  0.00    -0.346 OA
HETATM   14  C16 UNL     1      29.163  -1.937  53.282  1.00  0.00     0.202 C 
HETATM   15  C17 UNL     1      29.994  -0.751  53.650  1.00  0.00     0.202 C 
ENDBRANCH   3   6
BRANCH   1  16
HETATM   16  C6  UNL     1      21.513   2.042  50.421  1.00  0.00    -0.049 A 
HETATM   17  C5  UNL     1      21.928   1.347  49.400  1.00  0.00     0.007 A 
HETATM   18  C4  UNL     1      21.282   1.752  48.156  1.00  0.00     0.025 A 
HETATM   19  C3  UNL     1      20.453   2.730  48.486  1.00  0.00     0.010 A 
HETATM   20  C24 UNL     1      20.498   3.029  49.942  1.00  0.00     0.093 A 
BRANCH  19  21
HETATM   21  N1  UNL     1      19.653   3.359  47.482  1.00  0.00    -0.393 N 
HETATM   22  C1  UNL     1      20.344   4.196  46.536  1.00  0.00     0.148 C 
HETATM   23  C2  UNL     1      18.215   3.271  47.278  1.00  0.00     0.148 C 
ENDBRANCH  19  21
ENDBRANCH   1  16
BRANCH   5  24
HETATM   24  C18 UNL     1      20.519   0.013  52.725  1.00  0.00     0.053 A 
HETATM   25  C19 UNL     1      19.385   0.212  51.972  1.00  0.00     0.031 A 
HETATM   26  C20 UNL     1      18.182  -0.471  52.115  1.00  0.00     0.002 A 
HETATM   27  C21 UNL     1      18.120  -1.437  53.100  1.00  0.00     0.000 A 
HETATM   28  C22 UNL     1      19.243  -1.671  53.884  1.00  0.00     0.002 A 
HETATM   29  C23 UNL     1      20.412  -0.959  53.696  1.00  0.00     0.031 A 
ENDBRANCH   5  24
TORSDOF 4
ENDMDL
MODEL 4
REMARK VINA RESULT:      -8.8      1.675      2.617
REMARK  4 active torsions:
REMARK  status: ('A' for Active; 'I' for Inactive)
REMARK    1  A    between atoms: N1_2  and  C3_4 
REMARK    2  A    between atoms: C6_7  and  C7_8 
REMARK    3  A    between atoms: C9_10  and  C10_11 
REMARK    4  A    between atoms: N3_22  and  C18_23 
ROOT
HETATM    1  C7  UNL     1      23.697   2.988  51.592  1.00  0.00     0.145 A 
HETATM    2  C8  UNL     1      23.940   4.262  50.812  1.00  0.00     0.093 A 
HETATM    3  C9  UNL     1      25.343   4.130  50.341  1.00  0.00     0.067 A 
HETATM    4  N2  UNL     1      25.877   3.061  50.782  1.00  0.00    -0.175 NA
HETATM    5  N3  UNL     1      24.971   2.344  51.572  1.00  0.00    -0.260 N 
ENDROOT
BRANCH   3   6
HETATM    6  C10 UNL     1      26.051   5.078  49.489  1.00  0.00    -0.007 A 
HETATM    7  C11 UNL     1      27.314   4.749  49.021  1.00  0.00     0.016 A 
HETATM    8  C12 UNL     1      28.060   5.582  48.207  1.00  0.00     0.040 A 
HETATM    9  C13 UNL     1      27.503   6.793  47.859  1.00  0.00     0.102 A 
HETATM   10  C14 UNL     1      26.237   7.156  48.310  1.00  0.00     0.103 A 
HETATM   11  O2  UNL     1      28.168   7.685  47.056  1.00  0.00    -0.346 OA
HETATM   12  C15 UNL     1      25.506   6.293  49.130  1.00  0.00     0.053 A 
HETATM   13  O1  UNL     1      25.730   8.385  47.924  1.00  0.00    -0.346 OA
HETATM   14  C16 UNL     1      26.518   9.441  47.450  1.00  0.00     0.202 C 
HETATM   15  C17 UNL     1      27.862   9.046  46.931  1.00  0.00     0.202 C 
ENDBRANCH   3   6
BRANCH   1  16
HETATM   16  C6  UNL     1      22.614   2.229  50.931  1.00  0.00    -0.049 A 
HETATM   17  C5  UNL     1      22.451   1.741  49.734  1.00  0.00     0.007 A 
HETATM   18  C4  UNL     1      21.170   1.058  49.584  1.00  0.00     0.025 A 
HETATM   19  C3  UNL     1      20.571   1.162  50.761  1.00  0.00     0.010 A 
HETATM   20  C24 UNL     1      21.402   1.906  51.743  1.00  0.00     0.093 A 
BRANCH  19  21
HETATM   21  N1  UNL     1      19.275   0.590  50.957  1.00  0.00    -0.393 N 
HETATM   22  C1  UNL     1      19.071  -0.143  52.179  1.00  0.00     0.148 C 
HETATM   23  C2  UNL     1      18.116   0.645  50.080  1.00  0.00     0.148 C 
ENDBRANCH  19  21
ENDBRANCH   1  16
BRANCH   5  24
HETATM   24  C18 UNL     1      25.365   1.148  52.226  1.00  0.00     0.053 A 
HETATM   25  C19 UNL     1      26.573   0.546  51.954  1.00  0.00     0.031 A 
HETATM   26  C20 UNL     1      27.050  -0.622  52.537  1.00  0.00     0.002 A 
HETATM   27  C21 UNL     1      26.241  -1.235  53.473  1.00  0.00     0.000 A 
HETATM   28  C22 UNL     1      25.013  -0.661  53.778  1.00  0.00     0.002 A 
HETATM   29  C23 UNL     1      24.591   0.503  53.165  1.00  0.00     0.031 A 
ENDBRANCH   5  24
TORSDOF 4
ENDMDL
MODEL 5
REMARK VINA RESULT:      -8.8      3.312      7.483
REMARK  4 active torsions:
REMARK  status: ('A' for Active; 'I' for Inactive)
REMARK    1  A    between atoms: N1_2  and  C3_4 
REMARK    2  A    between atoms: C6_7  and  C7_8 
REMARK    3  A    between atoms: C9_10  and  C10_11 
REMARK    4  A    between atoms: N3_22  and  C18_23 
ROOT
HETATM    1  C7  UNL     1      24.064   2.058  50.749  1.00  0.00     0.145 A 
HETATM    2  C8  UNL     1      22.601   1.692  50.625  1.00  0.00     0.093 A 
HETATM    3  C9  UNL     1      22.342   0.846  51.820  1.00  0.00     0.067 A 
HETATM    4  N2  UNL     1      23.408   0.666  52.494  1.00  0.00    -0.175 NA
HETATM    5  N3  UNL     1      24.490   1.324  51.896  1.00  0.00    -0.260 N 
ENDROOT
BRANCH   3   6
HETATM    6  C10 UNL     1      21.055   0.280  52.202  1.00  0.00    -0.007 A 
HETATM    7  C11 UNL     1      20.973  -0.487  53.355  1.00  0.00     0.016 A 
HETATM    8  C12 UNL     1      19.797  -1.064  53.798  1.00  0.00     0.040 A 
HETATM    9  C13 UNL     1      18.665  -0.856  53.041  1.00  0.00     0.102 A 
HETATM   10  C14 UNL     1      18.710  -0.091  51.879  1.00  0.00     0.103 A 
HETATM   11  O2  UNL     1      17.453  -1.389  53.401  1.00  0.00    -0.346 OA
HETATM   12  C15 UNL     1      19.912   0.481  51.457  1.00  0.00     0.053 A 
HETATM   13  O1  UNL     1      17.538   0.084  51.162  1.00  0.00    -0.346 OA
HETATM   14  C16 UNL     1      16.415  -0.743  51.286  1.00  0.00     0.202 C 
HETATM   15  C17 UNL     1      16.349  -1.535  52.552  1.00  0.00     0.202 C 
ENDBRANCH   3   6
BRANCH   1  16
HETATM   16  C6  UNL     1      24.174   3.526  50.884  1.00  0.00    -0.049 A 
HETATM   17  C5  UNL     1      23.630   4.406  51.677  1.00  0.00     0.007 A 
HETATM   18  C4  UNL     1      24.083   5.763  51.391  1.00  0.00     0.025 A 
HETATM   19  C3  UNL     1      24.931   5.651  50.380  1.00  0.00     0.010 A 
HETATM   20  C24 UNL     1      25.089   4.239  49.942  1.00  0.00     0.093 A 
BRANCH  19  21
HETATM   21  N1  UNL     1      25.565   6.816  49.847  1.00  0.00    -0.393 N 
HETATM   22  C1  UNL     1      25.004   8.088  50.223  1.00  0.00     0.148 C 
HETATM   23  C2  UNL     1      26.718   6.898  48.962  1.00  0.00     0.148 C 
ENDBRANCH  19  21
ENDBRANCH   1  16
BRANCH   5  24
HETATM   24  C18 UNL     1      25.797   1.210  52.437  1.00  0.00     0.053 A 
HETATM   25  C19 UNL     1      26.482   0.016  52.413  1.00  0.00     0.031 A 
HETATM   26  C20 UNL     1      27.760  -0.200  52.915  1.00  0.00     0.002 A 
HETATM   27  C21 UNL     1      28.402   0.880  53.487  1.00  0.00     0.000 A 
HETATM   28  C22 UNL     1      27.748   2.105  53.532  1.00  0.00     0.002 A 
HETATM   29  C23 UNL     1      26.475   2.259  53.017  1.00  0.00     0.031 A 
ENDBRANCH   5  24
TORSDOF 4
ENDMDL
MODEL 6
REMARK VINA RESULT:      -8.7      1.199      1.846
REMARK  4 active torsions:
REMARK  status: ('A' for Active; 'I' for Inactive)
REMARK    1  A    between atoms: N1_2  and  C3_4 
REMARK    2  A    between atoms: C6_7  and  C7_8 
REMARK    3  A    between atoms: C9_10  and  C10_11 
REMARK    4  A    between atoms: N3_22  and  C18_23 
ROOT
HETATM    1  C7  UNL     1      24.404   2.435  53.081  1.00  0.00     0.145 A 
HETATM    2  C8  UNL     1      23.851   3.608  52.300  1.00  0.00     0.093 A 
HETATM    3  C9  UNL     1      24.795   3.756  51.162  1.00  0.00     0.067 A 
HETATM    4  N2  UNL     1      25.752   2.920  51.248  1.00  0.00    -0.175 NA
HETATM    5  N3  UNL     1      25.613   2.122  52.390  1.00  0.00    -0.260 N 
ENDROOT
BRANCH   3   6
HETATM    6  C10 UNL     1      24.676   4.718  50.073  1.00  0.00    -0.007 A 
HETATM    7  C11 UNL     1      23.527   4.716  49.296  1.00  0.00     0.016 A 
HETATM    8  C12 UNL     1      23.323   5.589  48.244  1.00  0.00     0.040 A 
HETATM    9  C13 UNL     1      24.325   6.496  47.971  1.00  0.00     0.102 A 
HETATM   10  C14 UNL     1      25.491   6.527  48.730  1.00  0.00     0.103 A 
HETATM   11  O2  UNL     1      24.213   7.402  46.946  1.00  0.00    -0.346 OA
HETATM   12  C15 UNL     1      25.668   5.632  49.788  1.00  0.00     0.053 A 
HETATM   13  O1  UNL     1      26.460   7.462  48.407  1.00  0.00    -0.346 OA
HETATM   14  C16 UNL     1      26.540   8.109  47.168  1.00  0.00     0.202 C 
HETATM   15  C17 UNL     1      25.277   8.108  46.370  1.00  0.00     0.202 C 
ENDBRANCH   3   6
BRANCH   1  16
HETATM   16  C6  UNL     1      23.397   1.352  53.080  1.00  0.00    -0.049 A 
HETATM   17  C5  UNL     1      23.407   0.107  53.465  1.00  0.00     0.007 A 
HETATM   18  C4  UNL     1      22.124  -0.551  53.243  1.00  0.00     0.025 A 
HETATM   19  C3  UNL     1      21.340   0.369  52.703  1.00  0.00     0.010 A 
HETATM   20  C24 UNL     1      22.042   1.669  52.536  1.00  0.00     0.093 A 
BRANCH  19  21
HETATM   21  N1  UNL     1      19.991   0.046  52.356  1.00  0.00    -0.393 N 
HETATM   22  C1  UNL     1      19.492   0.593  51.121  1.00  0.00     0.148 C 
HETATM   23  C2  UNL     1      19.036  -0.773  53.087  1.00  0.00     0.148 C 
ENDBRANCH  19  21
ENDBRANCH   1  16
BRANCH   5  24
HETATM   24  C18 UNL     1      26.599   1.161  52.729  1.00  0.00     0.053 A 
HETATM   25  C19 UNL     1      27.702   1.498  53.481  1.00  0.00     0.031 A 
HETATM   26  C20 UNL     1      28.722   0.635  53.864  1.00  0.00     0.002 A 
HETATM   27  C21 UNL     1      28.620  -0.680  53.456  1.00  0.00     0.000 A 
HETATM   28  C22 UNL     1      27.523  -1.065  52.695  1.00  0.00     0.002 A 
HETATM   29  C23 UNL     1      26.539  -0.160  52.343  1.00  0.00     0.031 A 
ENDBRANCH   5  24
TORSDOF 4
ENDMDL
MODEL 7
REMARK VINA RESULT:      -8.5      4.085      8.817
REMARK  4 active torsions:
REMARK  status: ('A' for Active; 'I' for Inactive)
REMARK    1  A    between atoms: N1_2  and  C3_4 
REMARK    2  A    between atoms: C6_7  and  C7_8 
REMARK    3  A    between atoms: C9_10  and  C10_11 
REMARK    4  A    between atoms: N3_22  and  C18_23 
ROOT
HETATM    1  C7  UNL     1      21.946   1.540  53.010  1.00  0.00     0.145 A 
HETATM    2  C8  UNL     1      20.867   0.672  53.621  1.00  0.00     0.093 A 
HETATM    3  C9  UNL     1      19.955   0.383  52.484  1.00  0.00     0.067 A 
HETATM    4  N2  UNL     1      20.333   0.987  51.428  1.00  0.00    -0.175 NA
HETATM    5  N3  UNL     1      21.492   1.733  51.671  1.00  0.00    -0.260 N 
ENDROOT
BRANCH   3   6
HETATM    6  C10 UNL     1      18.774  -0.470  52.531  1.00  0.00    -0.007 A 
HETATM    7  C11 UNL     1      18.746  -1.531  53.425  1.00  0.00     0.016 A 
HETATM    8  C12 UNL     1      17.672  -2.393  53.543  1.00  0.00     0.040 A 
HETATM    9  C13 UNL     1      16.588  -2.171  52.721  1.00  0.00     0.102 A 
HETATM   10  C14 UNL     1      16.581  -1.116  51.813  1.00  0.00     0.103 A 
HETATM   11  O2  UNL     1      15.476  -2.974  52.766  1.00  0.00    -0.346 OA
HETATM   12  C15 UNL     1      17.681  -0.260  51.717  1.00  0.00     0.053 A 
HETATM   13  O1  UNL     1      15.462  -0.943  51.016  1.00  0.00    -0.346 OA
HETATM   14  C16 UNL     1      14.515  -1.944  50.771  1.00  0.00     0.202 C 
HETATM   15  C17 UNL     1      14.497  -3.057  51.768  1.00  0.00     0.202 C 
ENDBRANCH   3   6
BRANCH   1  16
HETATM   16  C6  UNL     1      23.240   0.836  53.126  1.00  0.00    -0.049 A 
HETATM   17  C5  UNL     1      23.582  -0.415  53.253  1.00  0.00     0.007 A 
HETATM   18  C4  UNL     1      25.029  -0.588  53.326  1.00  0.00     0.025 A 
HETATM   19  C3  UNL     1      25.539   0.630  53.234  1.00  0.00     0.010 A 
HETATM   20  C24 UNL     1      24.482   1.666  53.098  1.00  0.00     0.093 A 
BRANCH  19  21
HETATM   21  N1  UNL     1      26.957   0.817  53.273  1.00  0.00    -0.393 N 
HETATM   22  C1  UNL     1      27.741  -0.290  53.756  1.00  0.00     0.148 C 
HETATM   23  C2  UNL     1      27.730   1.987  52.887  1.00  0.00     0.148 C 
ENDBRANCH  19  21
ENDBRANCH   1  16
BRANCH   5  24
HETATM   24  C18 UNL     1      22.061   2.543  50.654  1.00  0.00     0.053 A 
HETATM   25  C19 UNL     1      22.262   3.892  50.840  1.00  0.00     0.031 A 
HETATM   26  C20 UNL     1      22.809   4.769  49.910  1.00  0.00     0.002 A 
HETATM   27  C21 UNL     1      23.185   4.241  48.691  1.00  0.00     0.000 A 
HETATM   28  C22 UNL     1      23.000   2.883  48.461  1.00  0.00     0.002 A 
HETATM   29  C23 UNL     1      22.450   2.059  49.424  1.00  0.00     0.031 A 
ENDBRANCH   5  24
TORSDOF 4
ENDMDL
MODEL 8
REMARK VINA RESULT:      -8.5      2.642      4.071
REMARK  4 active torsions:
REMARK  status: ('A' for Active; 'I' for Inactive)
REMARK    1  A    between atoms: N1_2  and  C3_4 
REMARK    2  A    between atoms: C6_7  and  C7_8 
REMARK    3  A    between atoms: C9_10  and  C10_11 
REMARK    4  A    between atoms: N3_22  and  C18_23 
ROOT
HETATM    1  C7  UNL     1      24.083   3.978  50.499  1.00  0.00     0.145 A 
HETATM    2  C8  UNL     1      24.593   5.170  49.719  1.00  0.00     0.093 A 
HETATM    3  C9  UNL     1      26.030   4.863  49.497  1.00  0.00     0.067 A 
HETATM    4  N2  UNL     1      26.359   3.771  50.066  1.00  0.00    -0.175 NA
HETATM    5  N3  UNL     1      25.261   3.203  50.721  1.00  0.00    -0.260 N 
ENDROOT
BRANCH   3   6
HETATM    6  C10 UNL     1      26.970   5.677  48.737  1.00  0.00    -0.007 A 
HETATM    7  C11 UNL     1      28.270   5.224  48.567  1.00  0.00     0.016 A 
HETATM    8  C12 UNL     1      29.230   5.925  47.862  1.00  0.00     0.040 A 
HETATM    9  C13 UNL     1      28.856   7.132  47.311  1.00  0.00     0.102 A 
HETATM   10  C14 UNL     1      27.560   7.617  47.460  1.00  0.00     0.103 A 
HETATM   11  O2  UNL     1      29.740   7.898  46.595  1.00  0.00    -0.346 OA
HETATM   12  C15 UNL     1      26.611   6.885  48.177  1.00  0.00     0.053 A 
HETATM   13  O1  UNL     1      27.245   8.835  46.882  1.00  0.00    -0.346 OA
HETATM   14  C16 UNL     1      28.196   9.788  46.498  1.00  0.00     0.202 C 
HETATM   15  C17 UNL     1      29.580   9.259  46.302  1.00  0.00     0.202 C 
ENDBRANCH   3   6
BRANCH   1  16
HETATM   16  C6  UNL     1      23.042   3.299  49.698  1.00  0.00    -0.049 A 
HETATM   17  C5  UNL     1      23.054   2.628  48.582  1.00  0.00     0.007 A 
HETATM   18  C4  UNL     1      21.726   2.152  48.208  1.00  0.00     0.025 A 
HETATM   19  C3  UNL     1      20.914   2.575  49.164  1.00  0.00     0.010 A 
HETATM   20  C24 UNL     1      21.639   3.343  50.210  1.00  0.00     0.093 A 
BRANCH  19  21
HETATM   21  N1  UNL     1      19.517   2.274  49.101  1.00  0.00    -0.393 N 
HETATM   22  C1  UNL     1      18.746   2.988  48.116  1.00  0.00     0.148 C 
HETATM   23  C2  UNL     1      18.753   1.332  49.905  1.00  0.00     0.148 C 
ENDBRANCH  19  21
ENDBRANCH   1  16
BRANCH   5  24
HETATM   24  C18 UNL     1      25.405   2.014  51.481  1.00  0.00     0.053 A 
HETATM   25  C19 UNL     1      24.384   1.540  52.274  1.00  0.00     0.031 A 
HETATM   26  C20 UNL     1      24.425   0.391  53.055  1.00  0.00     0.002 A 
HETATM   27  C21 UNL     1      25.594  -0.344  53.033  1.00  0.00     0.000 A 
HETATM   28  C22 UNL     1      26.650   0.098  52.246  1.00  0.00     0.002 A 
HETATM   29  C23 UNL     1      26.552   1.250  51.490  1.00  0.00     0.031 A 
ENDBRANCH   5  24
TORSDOF 4
ENDMDL
MODEL 9
REMARK VINA RESULT:      -8.4      2.486      5.619
REMARK  4 active torsions:
REMARK  status: ('A' for Active; 'I' for Inactive)
REMARK    1  A    between atoms: N1_2  and  C3_4 
REMARK    2  A    between atoms: C6_7  and  C7_8 
REMARK    3  A    between atoms: C9_10  and  C10_11 
REMARK    4  A    between atoms: N3_22  and  C18_23 
ROOT
HETATM    1  C7  UNL     1      25.233   2.653  50.304  1.00  0.00     0.145 A 
HETATM    2  C8  UNL     1      26.404   3.369  49.667  1.00  0.00     0.093 A 
HETATM    3  C9  UNL     1      25.935   4.774  49.535  1.00  0.00     0.067 A 
HETATM    4  N2  UNL     1      24.729   4.893  49.929  1.00  0.00    -0.175 NA
HETATM    5  N3  UNL     1      24.225   3.662  50.365  1.00  0.00    -0.260 N 
ENDROOT
BRANCH   3   6
HETATM    6  C10 UNL     1      26.719   5.892  49.026  1.00  0.00    -0.007 A 
HETATM    7  C11 UNL     1      27.912   5.633  48.367  1.00  0.00     0.016 A 
HETATM    8  C12 UNL     1      28.722   6.626  47.849  1.00  0.00     0.040 A 
HETATM    9  C13 UNL     1      28.306   7.930  48.009  1.00  0.00     0.102 A 
HETATM   10  C14 UNL     1      27.114   8.227  48.664  1.00  0.00     0.103 A 
HETATM   11  O2  UNL     1      29.043   8.983  47.530  1.00  0.00    -0.346 OA
HETATM   12  C15 UNL     1      26.315   7.202  49.176  1.00  0.00     0.053 A 
HETATM   13  O1  UNL     1      26.749   9.557  48.793  1.00  0.00    -0.346 OA
HETATM   14  C16 UNL     1      27.642  10.628  48.667  1.00  0.00     0.202 C 
HETATM   15  C17 UNL     1      28.904  10.318  47.930  1.00  0.00     0.202 C 
ENDBRANCH   3   6
BRANCH   1  16
HETATM   16  C6  UNL     1      25.658   2.129  51.619  1.00  0.00    -0.049 A 
HETATM   17  C5  UNL     1      25.276   2.343  52.846  1.00  0.00     0.007 A 
HETATM   18  C4  UNL     1      26.037   1.554  53.809  1.00  0.00     0.025 A 
HETATM   19  C3  UNL     1      26.900   0.852  53.091  1.00  0.00     0.010 A 
HETATM   20  C24 UNL     1      26.767   1.128  51.637  1.00  0.00     0.093 A 
BRANCH  19  21
HETATM   21  N1  UNL     1      27.812  -0.038  53.740  1.00  0.00    -0.393 N 
HETATM   22  C1  UNL     1      28.022  -1.317  53.114  1.00  0.00     0.148 C 
HETATM   23  C2  UNL     1      28.570   0.171  54.965  1.00  0.00     0.148 C 
ENDBRANCH  19  21
ENDBRANCH   1  16
BRANCH   5  24
HETATM   24  C18 UNL     1      22.877   3.539  50.789  1.00  0.00     0.053 A 
HETATM   25  C19 UNL     1      22.066   2.532  50.319  1.00  0.00     0.031 A 
HETATM   26  C20 UNL     1      20.737   2.326  50.670  1.00  0.00     0.002 A 
HETATM   27  C21 UNL     1      20.179   3.210  51.572  1.00  0.00     0.000 A 
HETATM   28  C22 UNL     1      20.963   4.242  52.073  1.00  0.00     0.002 A 
HETATM   29  C23 UNL     1      22.280   4.398  51.686  1.00  0.00     0.031 A 
ENDBRANCH   5  24
TORSDOF 4
ENDMDL
