MODEL 1
REMARK VINA RESULT:      -7.5      0.000      0.000
REMARK  5 active torsions:
REMARK  status: ('A' for Active; 'I' for Inactive)
REMARK    1  A    between atoms: N1_9  and  C7_10 
REMARK    2  A    between atoms: C11_16  and  C12_17 
REMARK    3  A    between atoms: C12_17  and  C13_19 
REMARK    4  A    between atoms: C14_20  and  C15_21 
REMARK    5  A    between atoms: C15_21  and  N4_22 
ROOT
HETATM    1  C7  UNL     1      22.406   4.779  50.441  1.00  0.00     0.180 C 
HETATM    2  C8  UNL     1      21.918   6.170  50.669  1.00  0.00     0.102 C 
HETATM    3  N2  UNL     1      21.514   7.265  50.842  1.00  0.00    -0.194 NA
HETATM    4  C9  UNL     1      23.733   4.908  49.873  1.00  0.00     0.142 C 
HETATM    5  N3  UNL     1      24.727   4.139  50.121  1.00  0.00    -0.254 NA
HETATM    6  C10 UNL     1      24.593   3.043  51.020  1.00  0.00     0.102 A 
HETATM    7  C11 UNL     1      25.154   2.080  51.675  1.00  0.00     0.066 A 
HETATM    8  C18 UNL     1      23.819   1.777  52.219  1.00  0.00     0.031 A 
HETATM    9  C19 UNL     1      22.607   1.634  52.594  1.00  0.00     0.031 A 
HETATM   10  S1  UNL     1      22.987   2.721  51.535  1.00  0.00    -0.122 SA
HETATM   11  C20 UNL     1      22.245   4.091  51.703  1.00  0.00     0.066 C 
ENDROOT
BRANCH   1  12
HETATM   12  N1  UNL     1      21.474   4.241  49.447  1.00  0.00    -0.351 N 
HETATM   13  C2  UNL     1      20.241   3.546  49.746  1.00  0.00     0.108 A 
HETATM   14  C1  UNL     1      19.326   4.494  50.513  1.00  0.00     0.037 C 
HETATM   15  C3  UNL     1      19.595   3.164  48.470  1.00  0.00     0.042 A 
HETATM   16  C4  UNL     1      19.955   3.356  47.213  1.00  0.00     0.137 A 
HETATM   17  F1  UNL     1      19.206   2.919  46.172  1.00  0.00    -0.204 F 
HETATM   18  C5  UNL     1      21.224   4.074  47.078  1.00  0.00     0.087 A 
HETATM   19 CL1  UNL     1      21.760   4.360  45.426  1.00  0.00    -0.080 Cl
HETATM   20  C6  UNL     1      21.926   4.484  48.120  1.00  0.00     0.115 A 
ENDBRANCH   1  12
BRANCH   7  21
HETATM   21  C12 UNL     1      26.544   1.579  51.797  1.00  0.00     0.186 C 
HETATM   22  O1  UNL     1      27.452   2.414  51.759  1.00  0.00    -0.287 OA
BRANCH  21  23
HETATM   23  C13 UNL     1      26.764   0.154  51.951  1.00  0.00     0.053 C 
HETATM   24  C14 UNL     1      27.072  -0.411  53.103  1.00  0.00     0.007 C 
BRANCH  24  25
HETATM   25  C15 UNL     1      27.282   0.074  54.474  1.00  0.00     0.299 C 
BRANCH  25  26
HETATM   26  N4  UNL     1      28.722   0.094  54.742  1.00  0.00     0.083 N 
HETATM   27  C16 UNL     1      29.290   1.376  54.435  1.00  0.00     0.309 C 
HETATM   28  C17 UNL     1      29.319  -0.892  53.859  1.00  0.00     0.309 C 
ENDBRANCH  25  26
ENDBRANCH  24  25
ENDBRANCH  21  23
ENDBRANCH   7  21
TORSDOF 5
ENDMDL
MODEL 2
REMARK VINA RESULT:      -7.2      8.610     11.089
REMARK  5 active torsions:
REMARK  status: ('A' for Active; 'I' for Inactive)
REMARK    1  A    between atoms: N1_9  and  C7_10 
REMARK    2  A    between atoms: C11_16  and  C12_17 
REMARK    3  A    between atoms: C12_17  and  C13_19 
REMARK    4  A    between atoms: C14_20  and  C15_21 
REMARK    5  A    between atoms: C15_21  and  N4_22 
ROOT
HETATM    1  C7  UNL     1      32.904   6.105  47.889  1.00  0.00     0.180 C 
HETATM    2  C8  UNL     1      34.173   5.768  48.597  1.00  0.00     0.102 C 
HETATM    3  N2  UNL     1      35.187   5.514  49.145  1.00  0.00    -0.194 NA
HETATM    4  C9  UNL     1      32.200   4.851  47.712  1.00  0.00     0.142 C 
HETATM    5  N3  UNL     1      30.932   4.692  47.793  1.00  0.00    -0.254 NA
HETATM    6  C10 UNL     1      30.076   5.793  48.079  1.00  0.00     0.102 A 
HETATM    7  C11 UNL     1      28.888   6.226  48.347  1.00  0.00     0.066 A 
HETATM    8  C18 UNL     1      29.480   7.572  48.426  1.00  0.00     0.031 A 
HETATM    9  C19 UNL     1      30.134   8.669  48.450  1.00  0.00     0.031 A 
HETATM   10  S1  UNL     1      30.846   7.328  48.070  1.00  0.00    -0.122 SA
HETATM   11  C20 UNL     1      32.285   7.156  48.666  1.00  0.00     0.066 C 
ENDROOT
BRANCH   1  12
HETATM   12  N1  UNL     1      33.354   6.626  46.596  1.00  0.00    -0.351 N 
HETATM   13  C2  UNL     1      33.615   8.018  46.299  1.00  0.00     0.108 A 
HETATM   14  C1  UNL     1      34.737   8.503  47.210  1.00  0.00     0.037 C 
HETATM   15  C3  UNL     1      34.046   8.124  44.888  1.00  0.00     0.042 A 
HETATM   16  C4  UNL     1      34.213   7.209  43.950  1.00  0.00     0.137 A 
HETATM   17  F1  UNL     1      34.623   7.524  42.697  1.00  0.00    -0.204 F 
HETATM   18  C5  UNL     1      33.910   5.852  44.406  1.00  0.00     0.087 A 
HETATM   19 CL1  UNL     1      34.111   4.585  43.201  1.00  0.00    -0.080 Cl
HETATM   20  C6  UNL     1      33.511   5.586  45.638  1.00  0.00     0.115 A 
ENDBRANCH   1  12
BRANCH   7  21
HETATM   21  C12 UNL     1      27.562   5.583  48.513  1.00  0.00     0.186 C 
HETATM   22  O1  UNL     1      27.543   4.436  48.971  1.00  0.00    -0.287 OA
BRANCH  21  23
HETATM   23  C13 UNL     1      26.373   6.321  48.137  1.00  0.00     0.053 C 
HETATM   24  C14 UNL     1      25.676   7.054  48.984  1.00  0.00     0.007 C 
BRANCH  24  25
HETATM   25  C15 UNL     1      25.790   7.379  50.412  1.00  0.00     0.299 C 
BRANCH  25  26
HETATM   26  N4  UNL     1      24.477   7.190  51.036  1.00  0.00     0.083 N 
HETATM   27  C16 UNL     1      24.104   5.804  51.049  1.00  0.00     0.309 C 
HETATM   28  C17 UNL     1      23.522   7.911  50.211  1.00  0.00     0.309 C 
ENDBRANCH  25  26
ENDBRANCH  24  25
ENDBRANCH  21  23
ENDBRANCH   7  21
TORSDOF 5
ENDMDL
MODEL 3
REMARK VINA RESULT:      -7.2      2.784      3.538
REMARK  5 active torsions:
REMARK  status: ('A' for Active; 'I' for Inactive)
REMARK    1  A    between atoms: N1_9  and  C7_10 
REMARK    2  A    between atoms: C11_16  and  C12_17 
REMARK    3  A    between atoms: C12_17  and  C13_19 
REMARK    4  A    between atoms: C14_20  and  C15_21 
REMARK    5  A    between atoms: C15_21  and  N4_22 
ROOT
HETATM    1  C7  UNL     1      21.410   2.590  50.009  1.00  0.00     0.180 C 
HETATM    2  C8  UNL     1      21.216   2.642  48.531  1.00  0.00     0.102 C 
HETATM    3  N2  UNL     1      21.045   2.692  47.365  1.00  0.00    -0.194 NA
HETATM    4  C9  UNL     1      21.926   1.267  50.299  1.00  0.00     0.142 C 
HETATM    5  N3  UNL     1      22.806   0.991  51.187  1.00  0.00    -0.254 NA
HETATM    6  C10 UNL     1      23.370   2.016  51.998  1.00  0.00     0.102 A 
HETATM    7  C11 UNL     1      24.242   2.365  52.887  1.00  0.00     0.066 A 
HETATM    8  C18 UNL     1      23.704   3.730  52.766  1.00  0.00     0.031 A 
HETATM    9  C19 UNL     1      23.129   4.852  52.558  1.00  0.00     0.031 A 
HETATM   10  S1  UNL     1      22.622   3.554  51.843  1.00  0.00    -0.122 SA
HETATM   11  C20 UNL     1      22.209   3.747  50.344  1.00  0.00     0.066 C 
ENDROOT
BRANCH   1  12
HETATM   12  N1  UNL     1      20.053   2.737  50.544  1.00  0.00    -0.351 N 
HETATM   13  C2  UNL     1      19.457   3.981  50.982  1.00  0.00     0.108 A 
HETATM   14  C1  UNL     1      19.402   4.934  49.794  1.00  0.00     0.037 C 
HETATM   15  C3  UNL     1      18.082   3.702  51.453  1.00  0.00     0.042 A 
HETATM   16  C4  UNL     1      17.388   2.579  51.519  1.00  0.00     0.137 A 
HETATM   17  F1  UNL     1      16.118   2.541  51.991  1.00  0.00    -0.204 F 
HETATM   18  C5  UNL     1      18.129   1.412  51.039  1.00  0.00     0.087 A 
HETATM   19 CL1  UNL     1      17.259  -0.117  51.102  1.00  0.00    -0.080 Cl
HETATM   20  C6  UNL     1      19.369   1.491  50.586  1.00  0.00     0.115 A 
ENDBRANCH   1  12
BRANCH   7  21
HETATM   21  C12 UNL     1      25.305   1.651  53.634  1.00  0.00     0.186 C 
HETATM   22  O1  UNL     1      26.195   2.336  54.147  1.00  0.00    -0.287 OA
BRANCH  21  23
HETATM   23  C13 UNL     1      25.247   0.205  53.724  1.00  0.00     0.053 C 
HETATM   24  C14 UNL     1      26.252  -0.583  53.393  1.00  0.00     0.007 C 
BRANCH  24  25
HETATM   25  C15 UNL     1      27.613  -0.370  52.884  1.00  0.00     0.299 C 
BRANCH  25  26
HETATM   26  N4  UNL     1      28.554  -0.536  53.996  1.00  0.00     0.083 N 
HETATM   27  C16 UNL     1      29.086   0.728  54.418  1.00  0.00     0.309 C 
HETATM   28  C17 UNL     1      29.649  -1.345  53.490  1.00  0.00     0.309 C 
ENDBRANCH  25  26
ENDBRANCH  24  25
ENDBRANCH  21  23
ENDBRANCH   7  21
TORSDOF 5
ENDMDL
MODEL 4
REMARK VINA RESULT:      -7.2      2.469      3.385
REMARK  5 active torsions:
REMARK  status: ('A' for Active; 'I' for Inactive)
REMARK    1  A    between atoms: N1_9  and  C7_10 
REMARK    2  A    between atoms: C11_16  and  C12_17 
REMARK    3  A    between atoms: C12_17  and  C13_19 
REMARK    4  A    between atoms: C14_20  and  C15_21 
REMARK    5  A    between atoms: C15_21  and  N4_22 
ROOT
HETATM    1  C7  UNL     1      22.800   3.323  49.185  1.00  0.00     0.180 C 
HETATM    2  C8  UNL     1      22.227   3.228  47.811  1.00  0.00     0.102 C 
HETATM    3  N2  UNL     1      21.774   3.173  46.723  1.00  0.00    -0.194 NA
HETATM    4  C9  UNL     1      22.082   2.352  49.986  1.00  0.00     0.142 C 
HETATM    5  N3  UNL     1      22.591   1.631  50.914  1.00  0.00    -0.254 NA
HETATM    6  C10 UNL     1      23.972   1.736  51.244  1.00  0.00     0.102 A 
HETATM    7  C11 UNL     1      24.981   1.293  51.920  1.00  0.00     0.066 A 
HETATM    8  C18 UNL     1      25.783   2.334  51.256  1.00  0.00     0.031 A 
HETATM    9  C19 UNL     1      26.340   3.285  50.610  1.00  0.00     0.031 A 
HETATM   10  S1  UNL     1      24.802   3.030  50.478  1.00  0.00    -0.122 SA
HETATM   11  C20 UNL     1      24.231   3.185  49.027  1.00  0.00     0.066 C 
ENDROOT
BRANCH   1  12
HETATM   12  N1  UNL     1      22.464   4.684  49.609  1.00  0.00    -0.351 N 
HETATM   13  C2  UNL     1      21.523   5.028  50.654  1.00  0.00     0.108 A 
HETATM   14  C1  UNL     1      22.020   4.433  51.966  1.00  0.00     0.037 C 
HETATM   15  C3  UNL     1      21.469   6.502  50.771  1.00  0.00     0.042 A 
HETATM   16  C4  UNL     1      22.104   7.458  50.117  1.00  0.00     0.137 A 
HETATM   17  F1  UNL     1      21.906   8.772  50.385  1.00  0.00    -0.204 F 
HETATM   18  C5  UNL     1      23.020   6.949  49.095  1.00  0.00     0.087 A 
HETATM   19 CL1  UNL     1      23.897   8.175  48.186  1.00  0.00    -0.080 Cl
HETATM   20  C6  UNL     1      23.184   5.658  48.863  1.00  0.00     0.115 A 
ENDBRANCH   1  12
BRANCH   7  21
HETATM   21  C12 UNL     1      25.174   0.194  52.896  1.00  0.00     0.186 C 
HETATM   22  O1  UNL     1      24.315   0.058  53.773  1.00  0.00    -0.287 OA
BRANCH  21  23
HETATM   23  C13 UNL     1      26.343  -0.654  52.775  1.00  0.00     0.053 C 
HETATM   24  C14 UNL     1      27.385  -0.571  53.579  1.00  0.00     0.007 C 
BRANCH  24  25
HETATM   25  C15 UNL     1      27.741   0.263  54.735  1.00  0.00     0.299 C 
BRANCH  25  26
HETATM   26  N4  UNL     1      28.973   0.991  54.419  1.00  0.00     0.083 N 
HETATM   27  C16 UNL     1      28.698   2.160  53.633  1.00  0.00     0.309 C 
HETATM   28  C17 UNL     1      29.790   0.090  53.624  1.00  0.00     0.309 C 
ENDBRANCH  25  26
ENDBRANCH  24  25
ENDBRANCH  21  23
ENDBRANCH   7  21
TORSDOF 5
ENDMDL
MODEL 5
REMARK VINA RESULT:      -7.1      8.225     10.288
REMARK  5 active torsions:
REMARK  status: ('A' for Active; 'I' for Inactive)
REMARK    1  A    between atoms: N1_9  and  C7_10 
REMARK    2  A    between atoms: C11_16  and  C12_17 
REMARK    3  A    between atoms: C12_17  and  C13_19 
REMARK    4  A    between atoms: C14_20  and  C15_21 
REMARK    5  A    between atoms: C15_21  and  N4_22 
ROOT
HETATM    1  C7  UNL     1      32.162   6.879  47.650  1.00  0.00     0.180 C 
HETATM    2  C8  UNL     1      33.355   7.545  48.247  1.00  0.00     0.102 C 
HETATM    3  N2  UNL     1      34.308   8.073  48.701  1.00  0.00    -0.194 NA
HETATM    4  C9  UNL     1      31.811   5.801  48.552  1.00  0.00     0.142 C 
HETATM    5  N3  UNL     1      30.620   5.429  48.840  1.00  0.00    -0.254 NA
HETATM    6  C10 UNL     1      29.494   6.081  48.262  1.00  0.00     0.102 A 
HETATM    7  C11 UNL     1      28.210   6.228  48.212  1.00  0.00     0.066 A 
HETATM    8  C18 UNL     1      28.445   7.257  47.186  1.00  0.00     0.031 A 
HETATM    9  C19 UNL     1      28.808   8.112  46.309  1.00  0.00     0.031 A 
HETATM   10  S1  UNL     1      29.868   7.206  47.020  1.00  0.00    -0.122 SA
HETATM   11  C20 UNL     1      31.202   7.932  47.405  1.00  0.00     0.066 C 
ENDROOT
BRANCH   1  12
HETATM   12  N1  UNL     1      32.661   6.342  46.381  1.00  0.00    -0.351 N 
HETATM   13  C2  UNL     1      32.379   6.889  45.072  1.00  0.00     0.108 A 
HETATM   14  C1  UNL     1      32.926   8.311  45.016  1.00  0.00     0.037 C 
HETATM   15  C3  UNL     1      33.066   6.058  44.058  1.00  0.00     0.042 A 
HETATM   16  C4  UNL     1      33.831   4.987  44.173  1.00  0.00     0.137 A 
HETATM   17  F1  UNL     1      34.371   4.366  43.097  1.00  0.00    -0.204 F 
HETATM   18  C5  UNL     1      34.020   4.558  45.560  1.00  0.00     0.087 A 
HETATM   19 CL1  UNL     1      35.030   3.134  45.781  1.00  0.00    -0.080 Cl
HETATM   20  C6  UNL     1      33.475   5.192  46.583  1.00  0.00     0.115 A 
ENDBRANCH   1  12
BRANCH   7  21
HETATM   21  C12 UNL     1      27.067   5.612  48.928  1.00  0.00     0.186 C 
HETATM   22  O1  UNL     1      26.182   6.368  49.338  1.00  0.00    -0.287 OA
BRANCH  21  23
HETATM   23  C13 UNL     1      27.045   4.173  49.107  1.00  0.00     0.053 C 
HETATM   24  C14 UNL     1      26.010   3.520  49.597  1.00  0.00     0.007 C 
BRANCH  24  25
HETATM   25  C15 UNL     1      24.676   3.900  50.082  1.00  0.00     0.299 C 
BRANCH  25  26
HETATM   26  N4  UNL     1      24.526   3.414  51.456  1.00  0.00     0.083 N 
HETATM   27  C16 UNL     1      24.049   2.060  51.478  1.00  0.00     0.309 C 
HETATM   28  C17 UNL     1      23.526   4.260  52.085  1.00  0.00     0.309 C 
ENDBRANCH  25  26
ENDBRANCH  24  25
ENDBRANCH  21  23
ENDBRANCH   7  21
TORSDOF 5
ENDMDL
MODEL 6
REMARK VINA RESULT:      -7.1      4.108      6.428
REMARK  5 active torsions:
REMARK  status: ('A' for Active; 'I' for Inactive)
REMARK    1  A    between atoms: N1_9  and  C7_10 
REMARK    2  A    between atoms: C11_16  and  C12_17 
REMARK    3  A    between atoms: C12_17  and  C13_19 
REMARK    4  A    between atoms: C14_20  and  C15_21 
REMARK    5  A    between atoms: C15_21  and  N4_22 
ROOT
HETATM    1  C7  UNL     1      23.125   4.357  50.991  1.00  0.00     0.180 C 
HETATM    2  C8  UNL     1      23.590   5.774  51.037  1.00  0.00     0.102 C 
HETATM    3  N2  UNL     1      23.976   6.888  51.069  1.00  0.00    -0.194 NA
HETATM    4  C9  UNL     1      22.306   4.165  52.170  1.00  0.00     0.142 C 
HETATM    5  N3  UNL     1      21.242   3.455  52.230  1.00  0.00    -0.254 NA
HETATM    6  C10 UNL     1      20.761   2.765  51.081  1.00  0.00     0.102 A 
HETATM    7  C11 UNL     1      19.832   2.054  50.529  1.00  0.00     0.066 A 
HETATM    8  C18 UNL     1      20.650   2.077  49.305  1.00  0.00     0.031 A 
HETATM    9  C19 UNL     1      21.469   2.178  48.330  1.00  0.00     0.031 A 
HETATM   10  S1  UNL     1      21.822   2.782  49.730  1.00  0.00    -0.122 SA
HETATM   11  C20 UNL     1      22.530   4.179  49.684  1.00  0.00     0.066 C 
ENDROOT
BRANCH   1  12
HETATM   12  N1  UNL     1      24.362   3.580  51.096  1.00  0.00    -0.351 N 
HETATM   13  C2  UNL     1      25.279   3.315  50.008  1.00  0.00     0.108 A 
HETATM   14  C1  UNL     1      25.817   4.645  49.495  1.00  0.00     0.037 C 
HETATM   15  C3  UNL     1      26.398   2.497  50.526  1.00  0.00     0.042 A 
HETATM   16  C4  UNL     1      26.654   2.024  51.732  1.00  0.00     0.137 A 
HETATM   17  F1  UNL     1      27.757   1.283  52.000  1.00  0.00    -0.204 F 
HETATM   18  C5  UNL     1      25.635   2.379  52.721  1.00  0.00     0.087 A 
HETATM   19 CL1  UNL     1      25.917   1.777  54.350  1.00  0.00    -0.080 Cl
HETATM   20  C6  UNL     1      24.571   3.104  52.420  1.00  0.00     0.115 A 
ENDBRANCH   1  12
BRANCH   7  21
HETATM   21  C12 UNL     1      18.529   1.516  50.986  1.00  0.00     0.186 C 
HETATM   22  O1  UNL     1      17.585   2.308  51.067  1.00  0.00    -0.287 OA
BRANCH  21  23
HETATM   23  C13 UNL     1      18.428   0.106  51.311  1.00  0.00     0.053 C 
HETATM   24  C14 UNL     1      19.038  -0.446  52.342  1.00  0.00     0.007 C 
BRANCH  24  25
HETATM   25  C15 UNL     1      19.918   0.044  53.411  1.00  0.00     0.299 C 
BRANCH  25  26
HETATM   26  N4  UNL     1      21.188  -0.684  53.335  1.00  0.00     0.083 N 
HETATM   27  C16 UNL     1      21.313  -1.623  54.413  1.00  0.00     0.309 C 
HETATM   28  C17 UNL     1      22.240   0.309  53.471  1.00  0.00     0.309 C 
ENDBRANCH  25  26
ENDBRANCH  24  25
ENDBRANCH  21  23
ENDBRANCH   7  21
TORSDOF 5
ENDMDL
MODEL 7
REMARK VINA RESULT:      -7.0      5.004      6.979
REMARK  5 active torsions:
REMARK  status: ('A' for Active; 'I' for Inactive)
REMARK    1  A    between atoms: N1_9  and  C7_10 
REMARK    2  A    between atoms: C11_16  and  C12_17 
REMARK    3  A    between atoms: C12_17  and  C13_19 
REMARK    4  A    between atoms: C14_20  and  C15_21 
REMARK    5  A    between atoms: C15_21  and  N4_22 
ROOT
HETATM    1  C7  UNL     1      24.594   4.213  49.784  1.00  0.00     0.180 C 
HETATM    2  C8  UNL     1      23.710   3.230  49.094  1.00  0.00     0.102 C 
HETATM    3  N2  UNL     1      23.005   2.445  48.565  1.00  0.00    -0.194 NA
HETATM    4  C9  UNL     1      25.841   4.217  49.047  1.00  0.00     0.142 C 
HETATM    5  N3  UNL     1      26.568   5.247  48.821  1.00  0.00    -0.254 NA
HETATM    6  C10 UNL     1      26.183   6.531  49.302  1.00  0.00     0.102 A 
HETATM    7  C11 UNL     1      26.396   7.806  49.335  1.00  0.00     0.066 A 
HETATM    8  C18 UNL     1      25.210   7.903  50.202  1.00  0.00     0.031 A 
HETATM    9  C19 UNL     1      24.175   7.825  50.946  1.00  0.00     0.031 A 
HETATM   10  S1  UNL     1      24.837   6.530  50.368  1.00  0.00    -0.122 SA
HETATM   11  C20 UNL     1      23.828   5.436  49.878  1.00  0.00     0.066 C 
ENDROOT
BRANCH   1  12
HETATM   12  N1  UNL     1      24.788   3.632  51.115  1.00  0.00    -0.351 N 
HETATM   13  C2  UNL     1      23.962   3.896  52.273  1.00  0.00     0.108 A 
HETATM   14  C1  UNL     1      22.540   3.439  51.965  1.00  0.00     0.037 C 
HETATM   15  C3  UNL     1      24.492   3.119  53.416  1.00  0.00     0.042 A 
HETATM   16  C4  UNL     1      25.518   2.293  53.514  1.00  0.00     0.137 A 
HETATM   17  F1  UNL     1      25.837   1.672  54.676  1.00  0.00    -0.204 F 
HETATM   18  C5  UNL     1      26.252   2.131  52.259  1.00  0.00     0.087 A 
HETATM   19 CL1  UNL     1      27.634   1.042  52.324  1.00  0.00    -0.080 Cl
HETATM   20  C6  UNL     1      25.909   2.755  51.145  1.00  0.00     0.115 A 
ENDBRANCH   1  12
BRANCH   7  21
HETATM   21  C12 UNL     1      27.401   8.706  48.720  1.00  0.00     0.186 C 
HETATM   22  O1  UNL     1      27.310   8.909  47.505  1.00  0.00    -0.287 OA
BRANCH  21  23
HETATM   23  C13 UNL     1      28.423   9.295  49.562  1.00  0.00     0.053 C 
HETATM   24  C14 UNL     1      29.713   9.073  49.398  1.00  0.00     0.007 C 
BRANCH  24  25
HETATM   25  C15 UNL     1      30.519   8.280  48.460  1.00  0.00     0.299 C 
BRANCH  25  26
HETATM   26  N4  UNL     1      30.547   6.893  48.931  1.00  0.00     0.083 N 
HETATM   27  C16 UNL     1      31.893   6.443  49.144  1.00  0.00     0.309 C 
HETATM   28  C17 UNL     1      29.959   6.088  47.873  1.00  0.00     0.309 C 
ENDBRANCH  25  26
ENDBRANCH  24  25
ENDBRANCH  21  23
ENDBRANCH   7  21
TORSDOF 5
ENDMDL
MODEL 8
REMARK VINA RESULT:      -6.9      3.433      4.804
REMARK  5 active torsions:
REMARK  status: ('A' for Active; 'I' for Inactive)
REMARK    1  A    between atoms: N1_9  and  C7_10 
REMARK    2  A    between atoms: C11_16  and  C12_17 
REMARK    3  A    between atoms: C12_17  and  C13_19 
REMARK    4  A    between atoms: C14_20  and  C15_21 
REMARK    5  A    between atoms: C15_21  and  N4_22 
ROOT
HETATM    1  C7  UNL     1      20.835   4.184  50.367  1.00  0.00     0.180 C 
HETATM    2  C8  UNL     1      20.022   5.290  49.783  1.00  0.00     0.102 C 
HETATM    3  N2  UNL     1      19.394   6.170  49.310  1.00  0.00    -0.194 NA
HETATM    4  C9  UNL     1      20.647   4.262  51.801  1.00  0.00     0.142 C 
HETATM    5  N3  UNL     1      20.558   3.261  52.596  1.00  0.00    -0.254 NA
HETATM    6  C10 UNL     1      20.642   1.929  52.101  1.00  0.00     0.102 A 
HETATM    7  C11 UNL     1      20.550   0.659  52.330  1.00  0.00     0.066 A 
HETATM    8  C18 UNL     1      20.864   0.458  50.906  1.00  0.00     0.031 A 
HETATM    9  C19 UNL     1      21.152   0.446  49.661  1.00  0.00     0.031 A 
HETATM   10  S1  UNL     1      21.090   1.797  50.449  1.00  0.00    -0.122 SA
HETATM   11  C20 UNL     1      20.429   2.984  49.668  1.00  0.00     0.066 C 
ENDROOT
BRANCH   1  12
HETATM   12  N1  UNL     1      22.211   4.537  50.012  1.00  0.00    -0.351 N 
HETATM   13  C2  UNL     1      23.013   3.875  49.005  1.00  0.00     0.108 A 
HETATM   14  C1  UNL     1      22.319   4.031  47.657  1.00  0.00     0.037 C 
HETATM   15  C3  UNL     1      24.339   4.530  48.955  1.00  0.00     0.042 A 
HETATM   16  C4  UNL     1      24.843   5.543  49.637  1.00  0.00     0.137 A 
HETATM   17  F1  UNL     1      26.105   5.995  49.432  1.00  0.00    -0.204 F 
HETATM   18  C5  UNL     1      23.910   6.104  50.615  1.00  0.00     0.087 A 
HETATM   19 CL1  UNL     1      24.523   7.458  51.558  1.00  0.00    -0.080 Cl
HETATM   20  C6  UNL     1      22.686   5.633  50.785  1.00  0.00     0.115 A 
ENDBRANCH   1  12
BRANCH   7  21
HETATM   21  C12 UNL     1      20.236  -0.159  53.526  1.00  0.00     0.186 C 
HETATM   22  O1  UNL     1      19.212  -0.848  53.487  1.00  0.00    -0.287 OA
BRANCH  21  23
HETATM   23  C13 UNL     1      21.134  -0.111  54.664  1.00  0.00     0.053 C 
HETATM   24  C14 UNL     1      22.414  -0.418  54.590  1.00  0.00     0.007 C 
BRANCH  24  25
HETATM   25  C15 UNL     1      23.316  -0.858  53.517  1.00  0.00     0.299 C 
BRANCH  25  26
HETATM   26  N4  UNL     1      24.455   0.062  53.463  1.00  0.00     0.083 N 
HETATM   27  C16 UNL     1      24.306   1.011  52.397  1.00  0.00     0.309 C 
HETATM   28  C17 UNL     1      25.628  -0.751  53.190  1.00  0.00     0.309 C 
ENDBRANCH  25  26
ENDBRANCH  24  25
ENDBRANCH  21  23
ENDBRANCH   7  21
TORSDOF 5
ENDMDL
MODEL 9
REMARK VINA RESULT:      -6.9      5.903      7.545
REMARK  5 active torsions:
REMARK  status: ('A' for Active; 'I' for Inactive)
REMARK    1  A    between atoms: N1_9  and  C7_10 
REMARK    2  A    between atoms: C11_16  and  C12_17 
REMARK    3  A    between atoms: C12_17  and  C13_19 
REMARK    4  A    between atoms: C14_20  and  C15_21 
REMARK    5  A    between atoms: C15_21  and  N4_22 
ROOT
HETATM    1  C7  UNL     1      16.442  -0.538  51.617  1.00  0.00     0.180 C 
HETATM    2  C8  UNL     1      15.527  -1.360  50.773  1.00  0.00     0.102 C 
HETATM    3  N2  UNL     1      14.791  -1.995  50.104  1.00  0.00    -0.194 NA
HETATM    4  C9  UNL     1      16.753  -1.348  52.778  1.00  0.00     0.142 C 
HETATM    5  N3  UNL     1      17.888  -1.395  53.369  1.00  0.00    -0.254 NA
HETATM    6  C10 UNL     1      18.984  -0.614  52.905  1.00  0.00     0.102 A 
HETATM    7  C11 UNL     1      20.240  -0.317  52.989  1.00  0.00     0.066 A 
HETATM    8  C18 UNL     1      20.007   0.637  51.891  1.00  0.00     0.031 A 
HETATM    9  C19 UNL     1      19.649   1.420  50.949  1.00  0.00     0.031 A 
HETATM   10  S1  UNL     1      18.595   0.523  51.679  1.00  0.00    -0.122 SA
HETATM   11  C20 UNL     1      17.515  -0.119  50.743  1.00  0.00     0.066 C 
ENDROOT
BRANCH   1  12
HETATM   12  N1  UNL     1      15.621   0.613  52.001  1.00  0.00    -0.351 N 
HETATM   13  C2  UNL     1      15.769   1.957  51.485  1.00  0.00     0.108 A 
HETATM   14  C1  UNL     1      15.529   1.924  49.980  1.00  0.00     0.037 C 
HETATM   15  C3  UNL     1      14.753   2.821  52.126  1.00  0.00     0.042 A 
HETATM   16  C4  UNL     1      13.815   2.558  53.018  1.00  0.00     0.137 A 
HETATM   17  F1  UNL     1      12.971   3.512  53.483  1.00  0.00    -0.204 F 
HETATM   18  C5  UNL     1      13.794   1.157  53.440  1.00  0.00     0.087 A 
HETATM   19 CL1  UNL     1      12.566   0.742  54.632  1.00  0.00    -0.080 Cl
HETATM   20  C6  UNL     1      14.636   0.255  52.964  1.00  0.00     0.115 A 
ENDBRANCH   1  12
BRANCH   7  21
HETATM   21  C12 UNL     1      21.365  -0.792  53.830  1.00  0.00     0.186 C 
HETATM   22  O1  UNL     1      21.122  -1.034  55.016  1.00  0.00    -0.287 OA
BRANCH  21  23
HETATM   23  C13 UNL     1      22.674  -0.946  53.227  1.00  0.00     0.053 C 
HETATM   24  C14 UNL     1      23.472   0.069  52.957  1.00  0.00     0.007 C 
BRANCH  24  25
HETATM   25  C15 UNL     1      23.390   1.526  53.124  1.00  0.00     0.299 C 
BRANCH  25  26
HETATM   26  N4  UNL     1      24.053   2.161  51.982  1.00  0.00     0.083 N 
HETATM   27  C16 UNL     1      23.335   1.916  50.763  1.00  0.00     0.309 C 
HETATM   28  C17 UNL     1      25.363   1.542  51.870  1.00  0.00     0.309 C 
ENDBRANCH  25  26
ENDBRANCH  24  25
ENDBRANCH  21  23
ENDBRANCH   7  21
TORSDOF 5
ENDMDL
