MODEL 1
REMARK VINA RESULT:      -7.8      0.000      0.000
REMARK  6 active torsions:
REMARK  status: ('A' for Active; 'I' for Inactive)
REMARK    1  A    between atoms: C2_2  and  C3_3 
REMARK       I    between atoms: C3_3  and  N1_5 
REMARK    2  A    between atoms: N1_5  and  C4_6 
REMARK    3  A    between atoms: C9_13  and  N4_14 
REMARK    4  A    between atoms: N4_14  and  C10_15 
REMARK    5  A    between atoms: C11_16  and  C12_17 
REMARK    6  A    between atoms: C13_18  and  C14_19 
ROOT
HETATM    1  C4  UNL     1      25.321  -0.737  54.330  1.00  0.00     0.036 A 
HETATM    2  C5  UNL     1      24.736  -1.304  55.419  1.00  0.00     0.032 A 
HETATM    3  C6  UNL     1      23.379  -1.385  55.643  1.00  0.00     0.035 A 
HETATM    4  C7  UNL     1      22.527  -0.855  54.698  1.00  0.00     0.072 A 
HETATM    5  N2  UNL     1      21.184  -0.872  54.802  1.00  0.00    -0.241 NA
HETATM    6  C8  UNL     1      20.396  -0.334  53.841  1.00  0.00     0.236 A 
HETATM    7  N3  UNL     1      20.947   0.243  52.733  1.00  0.00    -0.224 NA
HETATM    8  C9  UNL     1      22.276   0.269  52.615  1.00  0.00     0.141 A 
HETATM    9  C16 UNL     1      23.089  -0.274  53.585  1.00  0.00     0.041 A 
HETATM   10  C17 UNL     1      24.450  -0.216  53.403  1.00  0.00     0.047 A 
ENDROOT
BRANCH   8  11
HETATM   11  N4  UNL     1      22.766   0.888  51.434  1.00  0.00    -0.350 N 
HETATM   12  H8  UNL     1      23.243   0.567  50.567  1.00  0.00     0.166 HD
BRANCH  11  13
HETATM   13  C10 UNL     1      22.642   2.287  51.260  1.00  0.00     0.090 C 
HETATM   14  C11 UNL     1      23.396   3.149  51.962  1.00  0.00     0.017 C 
BRANCH  14  15
HETATM   15  C12 UNL     1      23.269   4.589  51.785  1.00  0.00     0.002 C 
HETATM   16  C13 UNL     1      24.108   5.234  50.993  1.00  0.00     0.015 C 
BRANCH  16  17
HETATM   17  C14 UNL     1      25.203   4.682  50.226  1.00  0.00    -0.012 A 
HETATM   18  C15 UNL     1      25.974   5.213  49.271  1.00  0.00     0.124 A 
HETATM   19 BR1  UNL     1      26.441   3.374  49.666  1.00  0.00    -0.128 Br
ENDBRANCH  16  17
ENDBRANCH  14  15
ENDBRANCH  11  13
ENDBRANCH   8  11
BRANCH   1  20
HETATM   20  N1  UNL     1      26.703  -0.626  54.049  1.00  0.00    -0.324 N 
HETATM   21  C3  UNL     1      27.564   0.483  54.229  1.00  0.00     0.244 C 
HETATM   22  O1  UNL     1      27.106   1.551  54.701  1.00  0.00    -0.268 OA
HETATM   23  H4  UNL     1      27.237  -1.428  53.652  1.00  0.00     0.169 HD
BRANCH  21  24
HETATM   24  C2  UNL     1      28.982   0.515  53.914  1.00  0.00     0.064 C 
HETATM   25  C1  UNL     1      29.423  -0.703  53.773  1.00  0.00     0.017 C 
ENDBRANCH  21  24
ENDBRANCH   1  20
TORSDOF 6
ENDMDL
MODEL 2
REMARK VINA RESULT:      -7.3      3.158      4.899
REMARK  6 active torsions:
REMARK  status: ('A' for Active; 'I' for Inactive)
REMARK    1  A    between atoms: C2_2  and  C3_3 
REMARK       I    between atoms: C3_3  and  N1_5 
REMARK    2  A    between atoms: N1_5  and  C4_6 
REMARK    3  A    between atoms: C9_13  and  N4_14 
REMARK    4  A    between atoms: N4_14  and  C10_15 
REMARK    5  A    between atoms: C11_16  and  C12_17 
REMARK    6  A    between atoms: C13_18  and  C14_19 
ROOT
HETATM    1  C4  UNL     1      26.106   1.105  52.623  1.00  0.00     0.036 A 
HETATM    2  C5  UNL     1      24.893   1.107  53.238  1.00  0.00     0.032 A 
HETATM    3  C6  UNL     1      23.813   1.878  52.867  1.00  0.00     0.035 A 
HETATM    4  C7  UNL     1      23.952   2.721  51.786  1.00  0.00     0.072 A 
HETATM    5  N2  UNL     1      22.972   3.523  51.327  1.00  0.00    -0.241 NA
HETATM    6  C8  UNL     1      23.165   4.332  50.259  1.00  0.00     0.236 A 
HETATM    7  N3  UNL     1      24.369   4.356  49.615  1.00  0.00    -0.224 NA
HETATM    8  C9  UNL     1      25.350   3.569  50.057  1.00  0.00     0.141 A 
HETATM    9  C16 UNL     1      25.167   2.741  51.142  1.00  0.00     0.041 A 
HETATM   10  C17 UNL     1      26.218   1.954  51.547  1.00  0.00     0.047 A 
ENDROOT
BRANCH   8  11
HETATM   11  N4  UNL     1      26.569   3.655  49.331  1.00  0.00    -0.350 N 
HETATM   12  H8  UNL     1      27.304   2.986  49.028  1.00  0.00     0.166 HD
BRANCH  11  13
HETATM   13  C10 UNL     1      27.016   4.905  48.839  1.00  0.00     0.090 C 
HETATM   14  C11 UNL     1      28.298   5.098  48.484  1.00  0.00     0.017 C 
BRANCH  14  15
HETATM   15  C12 UNL     1      28.759   6.383  47.977  1.00  0.00     0.002 C 
HETATM   16  C13 UNL     1      30.021   6.536  47.612  1.00  0.00     0.015 C 
BRANCH  16  17
HETATM   17  C14 UNL     1      31.076   5.547  47.644  1.00  0.00    -0.012 A 
HETATM   18  C15 UNL     1      32.086   5.354  48.501  1.00  0.00     0.124 A 
HETATM   19 BR1  UNL     1      32.073   4.056  47.062  1.00  0.00    -0.128 Br
ENDBRANCH  16  17
ENDBRANCH  14  15
ENDBRANCH  11  13
ENDBRANCH   8  11
BRANCH   1  20
HETATM   20  N1  UNL     1      27.246   0.337  52.960  1.00  0.00    -0.324 N 
HETATM   21  C3  UNL     1      28.375   0.708  53.728  1.00  0.00     0.244 C 
HETATM   22  O1  UNL     1      28.443   1.863  54.210  1.00  0.00    -0.268 OA
HETATM   23  H4  UNL     1      27.345  -0.649  52.635  1.00  0.00     0.169 HD
BRANCH  21  24
HETATM   24  C2  UNL     1      29.512  -0.146  54.030  1.00  0.00     0.064 C 
HETATM   25  C1  UNL     1      29.443  -1.230  53.311  1.00  0.00     0.017 C 
ENDBRANCH  21  24
ENDBRANCH   1  20
TORSDOF 6
ENDMDL
MODEL 3
REMARK VINA RESULT:      -7.2      2.178      2.854
REMARK  6 active torsions:
REMARK  status: ('A' for Active; 'I' for Inactive)
REMARK    1  A    between atoms: C2_2  and  C3_3 
REMARK       I    between atoms: C3_3  and  N1_5 
REMARK    2  A    between atoms: N1_5  and  C4_6 
REMARK    3  A    between atoms: C9_13  and  N4_14 
REMARK    4  A    between atoms: N4_14  and  C10_15 
REMARK    5  A    between atoms: C11_16  and  C12_17 
REMARK    6  A    between atoms: C13_18  and  C14_19 
ROOT
HETATM    1  C4  UNL     1      25.717   0.319  52.941  1.00  0.00     0.036 A 
HETATM    2  C5  UNL     1      24.786  -0.605  53.303  1.00  0.00     0.032 A 
HETATM    3  C6  UNL     1      23.424  -0.400  53.317  1.00  0.00     0.035 A 
HETATM    4  C7  UNL     1      22.944   0.834  52.936  1.00  0.00     0.072 A 
HETATM    5  N2  UNL     1      21.636   1.157  52.908  1.00  0.00    -0.241 NA
HETATM    6  C8  UNL     1      21.222   2.387  52.525  1.00  0.00     0.236 A 
HETATM    7  N3  UNL     1      22.126   3.341  52.154  1.00  0.00    -0.224 NA
HETATM    8  C9  UNL     1      23.425   3.038  52.176  1.00  0.00     0.141 A 
HETATM    9  C16 UNL     1      23.860   1.790  52.564  1.00  0.00     0.041 A 
HETATM   10  C17 UNL     1      25.212   1.542  52.565  1.00  0.00     0.047 A 
ENDROOT
BRANCH   8  11
HETATM   11  N4  UNL     1      24.298   4.086  51.776  1.00  0.00    -0.350 N 
HETATM   12  H8  UNL     1      25.310   4.167  51.552  1.00  0.00     0.166 HD
BRANCH  11  13
HETATM   13  C10 UNL     1      23.799   5.399  51.601  1.00  0.00     0.090 C 
HETATM   14  C11 UNL     1      24.462   6.306  50.864  1.00  0.00     0.017 C 
BRANCH  14  15
HETATM   15  C12 UNL     1      23.950   7.657  50.684  1.00  0.00     0.002 C 
HETATM   16  C13 UNL     1      24.725   8.594  50.163  1.00  0.00     0.015 C 
BRANCH  16  17
HETATM   17  C14 UNL     1      26.095   8.461  49.718  1.00  0.00    -0.012 A 
HETATM   18  C15 UNL     1      27.224   9.044  50.136  1.00  0.00     0.124 A 
HETATM   19 BR1  UNL     1      27.522   7.811  48.670  1.00  0.00    -0.128 Br
ENDBRANCH  16  17
ENDBRANCH  14  15
ENDBRANCH  11  13
ENDBRANCH   8  11
BRANCH   1  20
HETATM   20  N1  UNL     1      27.122   0.164  52.907  1.00  0.00    -0.324 N 
HETATM   21  C3  UNL     1      28.063   0.334  53.950  1.00  0.00     0.244 C 
HETATM   22  O1  UNL     1      27.667   0.667  55.093  1.00  0.00    -0.268 OA
HETATM   23  H4  UNL     1      27.612  -0.111  52.029  1.00  0.00     0.169 HD
BRANCH  21  24
HETATM   24  C2  UNL     1      29.501   0.154  53.833  1.00  0.00     0.064 C 
HETATM   25  C1  UNL     1      29.759  -1.086  53.531  1.00  0.00     0.017 C 
ENDBRANCH  21  24
ENDBRANCH   1  20
TORSDOF 6
ENDMDL
MODEL 4
REMARK VINA RESULT:      -7.2      2.252      5.047
REMARK  6 active torsions:
REMARK  status: ('A' for Active; 'I' for Inactive)
REMARK    1  A    between atoms: C2_2  and  C3_3 
REMARK       I    between atoms: C3_3  and  N1_5 
REMARK    2  A    between atoms: N1_5  and  C4_6 
REMARK    3  A    between atoms: C9_13  and  N4_14 
REMARK    4  A    between atoms: N4_14  and  C10_15 
REMARK    5  A    between atoms: C11_16  and  C12_17 
REMARK    6  A    between atoms: C13_18  and  C14_19 
ROOT
HETATM    1  C4  UNL     1      23.314  -0.582  53.511  1.00  0.00     0.036 A 
HETATM    2  C5  UNL     1      23.576  -1.024  54.771  1.00  0.00     0.032 A 
HETATM    3  C6  UNL     1      24.801  -0.960  55.399  1.00  0.00     0.035 A 
HETATM    4  C7  UNL     1      25.859  -0.407  54.712  1.00  0.00     0.072 A 
HETATM    5  N2  UNL     1      27.103  -0.288  55.216  1.00  0.00    -0.241 NA
HETATM    6  C8  UNL     1      28.106   0.265  54.495  1.00  0.00     0.236 A 
HETATM    7  N3  UNL     1      27.881   0.720  53.227  1.00  0.00    -0.224 NA
HETATM    8  C9  UNL     1      26.656   0.610  52.713  1.00  0.00     0.141 A 
HETATM    9  C16 UNL     1      25.626   0.049  53.436  1.00  0.00     0.041 A 
HETATM   10  C17 UNL     1      24.386  -0.034  52.848  1.00  0.00     0.047 A 
ENDROOT
BRANCH   8  11
HETATM   11  N4  UNL     1      26.508   1.107  51.390  1.00  0.00    -0.350 N 
HETATM   12  H8  UNL     1      26.430   0.689  50.441  1.00  0.00     0.166 HD
BRANCH  11  13
HETATM   13  C10 UNL     1      26.434   2.501  51.158  1.00  0.00     0.090 C 
HETATM   14  C11 UNL     1      26.455   3.005  49.913  1.00  0.00     0.017 C 
BRANCH  14  15
HETATM   15  C12 UNL     1      26.380   4.440  49.673  1.00  0.00     0.002 C 
HETATM   16  C13 UNL     1      25.251   4.981  49.248  1.00  0.00     0.015 C 
BRANCH  16  17
HETATM   17  C14 UNL     1      23.999   4.312  48.971  1.00  0.00    -0.012 A 
HETATM   18  C15 UNL     1      22.909   4.709  48.305  1.00  0.00     0.124 A 
HETATM   19 BR1  UNL     1      22.736   2.911  49.008  1.00  0.00    -0.128 Br
ENDBRANCH  16  17
ENDBRANCH  14  15
ENDBRANCH  11  13
ENDBRANCH   8  11
BRANCH   1  20
HETATM   20  N1  UNL     1      22.080  -0.622  52.819  1.00  0.00    -0.324 N 
HETATM   21  C3  UNL     1      20.839  -0.045  53.177  1.00  0.00     0.244 C 
HETATM   22  O1  UNL     1      20.744   0.608  54.243  1.00  0.00    -0.268 OA
HETATM   23  H4  UNL     1      21.989  -1.127  51.912  1.00  0.00     0.169 HD
BRANCH  21  24
HETATM   24  C2  UNL     1      19.610  -0.133  52.405  1.00  0.00     0.064 C 
HETATM   25  C1  UNL     1      19.542   0.874  51.582  1.00  0.00     0.017 C 
ENDBRANCH  21  24
ENDBRANCH   1  20
TORSDOF 6
ENDMDL
MODEL 5
REMARK VINA RESULT:      -7.2      2.504      5.251
REMARK  6 active torsions:
REMARK  status: ('A' for Active; 'I' for Inactive)
REMARK    1  A    between atoms: C2_2  and  C3_3 
REMARK       I    between atoms: C3_3  and  N1_5 
REMARK    2  A    between atoms: N1_5  and  C4_6 
REMARK    3  A    between atoms: C9_13  and  N4_14 
REMARK    4  A    between atoms: N4_14  and  C10_15 
REMARK    5  A    between atoms: C11_16  and  C12_17 
REMARK    6  A    between atoms: C13_18  and  C14_19 
ROOT
HETATM    1  C4  UNL     1      23.704  -0.269  53.466  1.00  0.00     0.036 A 
HETATM    2  C5  UNL     1      24.397  -0.753  54.532  1.00  0.00     0.032 A 
HETATM    3  C6  UNL     1      25.689  -0.409  54.866  1.00  0.00     0.035 A 
HETATM    4  C7  UNL     1      26.350   0.499  54.068  1.00  0.00     0.072 A 
HETATM    5  N2  UNL     1      27.612   0.915  54.289  1.00  0.00    -0.241 NA
HETATM    6  C8  UNL     1      28.213   1.810  53.471  1.00  0.00     0.236 A 
HETATM    7  N3  UNL     1      27.549   2.320  52.392  1.00  0.00    -0.224 NA
HETATM    8  C9  UNL     1      26.299   1.919  52.158  1.00  0.00     0.141 A 
HETATM    9  C16 UNL     1      25.676   1.008  52.983  1.00  0.00     0.041 A 
HETATM   10  C17 UNL     1      24.386   0.636  52.687  1.00  0.00     0.047 A 
ENDROOT
BRANCH   8  11
HETATM   11  N4  UNL     1      25.681   2.496  51.016  1.00  0.00    -0.350 N 
HETATM   12  H8  UNL     1      24.706   2.700  50.720  1.00  0.00     0.166 HD
BRANCH  11  13
HETATM   13  C10 UNL     1      26.472   2.950  49.934  1.00  0.00     0.090 C 
HETATM   14  C11 UNL     1      26.786   4.249  49.794  1.00  0.00     0.017 C 
BRANCH  14  15
HETATM   15  C12 UNL     1      27.599   4.719  48.681  1.00  0.00     0.002 C 
HETATM   16  C13 UNL     1      27.484   5.965  48.257  1.00  0.00     0.015 C 
BRANCH  16  17
HETATM   17  C14 UNL     1      26.612   6.998  48.773  1.00  0.00    -0.012 A 
HETATM   18  C15 UNL     1      25.964   7.998  48.165  1.00  0.00     0.124 A 
HETATM   19 BR1  UNL     1      25.652   7.964  50.078  1.00  0.00    -0.128 Br
ENDBRANCH  16  17
ENDBRANCH  14  15
ENDBRANCH  11  13
ENDBRANCH   8  11
BRANCH   1  20
HETATM   20  N1  UNL     1      22.381  -0.585  53.078  1.00  0.00    -0.324 N 
HETATM   21  C3  UNL     1      21.168  -0.343  53.765  1.00  0.00     0.244 C 
HETATM   22  O1  UNL     1      21.192   0.230  54.880  1.00  0.00    -0.268 OA
HETATM   23  H4  UNL     1      22.187  -1.065  52.173  1.00  0.00     0.169 HD
BRANCH  21  24
HETATM   24  C2  UNL     1      19.841  -0.702  53.293  1.00  0.00     0.064 C 
HETATM   25  C1  UNL     1      19.533   0.032  52.262  1.00  0.00     0.017 C 
ENDBRANCH  21  24
ENDBRANCH   1  20
TORSDOF 6
ENDMDL
MODEL 6
REMARK VINA RESULT:      -7.1      4.410      7.944
REMARK  6 active torsions:
REMARK  status: ('A' for Active; 'I' for Inactive)
REMARK    1  A    between atoms: C2_2  and  C3_3 
REMARK       I    between atoms: C3_3  and  N1_5 
REMARK    2  A    between atoms: N1_5  and  C4_6 
REMARK    3  A    between atoms: C9_13  and  N4_14 
REMARK    4  A    between atoms: N4_14  and  C10_15 
REMARK    5  A    between atoms: C11_16  and  C12_17 
REMARK    6  A    between atoms: C13_18  and  C14_19 
ROOT
HETATM    1  C4  UNL     1      28.673   5.710  48.101  1.00  0.00     0.036 A 
HETATM    2  C5  UNL     1      28.033   6.866  47.777  1.00  0.00     0.032 A 
HETATM    3  C6  UNL     1      26.723   7.165  48.085  1.00  0.00     0.035 A 
HETATM    4  C7  UNL     1      25.985   6.230  48.777  1.00  0.00     0.072 A 
HETATM    5  N2  UNL     1      24.698   6.404  49.135  1.00  0.00    -0.241 NA
HETATM    6  C8  UNL     1      24.020   5.449  49.815  1.00  0.00     0.236 A 
HETATM    7  N3  UNL     1      24.629   4.276  50.157  1.00  0.00    -0.224 NA
HETATM    8  C9  UNL     1      25.903   4.087  49.810  1.00  0.00     0.141 A 
HETATM    9  C16 UNL     1      26.604   5.050  49.118  1.00  0.00     0.041 A 
HETATM   10  C17 UNL     1      27.914   4.794  48.791  1.00  0.00     0.047 A 
ENDROOT
BRANCH   8  11
HETATM   11  N4  UNL     1      26.460   2.840  50.204  1.00  0.00    -0.350 N 
HETATM   12  H8  UNL     1      27.281   2.269  49.921  1.00  0.00     0.166 HD
BRANCH  11  13
HETATM   13  C10 UNL     1      25.845   2.079  51.226  1.00  0.00     0.090 C 
HETATM   14  C11 UNL     1      26.450   1.001  51.755  1.00  0.00     0.017 C 
BRANCH  14  15
HETATM   15  C12 UNL     1      25.819   0.216  52.806  1.00  0.00     0.002 C 
HETATM   16  C13 UNL     1      26.558  -0.341  53.750  1.00  0.00     0.015 C 
BRANCH  16  17
HETATM   17  C14 UNL     1      27.996  -0.279  53.899  1.00  0.00    -0.012 A 
HETATM   18  C15 UNL     1      28.775   0.484  54.673  1.00  0.00     0.124 A 
HETATM   19 BR1  UNL     1      29.794  -0.741  53.570  1.00  0.00    -0.128 Br
ENDBRANCH  16  17
ENDBRANCH  14  15
ENDBRANCH  11  13
ENDBRANCH   8  11
BRANCH   1  20
HETATM   20  N1  UNL     1      30.010   5.351  47.812  1.00  0.00    -0.324 N 
HETATM   21  C3  UNL     1      31.205   5.792  48.429  1.00  0.00     0.244 C 
HETATM   22  O1  UNL     1      31.146   6.616  49.373  1.00  0.00    -0.268 OA
HETATM   23  H4  UNL     1      30.233   4.673  47.052  1.00  0.00     0.169 HD
BRANCH  21  24
HETATM   24  C2  UNL     1      32.549   5.372  48.070  1.00  0.00     0.064 C 
HETATM   25  C1  UNL     1      32.537   4.111  47.743  1.00  0.00     0.017 C 
ENDBRANCH  21  24
ENDBRANCH   1  20
TORSDOF 6
ENDMDL
MODEL 7
REMARK VINA RESULT:      -7.1      2.414      3.051
REMARK  6 active torsions:
REMARK  status: ('A' for Active; 'I' for Inactive)
REMARK    1  A    between atoms: C2_2  and  C3_3 
REMARK       I    between atoms: C3_3  and  N1_5 
REMARK    2  A    between atoms: N1_5  and  C4_6 
REMARK    3  A    between atoms: C9_13  and  N4_14 
REMARK    4  A    between atoms: N4_14  and  C10_15 
REMARK    5  A    between atoms: C11_16  and  C12_17 
REMARK    6  A    between atoms: C13_18  and  C14_19 
ROOT
HETATM    1  C4  UNL     1      25.889   0.405  52.869  1.00  0.00     0.036 A 
HETATM    2  C5  UNL     1      24.971  -0.513  53.275  1.00  0.00     0.032 A 
HETATM    3  C6  UNL     1      23.609  -0.312  53.319  1.00  0.00     0.035 A 
HETATM    4  C7  UNL     1      23.115   0.912  52.923  1.00  0.00     0.072 A 
HETATM    5  N2  UNL     1      21.806   1.230  52.921  1.00  0.00    -0.241 NA
HETATM    6  C8  UNL     1      21.378   2.451  52.522  1.00  0.00     0.236 A 
HETATM    7  N3  UNL     1      22.269   3.399  52.107  1.00  0.00    -0.224 NA
HETATM    8  C9  UNL     1      23.569   3.100  52.103  1.00  0.00     0.141 A 
HETATM    9  C16 UNL     1      24.019   1.862  52.507  1.00  0.00     0.041 A 
HETATM   10  C17 UNL     1      25.371   1.618  52.479  1.00  0.00     0.047 A 
ENDROOT
BRANCH   8  11
HETATM   11  N4  UNL     1      24.428   4.141  51.658  1.00  0.00    -0.350 N 
HETATM   12  H8  UNL     1      25.401   4.445  51.867  1.00  0.00     0.166 HD
BRANCH  11  13
HETATM   13  C10 UNL     1      23.977   5.071  50.692  1.00  0.00     0.090 C 
HETATM   14  C11 UNL     1      24.309   4.950  49.396  1.00  0.00     0.017 C 
BRANCH  14  15
HETATM   15  C12 UNL     1      23.845   5.906  48.400  1.00  0.00     0.002 C 
HETATM   16  C13 UNL     1      22.937   5.546  47.509  1.00  0.00     0.015 C 
BRANCH  16  17
HETATM   17  C14 UNL     1      22.295   4.256  47.373  1.00  0.00    -0.012 A 
HETATM   18  C15 UNL     1      21.831   3.605  46.300  1.00  0.00     0.124 A 
HETATM   19 BR1  UNL     1      21.578   2.608  47.943  1.00  0.00    -0.128 Br
ENDBRANCH  16  17
ENDBRANCH  14  15
ENDBRANCH  11  13
ENDBRANCH   8  11
BRANCH   1  20
HETATM   20  N1  UNL     1      27.294   0.254  52.803  1.00  0.00    -0.324 N 
HETATM   21  C3  UNL     1      28.258   0.422  53.825  1.00  0.00     0.244 C 
HETATM   22  O1  UNL     1      27.886   0.750  54.978  1.00  0.00    -0.268 OA
HETATM   23  H4  UNL     1      27.765  -0.017  51.913  1.00  0.00     0.169 HD
BRANCH  21  24
HETATM   24  C2  UNL     1      29.693   0.246  53.675  1.00  0.00     0.064 C 
HETATM   25  C1  UNL     1      29.977  -1.025  53.689  1.00  0.00     0.017 C 
ENDBRANCH  21  24
ENDBRANCH   1  20
TORSDOF 6
ENDMDL
MODEL 8
REMARK VINA RESULT:      -6.9      5.723      9.172
REMARK  6 active torsions:
REMARK  status: ('A' for Active; 'I' for Inactive)
REMARK    1  A    between atoms: C2_2  and  C3_3 
REMARK       I    between atoms: C3_3  and  N1_5 
REMARK    2  A    between atoms: N1_5  and  C4_6 
REMARK    3  A    between atoms: C9_13  and  N4_14 
REMARK    4  A    between atoms: N4_14  and  C10_15 
REMARK    5  A    between atoms: C11_16  and  C12_17 
REMARK    6  A    between atoms: C13_18  and  C14_19 
ROOT
HETATM    1  C4  UNL     1      31.045   5.703  47.664  1.00  0.00     0.036 A 
HETATM    2  C5  UNL     1      31.125   6.847  46.931  1.00  0.00     0.032 A 
HETATM    3  C6  UNL     1      30.074   7.696  46.662  1.00  0.00     0.035 A 
HETATM    4  C7  UNL     1      28.832   7.379  47.167  1.00  0.00     0.072 A 
HETATM    5  N2  UNL     1      27.728   8.127  46.974  1.00  0.00    -0.241 NA
HETATM    6  C8  UNL     1      26.532   7.766  47.495  1.00  0.00     0.236 A 
HETATM    7  N3  UNL     1      26.413   6.625  48.236  1.00  0.00    -0.224 NA
HETATM    8  C9  UNL     1      27.495   5.873  48.437  1.00  0.00     0.141 A 
HETATM    9  C16 UNL     1      28.719   6.229  47.912  1.00  0.00     0.041 A 
HETATM   10  C17 UNL     1      29.796   5.411  48.157  1.00  0.00     0.047 A 
ENDROOT
BRANCH   8  11
HETATM   11  N4  UNL     1      27.285   4.705  49.218  1.00  0.00    -0.350 N 
HETATM   12  H8  UNL     1      27.888   3.963  49.626  1.00  0.00     0.166 HD
BRANCH  11  13
HETATM   13  C10 UNL     1      25.975   4.338  49.610  1.00  0.00     0.090 C 
HETATM   14  C11 UNL     1      25.736   3.187  50.259  1.00  0.00     0.017 C 
BRANCH  14  15
HETATM   15  C12 UNL     1      24.389   2.808  50.663  1.00  0.00     0.002 C 
HETATM   16  C13 UNL     1      24.208   1.806  51.506  1.00  0.00     0.015 C 
BRANCH  16  17
HETATM   17  C14 UNL     1      25.220   0.979  52.126  1.00  0.00    -0.012 A 
HETATM   18  C15 UNL     1      25.128  -0.028  53.003  1.00  0.00     0.124 A 
HETATM   19 BR1  UNL     1      26.961   0.358  52.502  1.00  0.00    -0.128 Br
ENDBRANCH  16  17
ENDBRANCH  14  15
ENDBRANCH  11  13
ENDBRANCH   8  11
BRANCH   1  20
HETATM   20  N1  UNL     1      32.088   4.798  47.971  1.00  0.00    -0.324 N 
HETATM   21  C3  UNL     1      32.431   3.583  47.331  1.00  0.00     0.244 C 
HETATM   22  O1  UNL     1      31.762   3.193  46.345  1.00  0.00    -0.268 OA
HETATM   23  H4  UNL     1      32.738   4.976  48.766  1.00  0.00     0.169 HD
BRANCH  21  24
HETATM   24  C2  UNL     1      33.525   2.705  47.711  1.00  0.00     0.064 C 
HETATM   25  C1  UNL     1      34.633   3.388  47.760  1.00  0.00     0.017 C 
ENDBRANCH  21  24
ENDBRANCH   1  20
TORSDOF 6
ENDMDL
MODEL 9
REMARK VINA RESULT:      -6.8      3.612      7.236
REMARK  6 active torsions:
REMARK  status: ('A' for Active; 'I' for Inactive)
REMARK    1  A    between atoms: C2_2  and  C3_3 
REMARK       I    between atoms: C3_3  and  N1_5 
REMARK    2  A    between atoms: N1_5  and  C4_6 
REMARK    3  A    between atoms: C9_13  and  N4_14 
REMARK    4  A    between atoms: N4_14  and  C10_15 
REMARK    5  A    between atoms: C11_16  and  C12_17 
REMARK    6  A    between atoms: C13_18  and  C14_19 
ROOT
HETATM    1  C4  UNL     1      26.208   6.074  48.981  1.00  0.00     0.036 A 
HETATM    2  C5  UNL     1      25.121   6.475  48.268  1.00  0.00     0.032 A 
HETATM    3  C6  UNL     1      23.851   5.955  48.390  1.00  0.00     0.035 A 
HETATM    4  C7  UNL     1      23.643   4.946  49.305  1.00  0.00     0.072 A 
HETATM    5  N2  UNL     1      22.451   4.357  49.518  1.00  0.00    -0.241 NA
HETATM    6  C8  UNL     1      22.305   3.368  50.431  1.00  0.00     0.236 A 
HETATM    7  N3  UNL     1      23.373   2.939  51.167  1.00  0.00    -0.224 NA
HETATM    8  C9  UNL     1      24.561   3.512  50.969  1.00  0.00     0.141 A 
HETATM    9  C16 UNL     1      24.723   4.518  50.043  1.00  0.00     0.041 A 
HETATM   10  C17 UNL     1      25.973   5.067  49.887  1.00  0.00     0.047 A 
ENDROOT
BRANCH   8  11
HETATM   11  N4  UNL     1      25.618   3.007  51.774  1.00  0.00    -0.350 N 
HETATM   12  H8  UNL     1      26.490   3.394  52.186  1.00  0.00     0.166 HD
BRANCH  11  13
HETATM   13  C10 UNL     1      25.609   1.655  52.193  1.00  0.00     0.090 C 
HETATM   14  C11 UNL     1      26.476   0.761  51.688  1.00  0.00     0.017 C 
BRANCH  14  15
HETATM   15  C12 UNL     1      26.469  -0.630  52.118  1.00  0.00     0.002 C 
HETATM   16  C13 UNL     1      27.395  -1.070  52.951  1.00  0.00     0.015 C 
BRANCH  16  17
HETATM   17  C14 UNL     1      28.485  -0.321  53.537  1.00  0.00    -0.012 A 
HETATM   18  C15 UNL     1      29.772  -0.632  53.731  1.00  0.00     0.124 A 
HETATM   19 BR1  UNL     1      29.333   1.147  54.364  1.00  0.00    -0.128 Br
ENDBRANCH  16  17
ENDBRANCH  14  15
ENDBRANCH  11  13
ENDBRANCH   8  11
BRANCH   1  20
HETATM   20  N1  UNL     1      27.529   6.571  48.897  1.00  0.00    -0.324 N 
HETATM   21  C3  UNL     1      28.713   5.896  48.513  1.00  0.00     0.244 C 
HETATM   22  O1  UNL     1      28.657   4.686  48.187  1.00  0.00    -0.268 OA
HETATM   23  H4  UNL     1      27.748   7.562  49.135  1.00  0.00     0.169 HD
BRANCH  21  24
HETATM   24  C2  UNL     1      30.041   6.483  48.452  1.00  0.00     0.064 C 
HETATM   25  C1  UNL     1      30.284   6.882  47.236  1.00  0.00     0.017 C 
ENDBRANCH  21  24
ENDBRANCH   1  20
TORSDOF 6
ENDMDL
