MODEL 1
REMARK VINA RESULT:      -7.7      0.000      0.000
REMARK  10 active torsions:
REMARK  status: ('A' for Active; 'I' for Inactive)
REMARK    1  A    between atoms: C2_2  and  O1_3 
REMARK    2  A    between atoms: O1_3  and  C3_4 
REMARK    3  A    between atoms: C3_4  and  C4_5 
REMARK    4  A    between atoms: C4_5  and  N1_6 
REMARK    5  A    between atoms: N1_6  and  C5_7 
REMARK    6  A    between atoms: C5_7  and  C6_8 
REMARK    7  A    between atoms: C6_8  and  O2_9 
REMARK    8  A    between atoms: O2_9  and  C7_10 
REMARK    9  A    between atoms: C12_17  and  N4_18 
REMARK   10  A    between atoms: N4_18  and  C13_19 
ROOT
HETATM    1  C7  UNL     1      22.233   0.901  51.475  1.00  0.00     0.071 C 
HETATM    2  C8  UNL     1      23.256   0.660  52.267  1.00  0.00     0.052 C 
HETATM    3  C9  UNL     1      23.341  -0.094  53.489  1.00  0.00     0.041 A 
HETATM    4  C10 UNL     1      22.423  -0.559  54.436  1.00  0.00     0.074 A 
HETATM    5  N2  UNL     1      22.920  -1.226  55.483  1.00  0.00    -0.241 NA
HETATM    6  C11 UNL     1      24.217  -1.459  55.656  1.00  0.00     0.236 A 
HETATM    7  N3  UNL     1      25.056  -1.004  54.739  1.00  0.00    -0.224 NA
HETATM    8  C12 UNL     1      24.684  -0.325  53.649  1.00  0.00     0.142 A 
HETATM    9  C19 UNL     1      20.964  -0.463  54.504  1.00  0.00     0.057 C 
HETATM   10  C20 UNL     1      20.034  -0.298  53.582  1.00  0.00     0.137 C 
HETATM   11  O3  UNL     1      20.172  -0.162  52.205  1.00  0.00    -0.357 OA
HETATM   12  C21 UNL     1      20.788   0.661  51.276  1.00  0.00     0.239 C 
ENDROOT
BRANCH   1  13
HETATM   13  O2  UNL     1      22.524   1.677  50.369  1.00  0.00    -0.352 OA
BRANCH  13  14
HETATM   14  C6  UNL     1      21.622   2.642  49.910  1.00  0.00     0.194 C 
BRANCH  14  15
HETATM   15  C5  UNL     1      22.308   3.990  49.962  1.00  0.00     0.140 C 
BRANCH  15  16
HETATM   16  N1  UNL     1      22.392   4.487  51.276  1.00  0.00    -0.417 N 
HETATM   17  H10 UNL     1      21.580   5.003  51.617  1.00  0.00     0.153 HD
BRANCH  16  18
HETATM   18  C4  UNL     1      23.679   5.019  51.605  1.00  0.00     0.140 C 
BRANCH  18  19
HETATM   19  C3  UNL     1      24.716   4.417  50.710  1.00  0.00     0.186 C 
BRANCH  19  20
HETATM   20  O1  UNL     1      25.388   3.373  51.288  1.00  0.00    -0.390 OA
BRANCH  20  21
HETATM   21  C2  UNL     1      26.459   2.893  50.567  1.00  0.00     0.163 C 
HETATM   22  C1  UNL     1      26.691   3.882  49.415  1.00  0.00     0.033 C 
ENDBRANCH  20  21
ENDBRANCH  19  20
ENDBRANCH  18  19
ENDBRANCH  16  18
ENDBRANCH  15  16
ENDBRANCH  14  15
ENDBRANCH  13  14
ENDBRANCH   1  13
BRANCH   8  23
HETATM   23  N4  UNL     1      25.698   0.093  52.750  1.00  0.00    -0.340 N 
HETATM   24  H17 UNL     1      25.906   0.509  51.827  1.00  0.00     0.167 HD
BRANCH  23  25
HETATM   25  C13 UNL     1      27.086  -0.071  53.107  1.00  0.00     0.036 A 
HETATM   26  C14 UNL     1      27.931  -1.175  52.975  1.00  0.00     0.029 A 
HETATM   27  C15 UNL     1      29.243  -1.183  53.382  1.00  0.00     0.005 A 
HETATM   28  C16 UNL     1      29.766  -0.053  53.951  1.00  0.00     0.042 A 
HETATM   29  C17 UNL     1      28.951   1.063  54.098  1.00  0.00     0.118 A 
HETATM   30  F1  UNL     1      29.644   2.095  54.685  1.00  0.00    -0.206 F 
HETATM   31  C18 UNL     1      27.633   1.058  53.684  1.00  0.00     0.071 A 
ENDBRANCH  23  25
ENDBRANCH   8  23
TORSDOF 10
ENDMDL
MODEL 2
REMARK VINA RESULT:      -7.6      1.271      1.614
REMARK  10 active torsions:
REMARK  status: ('A' for Active; 'I' for Inactive)
REMARK    1  A    between atoms: C2_2  and  O1_3 
REMARK    2  A    between atoms: O1_3  and  C3_4 
REMARK    3  A    between atoms: C3_4  and  C4_5 
REMARK    4  A    between atoms: C4_5  and  N1_6 
REMARK    5  A    between atoms: N1_6  and  C5_7 
REMARK    6  A    between atoms: C5_7  and  C6_8 
REMARK    7  A    between atoms: C6_8  and  O2_9 
REMARK    8  A    between atoms: O2_9  and  C7_10 
REMARK    9  A    between atoms: C12_17  and  N4_18 
REMARK   10  A    between atoms: N4_18  and  C13_19 
ROOT
HETATM    1  C7  UNL     1      22.250   1.124  51.504  1.00  0.00     0.071 C 
HETATM    2  C8  UNL     1      23.254   0.860  52.313  1.00  0.00     0.052 C 
HETATM    3  C9  UNL     1      23.328   0.018  53.477  1.00  0.00     0.041 A 
HETATM    4  C10 UNL     1      22.397  -0.554  54.351  1.00  0.00     0.074 A 
HETATM    5  N2  UNL     1      22.885  -1.280  55.362  1.00  0.00    -0.241 NA
HETATM    6  C11 UNL     1      24.183  -1.477  55.564  1.00  0.00     0.236 A 
HETATM    7  N3  UNL     1      25.034  -0.922  54.717  1.00  0.00    -0.224 NA
HETATM    8  C12 UNL     1      24.672  -0.175  53.668  1.00  0.00     0.142 A 
HETATM    9  C19 UNL     1      20.933  -0.517  54.371  1.00  0.00     0.057 C 
HETATM   10  C20 UNL     1      20.030  -0.317  53.431  1.00  0.00     0.137 C 
HETATM   11  O3  UNL     1      20.210  -0.069  52.074  1.00  0.00    -0.357 OA
HETATM   12  C21 UNL     1      20.824   0.846  51.234  1.00  0.00     0.239 C 
ENDROOT
BRANCH   1  13
HETATM   13  O2  UNL     1      22.548   1.993  50.472  1.00  0.00    -0.352 OA
BRANCH  13  14
HETATM   14  C6  UNL     1      23.831   2.534  50.337  1.00  0.00     0.194 C 
BRANCH  14  15
HETATM   15  C5  UNL     1      23.746   4.020  50.612  1.00  0.00     0.140 C 
BRANCH  15  16
HETATM   16  N1  UNL     1      24.959   4.676  50.334  1.00  0.00    -0.417 N 
HETATM   17  H10 UNL     1      24.896   5.520  49.762  1.00  0.00     0.153 HD
BRANCH  16  18
HETATM   18  C4  UNL     1      26.041   3.784  50.050  1.00  0.00     0.140 C 
BRANCH  18  19
HETATM   19  C3  UNL     1      26.975   4.424  49.069  1.00  0.00     0.186 C 
BRANCH  19  20
HETATM   20  O1  UNL     1      26.799   5.777  48.961  1.00  0.00    -0.390 OA
BRANCH  20  21
HETATM   21  C2  UNL     1      27.742   6.433  48.201  1.00  0.00     0.163 C 
HETATM   22  C1  UNL     1      29.001   5.553  48.211  1.00  0.00     0.033 C 
ENDBRANCH  20  21
ENDBRANCH  19  20
ENDBRANCH  18  19
ENDBRANCH  16  18
ENDBRANCH  15  16
ENDBRANCH  14  15
ENDBRANCH  13  14
ENDBRANCH   1  13
BRANCH   8  23
HETATM   23  N4  UNL     1      25.699   0.350  52.842  1.00  0.00    -0.340 N 
HETATM   24  H17 UNL     1      25.919   0.896  51.993  1.00  0.00     0.167 HD
BRANCH  23  25
HETATM   25  C13 UNL     1      27.081   0.097  53.167  1.00  0.00     0.036 A 
HETATM   26  C14 UNL     1      27.856  -1.053  53.000  1.00  0.00     0.029 A 
HETATM   27  C15 UNL     1      29.173  -1.147  53.380  1.00  0.00     0.005 A 
HETATM   28  C16 UNL     1      29.774  -0.059  53.955  1.00  0.00     0.042 A 
HETATM   29  C17 UNL     1      29.031   1.101  54.136  1.00  0.00     0.118 A 
HETATM   30  F1  UNL     1      29.796   2.080  54.724  1.00  0.00    -0.206 F 
HETATM   31  C18 UNL     1      27.706   1.182  53.750  1.00  0.00     0.071 A 
ENDBRANCH  23  25
ENDBRANCH   8  23
TORSDOF 10
ENDMDL
MODEL 3
REMARK VINA RESULT:      -7.3      2.665      3.673
REMARK  10 active torsions:
REMARK  status: ('A' for Active; 'I' for Inactive)
REMARK    1  A    between atoms: C2_2  and  O1_3 
REMARK    2  A    between atoms: O1_3  and  C3_4 
REMARK    3  A    between atoms: C3_4  and  C4_5 
REMARK    4  A    between atoms: C4_5  and  N1_6 
REMARK    5  A    between atoms: N1_6  and  C5_7 
REMARK    6  A    between atoms: C5_7  and  C6_8 
REMARK    7  A    between atoms: C6_8  and  O2_9 
REMARK    8  A    between atoms: O2_9  and  C7_10 
REMARK    9  A    between atoms: C12_17  and  N4_18 
REMARK   10  A    between atoms: N4_18  and  C13_19 
ROOT
HETATM    1  C7  UNL     1      23.727   2.895  49.727  1.00  0.00     0.071 C 
HETATM    2  C8  UNL     1      24.019   2.472  50.938  1.00  0.00     0.052 C 
HETATM    3  C9  UNL     1      23.489   1.378  51.706  1.00  0.00     0.041 A 
HETATM    4  C10 UNL     1      22.334   0.589  51.647  1.00  0.00     0.074 A 
HETATM    5  N2  UNL     1      22.192  -0.345  52.592  1.00  0.00    -0.241 NA
HETATM    6  C11 UNL     1      23.078  -0.550  53.561  1.00  0.00     0.236 A 
HETATM    7  N3  UNL     1      24.158   0.214  53.585  1.00  0.00    -0.224 NA
HETATM    8  C12 UNL     1      24.416   1.180  52.697  1.00  0.00     0.142 A 
HETATM    9  C19 UNL     1      21.211   0.581  50.708  1.00  0.00     0.057 C 
HETATM   10  C20 UNL     1      21.088   0.977  49.455  1.00  0.00     0.137 C 
HETATM   11  O3  UNL     1      22.037   1.547  48.614  1.00  0.00    -0.357 OA
HETATM   12  C21 UNL     1      22.870   2.652  48.547  1.00  0.00     0.239 C 
ENDROOT
BRANCH   1  13
HETATM   13  O2  UNL     1      24.450   3.993  49.304  1.00  0.00    -0.352 OA
BRANCH  13  14
HETATM   14  C6  UNL     1      25.799   4.140  49.646  1.00  0.00     0.194 C 
BRANCH  14  15
HETATM   15  C5  UNL     1      26.327   5.379  48.958  1.00  0.00     0.140 C 
BRANCH  15  16
HETATM   16  N1  UNL     1      27.721   5.506  49.099  1.00  0.00    -0.417 N 
HETATM   17  H10 UNL     1      28.085   5.473  50.053  1.00  0.00     0.153 HD
BRANCH  16  18
HETATM   18  C4  UNL     1      28.299   6.480  48.224  1.00  0.00     0.140 C 
BRANCH  18  19
HETATM   19  C3  UNL     1      29.671   6.039  47.817  1.00  0.00     0.186 C 
BRANCH  19  20
HETATM   20  O1  UNL     1      30.420   5.572  48.864  1.00  0.00    -0.390 OA
BRANCH  20  21
HETATM   21  C2  UNL     1      31.764   5.419  48.602  1.00  0.00     0.163 C 
HETATM   22  C1  UNL     1      31.873   4.418  47.442  1.00  0.00     0.033 C 
ENDBRANCH  20  21
ENDBRANCH  19  20
ENDBRANCH  18  19
ENDBRANCH  16  18
ENDBRANCH  15  16
ENDBRANCH  14  15
ENDBRANCH  13  14
ENDBRANCH   1  13
BRANCH   8  23
HETATM   23  N4  UNL     1      25.621   1.915  52.847  1.00  0.00    -0.340 N 
HETATM   24  H17 UNL     1      26.062   2.848  52.825  1.00  0.00     0.167 HD
BRANCH  23  25
HETATM   25  C13 UNL     1      26.851   1.222  53.142  1.00  0.00     0.036 A 
HETATM   26  C14 UNL     1      27.242  -0.089  52.865  1.00  0.00     0.029 A 
HETATM   27  C15 UNL     1      28.458  -0.616  53.229  1.00  0.00     0.005 A 
HETATM   28  C16 UNL     1      29.347   0.178  53.903  1.00  0.00     0.042 A 
HETATM   29  C17 UNL     1      28.988   1.489  54.196  1.00  0.00     0.118 A 
HETATM   30  F1  UNL     1      30.001   2.128  54.871  1.00  0.00    -0.206 F 
HETATM   31  C18 UNL     1      27.762   2.006  53.823  1.00  0.00     0.071 A 
ENDBRANCH  23  25
ENDBRANCH   8  23
TORSDOF 10
ENDMDL
MODEL 4
REMARK VINA RESULT:      -7.1      1.625      2.484
REMARK  10 active torsions:
REMARK  status: ('A' for Active; 'I' for Inactive)
REMARK    1  A    between atoms: C2_2  and  O1_3 
REMARK    2  A    between atoms: O1_3  and  C3_4 
REMARK    3  A    between atoms: C3_4  and  C4_5 
REMARK    4  A    between atoms: C4_5  and  N1_6 
REMARK    5  A    between atoms: N1_6  and  C5_7 
REMARK    6  A    between atoms: C5_7  and  C6_8 
REMARK    7  A    between atoms: C6_8  and  O2_9 
REMARK    8  A    between atoms: O2_9  and  C7_10 
REMARK    9  A    between atoms: C12_17  and  N4_18 
REMARK   10  A    between atoms: N4_18  and  C13_19 
ROOT
HETATM    1  C7  UNL     1      23.246   1.664  51.034  1.00  0.00     0.071 C 
HETATM    2  C8  UNL     1      23.768   1.249  52.169  1.00  0.00     0.052 C 
HETATM    3  C9  UNL     1      23.260   0.338  53.159  1.00  0.00     0.041 A 
HETATM    4  C10 UNL     1      22.000  -0.180  53.481  1.00  0.00     0.074 A 
HETATM    5  N2  UNL     1      21.938  -1.011  54.526  1.00  0.00    -0.241 NA
HETATM    6  C11 UNL     1      22.996  -1.357  55.253  1.00  0.00     0.236 A 
HETATM    7  N3  UNL     1      24.170  -0.848  54.919  1.00  0.00    -0.224 NA
HETATM    8  C12 UNL     1      24.364  -0.008  53.896  1.00  0.00     0.142 A 
HETATM    9  C19 UNL     1      20.685   0.011  52.866  1.00  0.00     0.057 C 
HETATM   10  C20 UNL     1      20.308   0.361  51.651  1.00  0.00     0.137 C 
HETATM   11  O3  UNL     1      21.086   0.665  50.539  1.00  0.00    -0.357 OA
HETATM   12  C21 UNL     1      22.071   1.556  50.144  1.00  0.00     0.239 C 
ENDROOT
BRANCH   1  13
HETATM   13  O2  UNL     1      24.031   2.554  50.325  1.00  0.00    -0.352 OA
BRANCH  13  14
HETATM   14  C6  UNL     1      25.118   3.194  50.931  1.00  0.00     0.194 C 
BRANCH  14  15
HETATM   15  C5  UNL     1      25.652   4.229  49.966  1.00  0.00     0.140 C 
BRANCH  15  16
HETATM   16  N1  UNL     1      24.644   4.731  49.122  1.00  0.00    -0.417 N 
HETATM   17  H10 UNL     1      24.690   4.446  48.142  1.00  0.00     0.153 HD
BRANCH  16  18
HETATM   18  C4  UNL     1      24.310   6.099  49.379  1.00  0.00     0.140 C 
BRANCH  18  19
HETATM   19  C3  UNL     1      22.921   6.182  49.931  1.00  0.00     0.186 C 
BRANCH  19  20
HETATM   20  O1  UNL     1      22.881   6.143  51.299  1.00  0.00    -0.390 OA
BRANCH  20  21
HETATM   21  C2  UNL     1      22.081   5.158  51.835  1.00  0.00     0.163 C 
HETATM   22  C1  UNL     1      20.909   4.966  50.861  1.00  0.00     0.033 C 
ENDBRANCH  20  21
ENDBRANCH  19  20
ENDBRANCH  18  19
ENDBRANCH  16  18
ENDBRANCH  15  16
ENDBRANCH  14  15
ENDBRANCH  13  14
ENDBRANCH   1  13
BRANCH   8  23
HETATM   23  N4  UNL     1      25.684   0.450  53.655  1.00  0.00    -0.340 N 
HETATM   24  H17 UNL     1      26.302   1.274  53.571  1.00  0.00     0.167 HD
BRANCH  23  25
HETATM   25  C13 UNL     1      26.733  -0.499  53.375  1.00  0.00     0.036 A 
HETATM   26  C14 UNL     1      26.680  -1.759  52.776  1.00  0.00     0.029 A 
HETATM   27  C15 UNL     1      27.778  -2.563  52.591  1.00  0.00     0.005 A 
HETATM   28  C16 UNL     1      29.002  -2.117  53.012  1.00  0.00     0.042 A 
HETATM   29  C17 UNL     1      29.091  -0.867  53.613  1.00  0.00     0.118 A 
HETATM   30  F1  UNL     1      30.390  -0.591  53.968  1.00  0.00    -0.206 F 
HETATM   31  C18 UNL     1      27.977  -0.069  53.794  1.00  0.00     0.071 A 
ENDBRANCH  23  25
ENDBRANCH   8  23
TORSDOF 10
ENDMDL
MODEL 5
REMARK VINA RESULT:      -7.1      5.132      8.907
REMARK  10 active torsions:
REMARK  status: ('A' for Active; 'I' for Inactive)
REMARK    1  A    between atoms: C2_2  and  O1_3 
REMARK    2  A    between atoms: O1_3  and  C3_4 
REMARK    3  A    between atoms: C3_4  and  C4_5 
REMARK    4  A    between atoms: C4_5  and  N1_6 
REMARK    5  A    between atoms: N1_6  and  C5_7 
REMARK    6  A    between atoms: C5_7  and  C6_8 
REMARK    7  A    between atoms: C6_8  and  O2_9 
REMARK    8  A    between atoms: O2_9  and  C7_10 
REMARK    9  A    between atoms: C12_17  and  N4_18 
REMARK   10  A    between atoms: N4_18  and  C13_19 
ROOT
HETATM    1  C7  UNL     1      26.786   4.887  49.044  1.00  0.00     0.071 C 
HETATM    2  C8  UNL     1      27.923   5.469  48.727  1.00  0.00     0.052 C 
HETATM    3  C9  UNL     1      28.193   6.771  48.179  1.00  0.00     0.041 A 
HETATM    4  C10 UNL     1      27.442   7.741  47.507  1.00  0.00     0.074 A 
HETATM    5  N2  UNL     1      28.088   8.849  47.127  1.00  0.00    -0.241 NA
HETATM    6  C11 UNL     1      29.380   9.060  47.356  1.00  0.00     0.236 A 
HETATM    7  N3  UNL     1      30.057   8.120  47.995  1.00  0.00    -0.224 NA
HETATM    8  C12 UNL     1      29.527   6.971  48.427  1.00  0.00     0.142 A 
HETATM    9  C19 UNL     1      26.028   7.787  47.130  1.00  0.00     0.057 C 
HETATM   10  C20 UNL     1      24.954   7.191  47.612  1.00  0.00     0.137 C 
HETATM   11  O3  UNL     1      24.842   6.298  48.672  1.00  0.00    -0.357 OA
HETATM   12  C21 UNL     1      25.318   5.061  49.074  1.00  0.00     0.239 C 
ENDROOT
BRANCH   1  13
HETATM   13  O2  UNL     1      26.909   3.610  49.555  1.00  0.00    -0.352 OA
BRANCH  13  14
HETATM   14  C6  UNL     1      25.946   3.088  50.426  1.00  0.00     0.194 C 
BRANCH  14  15
HETATM   15  C5  UNL     1      26.601   2.011  51.262  1.00  0.00     0.140 C 
BRANCH  15  16
HETATM   16  N1  UNL     1      27.260   2.545  52.385  1.00  0.00    -0.417 N 
HETATM   17  H10 UNL     1      28.194   2.926  52.224  1.00  0.00     0.153 HD
BRANCH  16  18
HETATM   18  C4  UNL     1      27.076   1.774  53.577  1.00  0.00     0.140 C 
BRANCH  18  19
HETATM   19  C3  UNL     1      27.016   0.319  53.230  1.00  0.00     0.186 C 
BRANCH  19  20
HETATM   20  O1  UNL     1      27.600  -0.485  54.171  1.00  0.00    -0.390 OA
BRANCH  20  21
HETATM   21  C2  UNL     1      28.873  -0.118  54.548  1.00  0.00     0.163 C 
HETATM   22  C1  UNL     1      29.839  -0.858  53.611  1.00  0.00     0.033 C 
ENDBRANCH  20  21
ENDBRANCH  19  20
ENDBRANCH  18  19
ENDBRANCH  16  18
ENDBRANCH  15  16
ENDBRANCH  14  15
ENDBRANCH  13  14
ENDBRANCH   1  13
BRANCH   8  23
HETATM   23  N4  UNL     1      30.379   6.060  49.104  1.00  0.00    -0.340 N 
HETATM   24  H17 UNL     1      30.530   5.509  49.964  1.00  0.00     0.167 HD
BRANCH  23  25
HETATM   25  C13 UNL     1      31.604   5.625  48.481  1.00  0.00     0.036 A 
HETATM   26  C14 UNL     1      32.931   5.964  48.756  1.00  0.00     0.029 A 
HETATM   27  C15 UNL     1      34.004   5.472  48.054  1.00  0.00     0.005 A 
HETATM   28  C16 UNL     1      33.777   4.599  47.024  1.00  0.00     0.042 A 
HETATM   29  C17 UNL     1      32.468   4.242  46.724  1.00  0.00     0.118 A 
HETATM   30  F1  UNL     1      32.436   3.363  45.667  1.00  0.00    -0.206 F 
HETATM   31  C18 UNL     1      31.397   4.744  47.438  1.00  0.00     0.071 A 
ENDBRANCH  23  25
ENDBRANCH   8  23
TORSDOF 10
ENDMDL
MODEL 6
REMARK VINA RESULT:      -7.0      3.487      5.535
REMARK  10 active torsions:
REMARK  status: ('A' for Active; 'I' for Inactive)
REMARK    1  A    between atoms: C2_2  and  O1_3 
REMARK    2  A    between atoms: O1_3  and  C3_4 
REMARK    3  A    between atoms: C3_4  and  C4_5 
REMARK    4  A    between atoms: C4_5  and  N1_6 
REMARK    5  A    between atoms: N1_6  and  C5_7 
REMARK    6  A    between atoms: C5_7  and  C6_8 
REMARK    7  A    between atoms: C6_8  and  O2_9 
REMARK    8  A    between atoms: O2_9  and  C7_10 
REMARK    9  A    between atoms: C12_17  and  N4_18 
REMARK   10  A    between atoms: N4_18  and  C13_19 
ROOT
HETATM    1  C7  UNL     1      25.743   4.834  49.464  1.00  0.00     0.071 C 
HETATM    2  C8  UNL     1      25.728   3.885  50.377  1.00  0.00     0.052 C 
HETATM    3  C9  UNL     1      24.655   3.377  51.188  1.00  0.00     0.041 A 
HETATM    4  C10 UNL     1      23.388   3.839  51.563  1.00  0.00     0.074 A 
HETATM    5  N2  UNL     1      22.677   3.053  52.379  1.00  0.00    -0.241 NA
HETATM    6  C11 UNL     1      23.112   1.883  52.835  1.00  0.00     0.236 A 
HETATM    7  N3  UNL     1      24.314   1.480  52.458  1.00  0.00    -0.224 NA
HETATM    8  C12 UNL     1      25.121   2.172  51.647  1.00  0.00     0.142 A 
HETATM    9  C19 UNL     1      22.656   5.058  51.217  1.00  0.00     0.057 C 
HETATM   10  C20 UNL     1      22.729   5.884  50.190  1.00  0.00     0.137 C 
HETATM   11  O3  UNL     1      23.563   5.838  49.078  1.00  0.00    -0.357 OA
HETATM   12  C21 UNL     1      24.911   5.834  48.762  1.00  0.00     0.239 C 
ENDROOT
BRANCH   1  13
HETATM   13  O2  UNL     1      26.973   5.057  48.877  1.00  0.00    -0.352 OA
BRANCH  13  14
HETATM   14  C6  UNL     1      27.352   6.340  48.466  1.00  0.00     0.194 C 
BRANCH  14  15
HETATM   15  C5  UNL     1      28.778   6.273  47.968  1.00  0.00     0.140 C 
BRANCH  15  16
HETATM   16  N1  UNL     1      29.687   6.007  49.009  1.00  0.00    -0.417 N 
HETATM   17  H10 UNL     1      29.322   6.086  49.960  1.00  0.00     0.153 HD
BRANCH  16  18
HETATM   18  C4  UNL     1      30.996   6.537  48.776  1.00  0.00     0.140 C 
BRANCH  18  19
HETATM   19  C3  UNL     1      31.703   5.700  47.756  1.00  0.00     0.186 C 
BRANCH  19  20
HETATM   20  O1  UNL     1      31.707   4.365  48.061  1.00  0.00    -0.390 OA
BRANCH  20  21
HETATM   21  C2  UNL     1      32.849   3.684  47.702  1.00  0.00     0.163 C 
HETATM   22  C1  UNL     1      32.413   2.583  46.725  1.00  0.00     0.033 C 
ENDBRANCH  20  21
ENDBRANCH  19  20
ENDBRANCH  18  19
ENDBRANCH  16  18
ENDBRANCH  15  16
ENDBRANCH  14  15
ENDBRANCH  13  14
ENDBRANCH   1  13
BRANCH   8  23
HETATM   23  N4  UNL     1      26.382   1.607  51.325  1.00  0.00    -0.340 N 
HETATM   24  H17 UNL     1      26.983   1.228  50.576  1.00  0.00     0.167 HD
BRANCH  23  25
HETATM   25  C13 UNL     1      27.353   1.380  52.366  1.00  0.00     0.036 A 
HETATM   26  C14 UNL     1      28.031   2.284  53.186  1.00  0.00     0.029 A 
HETATM   27  C15 UNL     1      28.952   1.911  54.135  1.00  0.00     0.005 A 
HETATM   28  C16 UNL     1      29.232   0.580  54.297  1.00  0.00     0.042 A 
HETATM   29  C17 UNL     1      28.576  -0.346  53.496  1.00  0.00     0.118 A 
HETATM   30  F1  UNL     1      28.983  -1.623  53.800  1.00  0.00    -0.206 F 
HETATM   31  C18 UNL     1      27.651   0.043  52.545  1.00  0.00     0.071 A 
ENDBRANCH  23  25
ENDBRANCH   8  23
TORSDOF 10
ENDMDL
MODEL 7
REMARK VINA RESULT:      -7.0      2.385      3.203
REMARK  10 active torsions:
REMARK  status: ('A' for Active; 'I' for Inactive)
REMARK    1  A    between atoms: C2_2  and  O1_3 
REMARK    2  A    between atoms: O1_3  and  C3_4 
REMARK    3  A    between atoms: C3_4  and  C4_5 
REMARK    4  A    between atoms: C4_5  and  N1_6 
REMARK    5  A    between atoms: N1_6  and  C5_7 
REMARK    6  A    between atoms: C5_7  and  C6_8 
REMARK    7  A    between atoms: C6_8  and  O2_9 
REMARK    8  A    between atoms: O2_9  and  C7_10 
REMARK    9  A    between atoms: C12_17  and  N4_18 
REMARK   10  A    between atoms: N4_18  and  C13_19 
ROOT
HETATM    1  C7  UNL     1      23.608   2.174  51.080  1.00  0.00     0.071 C 
HETATM    2  C8  UNL     1      23.772   1.560  52.233  1.00  0.00     0.052 C 
HETATM    3  C9  UNL     1      23.002   0.522  52.863  1.00  0.00     0.041 A 
HETATM    4  C10 UNL     1      21.709   0.010  52.707  1.00  0.00     0.074 A 
HETATM    5  N2  UNL     1      21.347  -0.977  53.534  1.00  0.00    -0.241 NA
HETATM    6  C11 UNL     1      22.144  -1.478  54.472  1.00  0.00     0.236 A 
HETATM    7  N3  UNL     1      23.360  -0.970  54.588  1.00  0.00    -0.224 NA
HETATM    8  C12 UNL     1      23.840   0.016  53.824  1.00  0.00     0.142 A 
HETATM    9  C19 UNL     1      20.635   0.351  51.774  1.00  0.00     0.057 C 
HETATM   10  C20 UNL     1      20.632   0.908  50.577  1.00  0.00     0.137 C 
HETATM   11  O3  UNL     1      21.703   1.357  49.811  1.00  0.00    -0.357 OA
HETATM   12  C21 UNL     1      22.752   2.259  49.879  1.00  0.00     0.239 C 
ENDROOT
BRANCH   1  13
HETATM   13  O2  UNL     1      24.559   3.135  50.793  1.00  0.00    -0.352 OA
BRANCH  13  14
HETATM   14  C6  UNL     1      25.924   2.835  50.855  1.00  0.00     0.194 C 
BRANCH  14  15
HETATM   15  C5  UNL     1      26.553   3.233  49.538  1.00  0.00     0.140 C 
BRANCH  15  16
HETATM   16  N1  UNL     1      27.157   4.502  49.605  1.00  0.00    -0.417 N 
HETATM   17  H10 UNL     1      27.450   4.815  50.532  1.00  0.00     0.153 HD
BRANCH  16  18
HETATM   18  C4  UNL     1      26.534   5.478  48.763  1.00  0.00     0.140 C 
BRANCH  18  19
HETATM   19  C3  UNL     1      27.561   6.453  48.278  1.00  0.00     0.186 C 
BRANCH  19  20
HETATM   20  O1  UNL     1      27.326   7.736  48.695  1.00  0.00    -0.390 OA
BRANCH  20  21
HETATM   21  C2  UNL     1      28.435   8.551  48.741  1.00  0.00     0.163 C 
HETATM   22  C1  UNL     1      28.197   9.552  49.881  1.00  0.00     0.033 C 
ENDBRANCH  20  21
ENDBRANCH  19  20
ENDBRANCH  18  19
ENDBRANCH  16  18
ENDBRANCH  15  16
ENDBRANCH  14  15
ENDBRANCH  13  14
ENDBRANCH   1  13
BRANCH   8  23
HETATM   23  N4  UNL     1      25.168   0.454  54.063  1.00  0.00    -0.340 N 
HETATM   24  H17 UNL     1      25.766   1.207  54.441  1.00  0.00     0.167 HD
BRANCH  23  25
HETATM   25  C13 UNL     1      26.280  -0.369  53.654  1.00  0.00     0.036 A 
HETATM   26  C14 UNL     1      26.319  -1.495  52.829  1.00  0.00     0.029 A 
HETATM   27  C15 UNL     1      27.468  -2.191  52.543  1.00  0.00     0.005 A 
HETATM   28  C16 UNL     1      28.650  -1.770  53.090  1.00  0.00     0.042 A 
HETATM   29  C17 UNL     1      28.646  -0.652  53.917  1.00  0.00     0.118 A 
HETATM   30  F1  UNL     1      29.915  -0.381  54.370  1.00  0.00    -0.206 F 
HETATM   31  C18 UNL     1      27.482   0.039  54.197  1.00  0.00     0.071 A 
ENDBRANCH  23  25
ENDBRANCH   8  23
TORSDOF 10
ENDMDL
MODEL 8
REMARK VINA RESULT:      -7.0      1.454      1.798
REMARK  10 active torsions:
REMARK  status: ('A' for Active; 'I' for Inactive)
REMARK    1  A    between atoms: C2_2  and  O1_3 
REMARK    2  A    between atoms: O1_3  and  C3_4 
REMARK    3  A    between atoms: C3_4  and  C4_5 
REMARK    4  A    between atoms: C4_5  and  N1_6 
REMARK    5  A    between atoms: N1_6  and  C5_7 
REMARK    6  A    between atoms: C5_7  and  C6_8 
REMARK    7  A    between atoms: C6_8  and  O2_9 
REMARK    8  A    between atoms: O2_9  and  C7_10 
REMARK    9  A    between atoms: C12_17  and  N4_18 
REMARK   10  A    between atoms: N4_18  and  C13_19 
ROOT
HETATM    1  C7  UNL     1      21.760   1.146  50.985  1.00  0.00     0.071 C 
HETATM    2  C8  UNL     1      22.769   0.941  51.807  1.00  0.00     0.052 C 
HETATM    3  C9  UNL     1      22.849   0.182  53.026  1.00  0.00     0.041 A 
HETATM    4  C10 UNL     1      21.922  -0.328  53.942  1.00  0.00     0.074 A 
HETATM    5  N2  UNL     1      22.415  -0.982  54.999  1.00  0.00    -0.241 NA
HETATM    6  C11 UNL     1      23.715  -1.162  55.209  1.00  0.00     0.236 A 
HETATM    7  N3  UNL     1      24.561  -0.667  54.321  1.00  0.00    -0.224 NA
HETATM    8  C12 UNL     1      24.194   0.005  53.224  1.00  0.00     0.142 A 
HETATM    9  C19 UNL     1      20.459  -0.293  53.966  1.00  0.00     0.057 C 
HETATM   10  C20 UNL     1      19.551  -0.160  53.017  1.00  0.00     0.137 C 
HETATM   11  O3  UNL     1      19.725  -0.007  51.645  1.00  0.00    -0.357 OA
HETATM   12  C21 UNL     1      20.334   0.847  50.741  1.00  0.00     0.239 C 
ENDROOT
BRANCH   1  13
HETATM   13  O2  UNL     1      22.053   1.941  49.894  1.00  0.00    -0.352 OA
BRANCH  13  14
HETATM   14  C6  UNL     1      23.329   2.489  49.726  1.00  0.00     0.194 C 
BRANCH  14  15
HETATM   15  C5  UNL     1      23.182   3.989  49.591  1.00  0.00     0.140 C 
BRANCH  15  16
HETATM   16  N1  UNL     1      23.634   4.667  50.739  1.00  0.00    -0.417 N 
HETATM   17  H10 UNL     1      22.911   5.033  51.362  1.00  0.00     0.153 HD
BRANCH  16  18
HETATM   18  C4  UNL     1      24.764   5.510  50.499  1.00  0.00     0.140 C 
BRANCH  18  19
HETATM   19  C3  UNL     1      25.486   5.046  49.272  1.00  0.00     0.186 C 
BRANCH  19  20
HETATM   20  O1  UNL     1      26.656   5.722  49.047  1.00  0.00    -0.390 OA
BRANCH  20  21
HETATM   21  C2  UNL     1      27.694   4.954  48.569  1.00  0.00     0.163 C 
HETATM   22  C1  UNL     1      28.832   5.924  48.219  1.00  0.00     0.033 C 
ENDBRANCH  20  21
ENDBRANCH  19  20
ENDBRANCH  18  19
ENDBRANCH  16  18
ENDBRANCH  15  16
ENDBRANCH  14  15
ENDBRANCH  13  14
ENDBRANCH   1  13
BRANCH   8  23
HETATM   23  N4  UNL     1      25.217   0.472  52.359  1.00  0.00    -0.340 N 
HETATM   24  H17 UNL     1      25.458   0.761  51.397  1.00  0.00     0.167 HD
BRANCH  23  25
HETATM   25  C13 UNL     1      26.552   0.667  52.867  1.00  0.00     0.036 A 
HETATM   26  C14 UNL     1      27.172   1.812  53.371  1.00  0.00     0.029 A 
HETATM   27  C15 UNL     1      28.474   1.846  53.808  1.00  0.00     0.005 A 
HETATM   28  C16 UNL     1      29.219   0.698  53.753  1.00  0.00     0.042 A 
HETATM   29  C17 UNL     1      28.632  -0.460  53.256  1.00  0.00     0.118 A 
HETATM   30  F1  UNL     1      29.527  -1.503  53.277  1.00  0.00    -0.206 F 
HETATM   31  C18 UNL     1      27.322  -0.479  52.819  1.00  0.00     0.071 A 
ENDBRANCH  23  25
ENDBRANCH   8  23
TORSDOF 10
ENDMDL
MODEL 9
REMARK VINA RESULT:      -6.9      2.596      4.877
REMARK  10 active torsions:
REMARK  status: ('A' for Active; 'I' for Inactive)
REMARK    1  A    between atoms: C2_2  and  O1_3 
REMARK    2  A    between atoms: O1_3  and  C3_4 
REMARK    3  A    between atoms: C3_4  and  C4_5 
REMARK    4  A    between atoms: C4_5  and  N1_6 
REMARK    5  A    between atoms: N1_6  and  C5_7 
REMARK    6  A    between atoms: C5_7  and  C6_8 
REMARK    7  A    between atoms: C6_8  and  O2_9 
REMARK    8  A    between atoms: O2_9  and  C7_10 
REMARK    9  A    between atoms: C12_17  and  N4_18 
REMARK   10  A    between atoms: N4_18  and  C13_19 
ROOT
HETATM    1  C7  UNL     1      21.732   0.393  53.594  1.00  0.00     0.071 C 
HETATM    2  C8  UNL     1      22.799   0.868  52.986  1.00  0.00     0.052 C 
HETATM    3  C9  UNL     1      24.180   0.471  53.062  1.00  0.00     0.041 A 
HETATM    4  C10 UNL     1      24.951  -0.276  53.960  1.00  0.00     0.074 A 
HETATM    5  N2  UNL     1      26.252  -0.402  53.678  1.00  0.00    -0.241 NA
HETATM    6  C11 UNL     1      26.827   0.139  52.609  1.00  0.00     0.236 A 
HETATM    7  N3  UNL     1      26.066   0.837  51.783  1.00  0.00    -0.224 NA
HETATM    8  C12 UNL     1      24.754   1.036  51.952  1.00  0.00     0.142 A 
HETATM    9  C19 UNL     1      24.596  -0.982  55.192  1.00  0.00     0.057 C 
HETATM   10  C20 UNL     1      23.462  -1.488  55.638  1.00  0.00     0.137 C 
HETATM   11  O3  UNL     1      22.206  -1.501  55.041  1.00  0.00    -0.357 OA
HETATM   12  C21 UNL     1      21.253  -0.622  54.554  1.00  0.00     0.239 C 
ENDROOT
BRANCH   1  13
HETATM   13  O2  UNL     1      20.549   1.031  53.273  1.00  0.00    -0.352 OA
BRANCH  13  14
HETATM   14  C6  UNL     1      20.551   2.334  52.762  1.00  0.00     0.194 C 
BRANCH  14  15
HETATM   15  C5  UNL     1      19.352   2.483  51.852  1.00  0.00     0.140 C 
BRANCH  15  16
HETATM   16  N1  UNL     1      18.898   1.241  51.372  1.00  0.00    -0.417 N 
HETATM   17  H10 UNL     1      18.933   0.461  52.031  1.00  0.00     0.153 HD
BRANCH  16  18
HETATM   18  C4  UNL     1      19.299   0.964  50.027  1.00  0.00     0.140 C 
BRANCH  18  19
HETATM   19  C3  UNL     1      19.148   2.199  49.193  1.00  0.00     0.186 C 
BRANCH  19  20
HETATM   20  O1  UNL     1      20.259   2.484  48.445  1.00  0.00    -0.390 OA
BRANCH  20  21
HETATM   21  C2  UNL     1      21.304   1.598  48.585  1.00  0.00     0.163 C 
HETATM   22  C1  UNL     1      22.437   2.111  47.683  1.00  0.00     0.033 C 
ENDBRANCH  20  21
ENDBRANCH  19  20
ENDBRANCH  18  19
ENDBRANCH  16  18
ENDBRANCH  15  16
ENDBRANCH  14  15
ENDBRANCH  13  14
ENDBRANCH   1  13
BRANCH   8  23
HETATM   23  N4  UNL     1      24.068   1.803  50.977  1.00  0.00    -0.340 N 
HETATM   24  H17 UNL     1      23.257   1.848  50.338  1.00  0.00     0.167 HD
BRANCH  23  25
HETATM   25  C13 UNL     1      24.591   3.086  50.575  1.00  0.00     0.036 A 
HETATM   26  C14 UNL     1      25.589   3.409  49.655  1.00  0.00     0.029 A 
HETATM   27  C15 UNL     1      25.994   4.695  49.388  1.00  0.00     0.005 A 
HETATM   28  C16 UNL     1      25.392   5.729  50.054  1.00  0.00     0.042 A 
HETATM   29  C17 UNL     1      24.393   5.441  50.978  1.00  0.00     0.118 A 
HETATM   30  F1  UNL     1      23.909   6.597  51.543  1.00  0.00    -0.206 F 
HETATM   31  C18 UNL     1      23.997   4.143  51.236  1.00  0.00     0.071 A 
ENDBRANCH  23  25
ENDBRANCH   8  23
TORSDOF 10
ENDMDL
