MODEL 1
REMARK VINA RESULT:      -8.9      0.000      0.000
REMARK  5 active torsions:
REMARK  status: ('A' for Active; 'I' for Inactive)
REMARK    1  A    between atoms: C3_3  and  C4_4 
REMARK    2  A    between atoms: C3_3  and  C18_24 
REMARK    3  A    between atoms: N2_13  and  C11_14 
REMARK    4  A    between atoms: C15_18  and  C16_19 
REMARK    5  A    between atoms: C16_19  and  C17_20 
REMARK       I    between atoms: C17_20  and  N3_21 
ROOT
HETATM    1  C1  UNL     1      23.620   4.302  52.896  1.00  0.00     0.097 C 
HETATM    2  C2  UNL     1      23.554   3.046  52.465  1.00  0.00    -0.140 C 
HETATM    3  C3  UNL     1      23.525   1.835  51.971  1.00  0.00     0.042 C 
ENDROOT
BRANCH   3   4
HETATM    4  C4  UNL     1      22.494   1.332  51.124  1.00  0.00     0.053 C 
HETATM    5  C5  UNL     1      22.313   1.721  49.840  1.00  0.00    -0.047 C 
HETATM    6  C6  UNL     1      23.167   2.724  49.184  1.00  0.00     0.046 C 
HETATM    7  C7  UNL     1      21.285   1.057  49.013  1.00  0.00     0.139 C 
HETATM    8  C8  UNL     1      20.146   2.039  48.851  1.00  0.00     0.221 C 
HETATM    9  O1  UNL     1      19.577   3.136  48.643  1.00  0.00    -0.273 OA
HETATM   10  N1  UNL     1      18.726   1.755  49.011  1.00  0.00    -0.359 N 
HETATM   11  C9  UNL     1      17.273   1.467  49.174  1.00  0.00     0.152 C 
HETATM   12  H8  UNL     1      18.940   0.746  48.953  1.00  0.00     0.162 HD
HETATM   13  C10 UNL     1      17.050   0.100  49.765  1.00  0.00     0.292 C 
HETATM   14  N2  UNL     1      17.428  -0.029  51.182  1.00  0.00     0.093 N 
HETATM   15  C13 UNL     1      18.615   0.774  51.471  1.00  0.00     0.301 C 
HETATM   16  C14 UNL     1      19.249   0.678  52.779  1.00  0.00     0.028 C 
HETATM   17  C15 UNL     1      20.590   0.503  52.857  1.00  0.00     0.016 C 
HETATM   18  N4  UNL     1      21.714   0.427  51.948  1.00  0.00    -0.358 N 
HETATM   19  H25 UNL     1      21.995  -0.565  51.943  1.00  0.00     0.166 HD
BRANCH  14  20
HETATM   20  C11 UNL     1      16.295   0.651  51.875  1.00  0.00     0.268 C 
HETATM   21  C12 UNL     1      15.630  -0.439  52.690  1.00  0.00     0.037 C 
ENDBRANCH  14  20
BRANCH  17  22
HETATM   22  C16 UNL     1      20.833   0.441  54.316  1.00  0.00     0.159 C 
BRANCH  22  23
HETATM   23  C17 UNL     1      21.507  -0.821  54.723  1.00  0.00     0.221 C 
HETATM   24  N3  UNL     1      20.555  -1.878  54.458  1.00  0.00    -0.370 N 
HETATM   25  H23 UNL     1      20.071  -2.702  53.988  1.00  0.00     0.159 HD
HETATM   26  H24 UNL     1      19.675  -2.235  54.932  1.00  0.00     0.159 HD
HETATM   27  O2  UNL     1      22.190  -1.799  55.105  1.00  0.00    -0.273 OA
ENDBRANCH  22  23
ENDBRANCH  17  22
ENDBRANCH   3   4
BRANCH   3  28
HETATM   28  C18 UNL     1      24.739   1.232  52.491  1.00  0.00    -0.013 A 
HETATM   29  C19 UNL     1      25.892   1.319  51.706  1.00  0.00     0.013 A 
HETATM   30  C20 UNL     1      27.082   0.782  52.124  1.00  0.00     0.004 A 
HETATM   31  C21 UNL     1      27.127   0.139  53.352  1.00  0.00     0.042 A 
HETATM   32  C22 UNL     1      26.029   0.031  54.146  1.00  0.00     0.117 A 
HETATM   33  F1  UNL     1      25.978  -0.578  55.356  1.00  0.00    -0.206 F 
HETATM   34  C23 UNL     1      24.821   0.576  53.725  1.00  0.00     0.055 A 
ENDBRANCH   3  28
TORSDOF 5
ENDMDL
MODEL 2
REMARK VINA RESULT:      -8.4      4.011      7.043
REMARK  5 active torsions:
REMARK  status: ('A' for Active; 'I' for Inactive)
REMARK    1  A    between atoms: C3_3  and  C4_4 
REMARK    2  A    between atoms: C3_3  and  C18_24 
REMARK    3  A    between atoms: N2_13  and  C11_14 
REMARK    4  A    between atoms: C15_18  and  C16_19 
REMARK    5  A    between atoms: C16_19  and  C17_20 
REMARK       I    between atoms: C17_20  and  N3_21 
ROOT
HETATM    1  C1  UNL     1      21.544   0.935  49.285  1.00  0.00     0.097 C 
HETATM    2  C2  UNL     1      21.950   1.594  50.366  1.00  0.00    -0.140 C 
HETATM    3  C3  UNL     1      22.269   2.267  51.441  1.00  0.00     0.042 C 
ENDROOT
BRANCH   3   4
HETATM    4  C4  UNL     1      22.578   3.659  51.462  1.00  0.00     0.053 C 
HETATM    5  C5  UNL     1      21.654   4.640  51.336  1.00  0.00    -0.047 C 
HETATM    6  C6  UNL     1      20.220   4.365  51.150  1.00  0.00     0.046 C 
HETATM    7  C7  UNL     1      22.062   6.052  51.483  1.00  0.00     0.139 C 
HETATM    8  C8  UNL     1      22.041   6.665  50.101  1.00  0.00     0.221 C 
HETATM    9  O1  UNL     1      21.615   6.928  48.952  1.00  0.00    -0.273 OA
HETATM   10  N1  UNL     1      23.074   7.502  49.506  1.00  0.00    -0.359 N 
HETATM   11  C9  UNL     1      24.130   8.358  48.896  1.00  0.00     0.152 C 
HETATM   12  H8  UNL     1      23.478   7.640  50.446  1.00  0.00     0.162 HD
HETATM   13  C10 UNL     1      25.379   8.369  49.738  1.00  0.00     0.292 C 
HETATM   14  N2  UNL     1      26.136   7.106  49.735  1.00  0.00     0.093 N 
HETATM   15  C13 UNL     1      25.225   5.963  49.684  1.00  0.00     0.301 C 
HETATM   16  C14 UNL     1      25.755   4.613  49.822  1.00  0.00     0.028 C 
HETATM   17  C15 UNL     1      25.168   3.752  50.688  1.00  0.00     0.016 C 
HETATM   18  N4  UNL     1      24.022   3.741  51.573  1.00  0.00    -0.358 N 
HETATM   19  H25 UNL     1      24.414   3.794  52.526  1.00  0.00     0.166 HD
BRANCH  14  20
HETATM   20  C11 UNL     1      26.816   7.147  48.408  1.00  0.00     0.268 C 
HETATM   21  C12 UNL     1      28.061   7.979  48.638  1.00  0.00     0.037 C 
ENDBRANCH  14  20
BRANCH  17  22
HETATM   22  C16 UNL     1      25.988   2.528  50.548  1.00  0.00     0.159 C 
BRANCH  22  23
HETATM   23  C17 UNL     1      27.003   2.401  51.628  1.00  0.00     0.221 C 
HETATM   24  N3  UNL     1      26.843   1.065  52.161  1.00  0.00    -0.370 N 
HETATM   25  H23 UNL     1      27.018   0.034  52.359  1.00  0.00     0.159 HD
HETATM   26  H24 UNL     1      26.148   0.591  52.805  1.00  0.00     0.159 HD
HETATM   27  O2  UNL     1      27.896   2.434  52.505  1.00  0.00    -0.273 OA
ENDBRANCH  22  23
ENDBRANCH  17  22
ENDBRANCH   3   4
BRANCH   3  28
HETATM   28  C18 UNL     1      22.213   1.266  52.492  1.00  0.00    -0.013 A 
HETATM   29  C19 UNL     1      20.982   1.057  53.120  1.00  0.00     0.013 A 
HETATM   30  C20 UNL     1      20.840   0.128  54.118  1.00  0.00     0.004 A 
HETATM   31  C21 UNL     1      21.948  -0.612  54.503  1.00  0.00     0.042 A 
HETATM   32  C22 UNL     1      23.164  -0.439  53.919  1.00  0.00     0.117 A 
HETATM   33  F1  UNL     1      24.299  -1.112  54.228  1.00  0.00    -0.206 F 
HETATM   34  C23 UNL     1      23.311   0.503  52.906  1.00  0.00     0.055 A 
ENDBRANCH   3  28
TORSDOF 5
ENDMDL
MODEL 3
REMARK VINA RESULT:      -8.4      3.711      5.274
REMARK  5 active torsions:
REMARK  status: ('A' for Active; 'I' for Inactive)
REMARK    1  A    between atoms: C3_3  and  C4_4 
REMARK    2  A    between atoms: C3_3  and  C18_24 
REMARK    3  A    between atoms: N2_13  and  C11_14 
REMARK    4  A    between atoms: C15_18  and  C16_19 
REMARK    5  A    between atoms: C16_19  and  C17_20 
REMARK       I    between atoms: C17_20  and  N3_21 
ROOT
HETATM    1  C1  UNL     1      24.269   7.002  51.482  1.00  0.00     0.097 C 
HETATM    2  C2  UNL     1      24.590   6.012  50.654  1.00  0.00    -0.140 C 
HETATM    3  C3  UNL     1      24.851   5.070  49.786  1.00  0.00     0.042 C 
ENDROOT
BRANCH   3   4
HETATM    4  C4  UNL     1      24.114   3.854  49.665  1.00  0.00     0.053 C 
HETATM    5  C5  UNL     1      23.125   3.655  48.763  1.00  0.00    -0.047 C 
HETATM    6  C6  UNL     1      22.698   4.691  47.808  1.00  0.00     0.046 C 
HETATM    7  C7  UNL     1      22.500   2.322  48.645  1.00  0.00     0.139 C 
HETATM    8  C8  UNL     1      21.119   2.427  49.253  1.00  0.00     0.221 C 
HETATM    9  O1  UNL     1      19.991   2.913  49.498  1.00  0.00    -0.273 OA
HETATM   10  N1  UNL     1      20.510   1.492  50.190  1.00  0.00    -0.359 N 
HETATM   11  C9  UNL     1      19.885   0.539  51.149  1.00  0.00     0.152 C 
HETATM   12  H8  UNL     1      21.235   0.800  49.943  1.00  0.00     0.162 HD
HETATM   13  C10 UNL     1      20.890  -0.464  51.655  1.00  0.00     0.292 C 
HETATM   14  N2  UNL     1      21.903   0.087  52.570  1.00  0.00     0.093 N 
HETATM   15  C13 UNL     1      22.271   1.444  52.170  1.00  0.00     0.301 C 
HETATM   16  C14 UNL     1      23.367   2.122  52.849  1.00  0.00     0.028 C 
HETATM   17  C15 UNL     1      24.330   2.731  52.117  1.00  0.00     0.016 C 
HETATM   18  N4  UNL     1      24.608   2.988  50.719  1.00  0.00    -0.358 N 
HETATM   19  H25 UNL     1      25.391   2.362  50.477  1.00  0.00     0.166 HD
BRANCH  14  20
HETATM   20  C11 UNL     1      21.137   0.229  53.843  1.00  0.00     0.268 C 
HETATM   21  C12 UNL     1      21.463  -1.023  54.631  1.00  0.00     0.037 C 
ENDBRANCH  14  20
BRANCH  17  22
HETATM   22  C16 UNL     1      25.240   3.274  53.149  1.00  0.00     0.159 C 
BRANCH  22  23
HETATM   23  C17 UNL     1      25.947   2.201  53.900  1.00  0.00     0.221 C 
HETATM   24  N3  UNL     1      27.338   2.598  53.934  1.00  0.00    -0.370 N 
HETATM   25  H23 UNL     1      28.269   2.973  54.290  1.00  0.00     0.159 HD
HETATM   26  H24 UNL     1      28.139   2.591  53.239  1.00  0.00     0.159 HD
HETATM   27  O2  UNL     1      26.410   1.232  54.545  1.00  0.00    -0.273 OA
ENDBRANCH  22  23
ENDBRANCH  17  22
ENDBRANCH   3   4
BRANCH   3  28
HETATM   28  C18 UNL     1      25.993   5.591  49.057  1.00  0.00    -0.013 A 
HETATM   29  C19 UNL     1      25.868   6.856  48.477  1.00  0.00     0.013 A 
HETATM   30  C20 UNL     1      26.901   7.425  47.777  1.00  0.00     0.004 A 
HETATM   31  C21 UNL     1      28.088   6.719  47.649  1.00  0.00     0.042 A 
HETATM   32  C22 UNL     1      28.251   5.485  48.198  1.00  0.00     0.117 A 
HETATM   33  F1  UNL     1      29.369   4.723  48.124  1.00  0.00    -0.206 F 
HETATM   34  C23 UNL     1      27.205   4.906  48.908  1.00  0.00     0.055 A 
ENDBRANCH   3  28
TORSDOF 5
ENDMDL
MODEL 4
REMARK VINA RESULT:      -7.9      1.570      1.825
REMARK  5 active torsions:
REMARK  status: ('A' for Active; 'I' for Inactive)
REMARK    1  A    between atoms: C3_3  and  C4_4 
REMARK    2  A    between atoms: C3_3  and  C18_24 
REMARK    3  A    between atoms: N2_13  and  C11_14 
REMARK    4  A    between atoms: C15_18  and  C16_19 
REMARK    5  A    between atoms: C16_19  and  C17_20 
REMARK       I    between atoms: C17_20  and  N3_21 
ROOT
HETATM    1  C1  UNL     1      24.168   4.082  53.453  1.00  0.00     0.097 C 
HETATM    2  C2  UNL     1      23.944   3.003  52.709  1.00  0.00    -0.140 C 
HETATM    3  C3  UNL     1      23.781   1.970  51.922  1.00  0.00     0.042 C 
ENDROOT
BRANCH   3   4
HETATM    4  C4  UNL     1      22.899   1.939  50.802  1.00  0.00     0.053 C 
HETATM    5  C5  UNL     1      23.116   2.613  49.649  1.00  0.00    -0.047 C 
HETATM    6  C6  UNL     1      24.295   3.467  49.436  1.00  0.00     0.046 C 
HETATM    7  C7  UNL     1      22.198   2.425  48.507  1.00  0.00     0.139 C 
HETATM    8  C8  UNL     1      21.367   3.683  48.396  1.00  0.00     0.221 C 
HETATM    9  O1  UNL     1      21.111   4.909  48.374  1.00  0.00    -0.273 OA
HETATM   10  N1  UNL     1      19.923   3.756  48.217  1.00  0.00    -0.359 N 
HETATM   11  C9  UNL     1      18.446   3.834  48.035  1.00  0.00     0.152 C 
HETATM   12  H8  UNL     1      19.924   2.760  47.945  1.00  0.00     0.162 HD
HETATM   13  C10 UNL     1      17.803   2.483  48.207  1.00  0.00     0.292 C 
HETATM   14  N2  UNL     1      17.795   1.975  49.589  1.00  0.00     0.093 N 
HETATM   15  C13 UNL     1      19.022   2.362  50.284  1.00  0.00     0.301 C 
HETATM   16  C14 UNL     1      19.290   1.839  51.617  1.00  0.00     0.028 C 
HETATM   17  C15 UNL     1      20.505   1.306  51.891  1.00  0.00     0.016 C 
HETATM   18  N4  UNL     1      21.771   1.123  51.212  1.00  0.00    -0.358 N 
HETATM   19  H25 UNL     1      21.827   0.114  51.006  1.00  0.00     0.166 HD
BRANCH  14  20
HETATM   20  C11 UNL     1      16.701   2.774  50.214  1.00  0.00     0.268 C 
HETATM   21  C12 UNL     1      15.640   1.756  50.580  1.00  0.00     0.037 C 
ENDBRANCH  14  20
BRANCH  17  22
HETATM   22  C16 UNL     1      20.374   0.888  53.304  1.00  0.00     0.159 C 
BRANCH  22  23
HETATM   23  C17 UNL     1      19.666  -0.413  53.446  1.00  0.00     0.221 C 
HETATM   24  N3  UNL     1      20.471  -1.200  54.356  1.00  0.00    -0.370 N 
HETATM   25  H23 UNL     1      20.801  -1.684  55.244  1.00  0.00     0.159 HD
HETATM   26  H24 UNL     1      21.380  -1.741  54.281  1.00  0.00     0.159 HD
HETATM   27  O2  UNL     1      18.970  -1.455  53.471  1.00  0.00    -0.273 OA
ENDBRANCH  22  23
ENDBRANCH  17  22
ENDBRANCH   3   4
BRANCH   3  28
HETATM   28  C18 UNL     1      24.683   0.978  52.479  1.00  0.00    -0.013 A 
HETATM   29  C19 UNL     1      25.917   0.799  51.849  1.00  0.00     0.013 A 
HETATM   30  C20 UNL     1      26.830  -0.112  52.313  1.00  0.00     0.004 A 
HETATM   31  C21 UNL     1      26.508  -0.866  53.432  1.00  0.00     0.042 A 
HETATM   32  C22 UNL     1      25.318  -0.724  54.075  1.00  0.00     0.117 A 
HETATM   33  F1  UNL     1      24.918  -1.415  55.170  1.00  0.00    -0.206 F 
HETATM   34  C23 UNL     1      24.391   0.200  53.606  1.00  0.00     0.055 A 
ENDBRANCH   3  28
TORSDOF 5
ENDMDL
MODEL 5
REMARK VINA RESULT:      -7.8      3.247      5.900
REMARK  5 active torsions:
REMARK  status: ('A' for Active; 'I' for Inactive)
REMARK    1  A    between atoms: C3_3  and  C4_4 
REMARK    2  A    between atoms: C3_3  and  C18_24 
REMARK    3  A    between atoms: N2_13  and  C11_14 
REMARK    4  A    between atoms: C15_18  and  C16_19 
REMARK    5  A    between atoms: C16_19  and  C17_20 
REMARK       I    between atoms: C17_20  and  N3_21 
ROOT
HETATM    1  C1  UNL     1      23.251   3.075  48.088  1.00  0.00     0.097 C 
HETATM    2  C2  UNL     1      23.816   3.474  49.224  1.00  0.00    -0.140 C 
HETATM    3  C3  UNL     1      24.433   3.811  50.327  1.00  0.00     0.042 C 
ENDROOT
BRANCH   3   4
HETATM    4  C4  UNL     1      24.303   3.124  51.570  1.00  0.00     0.053 C 
HETATM    5  C5  UNL     1      25.319   2.475  52.185  1.00  0.00    -0.047 C 
HETATM    6  C6  UNL     1      26.676   2.404  51.621  1.00  0.00     0.046 C 
HETATM    7  C7  UNL     1      25.108   1.889  53.525  1.00  0.00     0.139 C 
HETATM    8  C8  UNL     1      25.042   0.389  53.346  1.00  0.00     0.221 C 
HETATM    9  O1  UNL     1      25.359  -0.746  52.921  1.00  0.00    -0.273 OA
HETATM   10  N1  UNL     1      24.057  -0.512  53.929  1.00  0.00    -0.359 N 
HETATM   11  C9  UNL     1      23.050  -1.435  54.523  1.00  0.00     0.152 C 
HETATM   12  H8  UNL     1      23.786   0.238  54.585  1.00  0.00     0.162 HD
HETATM   13  C10 UNL     1      21.919  -0.672  55.163  1.00  0.00     0.292 C 
HETATM   14  N2  UNL     1      21.018   0.004  54.216  1.00  0.00     0.093 N 
HETATM   15  C13 UNL     1      21.769   0.515  53.069  1.00  0.00     0.301 C 
HETATM   16  C14 UNL     1      21.097   1.348  52.081  1.00  0.00     0.028 C 
HETATM   17  C15 UNL     1      21.671   2.510  51.689  1.00  0.00     0.016 C 
HETATM   18  N4  UNL     1      22.903   3.231  51.935  1.00  0.00    -0.358 N 
HETATM   19  H25 UNL     1      22.635   4.035  52.524  1.00  0.00     0.166 HD
BRANCH  14  20
HETATM   20  C11 UNL     1      20.197  -1.128  53.696  1.00  0.00     0.268 C 
HETATM   21  C12 UNL     1      18.857  -0.508  53.354  1.00  0.00     0.037 C 
ENDBRANCH  14  20
BRANCH  17  22
HETATM   22  C16 UNL     1      20.696   3.052  50.716  1.00  0.00     0.159 C 
BRANCH  22  23
HETATM   23  C17 UNL     1      19.412   3.440  51.359  1.00  0.00     0.221 C 
HETATM   24  N3  UNL     1      18.840   4.461  50.508  1.00  0.00    -0.370 N 
HETATM   25  H23 UNL     1      18.217   4.937  49.789  1.00  0.00     0.159 HD
HETATM   26  H24 UNL     1      19.027   5.491  50.339  1.00  0.00     0.159 HD
HETATM   27  O2  UNL     1      18.363   3.667  52.006  1.00  0.00    -0.273 OA
ENDBRANCH  22  23
ENDBRANCH  17  22
ENDBRANCH   3   4
BRANCH   3  28
HETATM   28  C18 UNL     1      25.211   4.972  49.934  1.00  0.00    -0.013 A 
HETATM   29  C19 UNL     1      24.851   6.208  50.479  1.00  0.00     0.013 A 
HETATM   30  C20 UNL     1      25.536   7.353  50.166  1.00  0.00     0.004 A 
HETATM   31  C21 UNL     1      26.606   7.269  49.287  1.00  0.00     0.042 A 
HETATM   32  C22 UNL     1      26.989   6.088  48.734  1.00  0.00     0.117 A 
HETATM   33  F1  UNL     1      28.017   5.911  47.868  1.00  0.00    -0.206 F 
HETATM   34  C23 UNL     1      26.296   4.924  49.050  1.00  0.00     0.055 A 
ENDBRANCH   3  28
TORSDOF 5
ENDMDL
MODEL 6
REMARK VINA RESULT:      -7.7      6.147      9.486
REMARK  5 active torsions:
REMARK  status: ('A' for Active; 'I' for Inactive)
REMARK    1  A    between atoms: C3_3  and  C4_4 
REMARK    2  A    between atoms: C3_3  and  C18_24 
REMARK    3  A    between atoms: N2_13  and  C11_14 
REMARK    4  A    between atoms: C15_18  and  C16_19 
REMARK    5  A    between atoms: C16_19  and  C17_20 
REMARK       I    between atoms: C17_20  and  N3_21 
ROOT
HETATM    1  C1  UNL     1      22.243   4.324  52.315  1.00  0.00     0.097 C 
HETATM    2  C2  UNL     1      22.771   4.847  51.212  1.00  0.00    -0.140 C 
HETATM    3  C3  UNL     1      23.355   5.307  50.136  1.00  0.00     0.042 C 
ENDROOT
BRANCH   3   4
HETATM    4  C4  UNL     1      24.363   6.317  50.132  1.00  0.00     0.053 C 
HETATM    5  C5  UNL     1      24.115   7.632  49.932  1.00  0.00    -0.047 C 
HETATM    6  C6  UNL     1      22.763   8.159  49.685  1.00  0.00     0.046 C 
HETATM    7  C7  UNL     1      25.214   8.611  50.058  1.00  0.00     0.139 C 
HETATM    8  C8  UNL     1      25.561   9.068  48.659  1.00  0.00     0.221 C 
HETATM    9  O1  UNL     1      25.372   9.460  47.483  1.00  0.00    -0.273 OA
HETATM   10  N1  UNL     1      26.897   9.190  48.091  1.00  0.00    -0.359 N 
HETATM   11  C9  UNL     1      28.262   9.314  47.508  1.00  0.00     0.152 C 
HETATM   12  H8  UNL     1      27.287   9.137  49.045  1.00  0.00     0.162 HD
HETATM   13  C10 UNL     1      29.299   8.696  48.410  1.00  0.00     0.292 C 
HETATM   14  N2  UNL     1      29.258   7.226  48.480  1.00  0.00     0.093 N 
HETATM   15  C13 UNL     1      27.877   6.749  48.418  1.00  0.00     0.301 C 
HETATM   16  C14 UNL     1      27.595   5.334  48.621  1.00  0.00     0.028 C 
HETATM   17  C15 UNL     1      26.615   4.968  49.482  1.00  0.00     0.016 C 
HETATM   18  N4  UNL     1      25.621   5.617  50.310  1.00  0.00    -0.358 N 
HETATM   19  H25 UNL     1      25.955   5.500  51.279  1.00  0.00     0.166 HD
BRANCH  14  20
HETATM   20  C11 UNL     1      29.888   6.829  47.187  1.00  0.00     0.268 C 
HETATM   21  C12 UNL     1      31.373   7.031  47.402  1.00  0.00     0.037 C 
ENDBRANCH  14  20
BRANCH  17  22
HETATM   22  C16 UNL     1      26.652   3.490  49.417  1.00  0.00     0.159 C 
BRANCH  22  23
HETATM   23  C17 UNL     1      26.087   2.856  50.639  1.00  0.00     0.221 C 
HETATM   24  N3  UNL     1      27.134   2.924  51.636  1.00  0.00    -0.370 N 
HETATM   25  H23 UNL     1      27.697   3.235  52.484  1.00  0.00     0.159 HD
HETATM   26  H24 UNL     1      28.034   2.394  51.818  1.00  0.00     0.159 HD
HETATM   27  O2  UNL     1      25.488   2.301  51.589  1.00  0.00    -0.273 OA
ENDBRANCH  22  23
ENDBRANCH  17  22
ENDBRANCH   3   4
BRANCH   3  28
HETATM   28  C18 UNL     1      22.731   4.550  49.066  1.00  0.00    -0.013 A 
HETATM   29  C19 UNL     1      23.081   3.203  48.938  1.00  0.00     0.013 A 
HETATM   30  C20 UNL     1      22.534   2.414  47.959  1.00  0.00     0.004 A 
HETATM   31  C21 UNL     1      21.618   2.978  47.083  1.00  0.00     0.042 A 
HETATM   32  C22 UNL     1      21.252   4.285  47.172  1.00  0.00     0.117 A 
HETATM   33  F1  UNL     1      20.369   4.920  46.364  1.00  0.00    -0.206 F 
HETATM   34  C23 UNL     1      21.804   5.087  48.165  1.00  0.00     0.055 A 
ENDBRANCH   3  28
TORSDOF 5
ENDMDL
MODEL 7
REMARK VINA RESULT:      -7.6      4.003      7.521
REMARK  5 active torsions:
REMARK  status: ('A' for Active; 'I' for Inactive)
REMARK    1  A    between atoms: C3_3  and  C4_4 
REMARK    2  A    between atoms: C3_3  and  C18_24 
REMARK    3  A    between atoms: N2_13  and  C11_14 
REMARK    4  A    between atoms: C15_18  and  C16_19 
REMARK    5  A    between atoms: C16_19  and  C17_20 
REMARK       I    between atoms: C17_20  and  N3_21 
ROOT
HETATM    1  C1  UNL     1      21.894   4.532  45.836  1.00  0.00     0.097 C 
HETATM    2  C2  UNL     1      21.805   4.317  47.145  1.00  0.00    -0.140 C 
HETATM    3  C3  UNL     1      21.799   4.123  48.439  1.00  0.00     0.042 C 
ENDROOT
BRANCH   3   4
HETATM    4  C4  UNL     1      22.146   2.895  49.074  1.00  0.00     0.053 C 
HETATM    5  C5  UNL     1      21.243   1.978  49.493  1.00  0.00    -0.047 C 
HETATM    6  C6  UNL     1      19.791   2.165  49.343  1.00  0.00     0.046 C 
HETATM    7  C7  UNL     1      21.709   0.687  50.039  1.00  0.00     0.139 C 
HETATM    8  C8  UNL     1      21.479   0.729  51.533  1.00  0.00     0.221 C 
HETATM    9  O1  UNL     1      20.878   0.946  52.611  1.00  0.00    -0.273 OA
HETATM   10  N1  UNL     1      22.424   0.335  52.569  1.00  0.00    -0.359 N 
HETATM   11  C9  UNL     1      23.389  -0.068  53.630  1.00  0.00     0.152 C 
HETATM   12  H8  UNL     1      22.981  -0.153  51.849  1.00  0.00     0.162 HD
HETATM   13  C10 UNL     1      24.759  -0.317  53.056  1.00  0.00     0.292 C 
HETATM   14  N2  UNL     1      25.469   0.892  52.605  1.00  0.00     0.093 N 
HETATM   15  C13 UNL     1      24.529   1.850  52.025  1.00  0.00     0.301 C 
HETATM   16  C14 UNL     1      25.036   3.054  51.380  1.00  0.00     0.028 C 
HETATM   17  C15 UNL     1      24.575   3.398  50.154  1.00  0.00     0.016 C 
HETATM   18  N4  UNL     1      23.591   2.915  49.208  1.00  0.00    -0.358 N 
HETATM   19  H25 UNL     1      24.135   2.496  48.437  1.00  0.00     0.166 HD
BRANCH  14  20
HETATM   20  C11 UNL     1      25.922   1.492  53.894  1.00  0.00     0.268 C 
HETATM   21  C12 UNL     1      27.006   0.559  54.394  1.00  0.00     0.037 C 
ENDBRANCH  14  20
BRANCH  17  22
HETATM   22  C16 UNL     1      25.325   4.636  49.850  1.00  0.00     0.159 C 
BRANCH  22  23
HETATM   23  C17 UNL     1      26.670   4.358  49.280  1.00  0.00     0.221 C 
HETATM   24  N3  UNL     1      27.364   5.628  49.273  1.00  0.00    -0.370 N 
HETATM   25  H23 UNL     1      28.031   6.411  49.547  1.00  0.00     0.159 HD
HETATM   26  H24 UNL     1      27.328   6.501  48.673  1.00  0.00     0.159 HD
HETATM   27  O2  UNL     1      27.759   3.982  48.787  1.00  0.00    -0.273 OA
ENDBRANCH  22  23
ENDBRANCH  17  22
ENDBRANCH   3   4
BRANCH   3  28
HETATM   28  C18 UNL     1      21.381   5.409  48.968  1.00  0.00    -0.013 A 
HETATM   29  C19 UNL     1      20.047   5.783  48.781  1.00  0.00     0.013 A 
HETATM   30  C20 UNL     1      19.568   6.977  49.254  1.00  0.00     0.004 A 
HETATM   31  C21 UNL     1      20.436   7.822  49.930  1.00  0.00     0.042 A 
HETATM   32  C22 UNL     1      21.741   7.497  50.134  1.00  0.00     0.117 A 
HETATM   33  F1  UNL     1      22.659   8.256  50.780  1.00  0.00    -0.206 F 
HETATM   34  C23 UNL     1      22.229   6.286  49.655  1.00  0.00     0.055 A 
ENDBRANCH   3  28
TORSDOF 5
ENDMDL
MODEL 8
REMARK VINA RESULT:      -7.5      4.218      6.291
REMARK  5 active torsions:
REMARK  status: ('A' for Active; 'I' for Inactive)
REMARK    1  A    between atoms: C3_3  and  C4_4 
REMARK    2  A    between atoms: C3_3  and  C18_24 
REMARK    3  A    between atoms: N2_13  and  C11_14 
REMARK    4  A    between atoms: C15_18  and  C16_19 
REMARK    5  A    between atoms: C16_19  and  C17_20 
REMARK       I    between atoms: C17_20  and  N3_21 
ROOT
HETATM    1  C1  UNL     1      26.267   3.438  49.394  1.00  0.00     0.097 C 
HETATM    2  C2  UNL     1      25.160   3.274  50.113  1.00  0.00    -0.140 C 
HETATM    3  C3  UNL     1      24.049   3.051  50.766  1.00  0.00     0.042 C 
ENDROOT
BRANCH   3   4
HETATM    4  C4  UNL     1      22.787   3.630  50.438  1.00  0.00     0.053 C 
HETATM    5  C5  UNL     1      21.858   3.027  49.660  1.00  0.00    -0.047 C 
HETATM    6  C6  UNL     1      22.064   1.700  49.058  1.00  0.00     0.046 C 
HETATM    7  C7  UNL     1      20.538   3.662  49.472  1.00  0.00     0.139 C 
HETATM    8  C8  UNL     1      20.508   4.208  48.062  1.00  0.00     0.221 C 
HETATM    9  O1  UNL     1      20.675   4.232  46.820  1.00  0.00    -0.273 OA
HETATM   10  N1  UNL     1      20.054   5.531  47.653  1.00  0.00    -0.359 N 
HETATM   11  C9  UNL     1      19.591   6.883  47.233  1.00  0.00     0.152 C 
HETATM   12  H8  UNL     1      19.598   5.639  48.573  1.00  0.00     0.162 HD
HETATM   13  C10 UNL     1      19.359   7.776  48.424  1.00  0.00     0.292 C 
HETATM   14  N2  UNL     1      20.584   8.204  49.121  1.00  0.00     0.093 N 
HETATM   15  C13 UNL     1      21.578   7.132  49.116  1.00  0.00     0.301 C 
HETATM   16  C14 UNL     1      22.808   7.288  49.880  1.00  0.00     0.028 C 
HETATM   17  C15 UNL     1      23.216   6.288  50.697  1.00  0.00     0.016 C 
HETATM   18  N4  UNL     1      22.789   4.948  51.044  1.00  0.00    -0.358 N 
HETATM   19  H25 UNL     1      22.405   5.022  51.998  1.00  0.00     0.166 HD
BRANCH  14  20
HETATM   20  C11 UNL     1      21.115   9.259  48.209  1.00  0.00     0.268 C 
HETATM   21  C12 UNL     1      20.682  10.567  48.837  1.00  0.00     0.037 C 
ENDBRANCH  14  20
BRANCH  17  22
HETATM   22  C16 UNL     1      24.462   6.826  51.286  1.00  0.00     0.159 C 
BRANCH  22  23
HETATM   23  C17 UNL     1      25.548   6.969  50.278  1.00  0.00     0.221 C 
HETATM   24  N3  UNL     1      26.391   8.042  50.760  1.00  0.00    -0.370 N 
HETATM   25  H23 UNL     1      27.213   8.554  51.201  1.00  0.00     0.159 HD
HETATM   26  H24 UNL     1      26.322   9.100  50.785  1.00  0.00     0.159 HD
HETATM   27  O2  UNL     1      26.396   6.979  49.356  1.00  0.00    -0.273 OA
ENDBRANCH  22  23
ENDBRANCH  17  22
ENDBRANCH   3   4
BRANCH   3  28
HETATM   28  C18 UNL     1      24.454   2.128  51.811  1.00  0.00    -0.013 A 
HETATM   29  C19 UNL     1      25.579   2.464  52.570  1.00  0.00     0.013 A 
HETATM   30  C20 UNL     1      26.026   1.652  53.580  1.00  0.00     0.004 A 
HETATM   31  C21 UNL     1      25.339   0.475  53.843  1.00  0.00     0.042 A 
HETATM   32  C22 UNL     1      24.241   0.111  53.128  1.00  0.00     0.117 A 
HETATM   33  F1  UNL     1      23.510  -1.015  53.312  1.00  0.00    -0.206 F 
HETATM   34  C23 UNL     1      23.785   0.934  52.103  1.00  0.00     0.055 A 
ENDBRANCH   3  28
TORSDOF 5
ENDMDL
MODEL 9
REMARK VINA RESULT:      -7.4      7.656     11.242
REMARK  5 active torsions:
REMARK  status: ('A' for Active; 'I' for Inactive)
REMARK    1  A    between atoms: C3_3  and  C4_4 
REMARK    2  A    between atoms: C3_3  and  C18_24 
REMARK    3  A    between atoms: N2_13  and  C11_14 
REMARK    4  A    between atoms: C15_18  and  C16_19 
REMARK    5  A    between atoms: C16_19  and  C17_20 
REMARK       I    between atoms: C17_20  and  N3_21 
ROOT
HETATM    1  C1  UNL     1      23.225   7.782  50.873  1.00  0.00     0.097 C 
HETATM    2  C2  UNL     1      24.131   7.827  49.901  1.00  0.00    -0.140 C 
HETATM    3  C3  UNL     1      25.043   7.793  48.964  1.00  0.00     0.042 C 
ENDROOT
BRANCH   3   4
HETATM    4  C4  UNL     1      26.428   8.062  49.173  1.00  0.00     0.053 C 
HETATM    5  C5  UNL     1      27.008   9.264  48.949  1.00  0.00    -0.047 C 
HETATM    6  C6  UNL     1      26.259  10.428  48.449  1.00  0.00     0.046 C 
HETATM    7  C7  UNL     1      28.427   9.470  49.302  1.00  0.00     0.139 C 
HETATM    8  C8  UNL     1      29.204   9.515  48.006  1.00  0.00     0.221 C 
HETATM    9  O1  UNL     1      29.474   9.827  46.822  1.00  0.00    -0.273 OA
HETATM   10  N1  UNL     1      30.447   8.813  47.713  1.00  0.00    -0.359 N 
HETATM   11  C9  UNL     1      31.717   8.096  47.412  1.00  0.00     0.152 C 
HETATM   12  H8  UNL     1      30.569   8.646  48.725  1.00  0.00     0.162 HD
HETATM   13  C10 UNL     1      32.050   7.097  48.489  1.00  0.00     0.292 C 
HETATM   14  N2  UNL     1      31.172   5.916  48.528  1.00  0.00     0.093 N 
HETATM   15  C13 UNL     1      29.799   6.287  48.189  1.00  0.00     0.301 C 
HETATM   16  C14 UNL     1      28.735   5.300  48.310  1.00  0.00     0.028 C 
HETATM   17  C15 UNL     1      27.591   5.629  48.956  1.00  0.00     0.016 C 
HETATM   18  N4  UNL     1      27.016   6.801  49.584  1.00  0.00    -0.358 N 
HETATM   19  H25 UNL     1      27.054   6.613  50.598  1.00  0.00     0.166 HD
BRANCH  14  20
HETATM   20  C11 UNL     1      31.674   5.110  47.377  1.00  0.00     0.268 C 
HETATM   21  C12 UNL     1      32.923   4.430  47.898  1.00  0.00     0.037 C 
ENDBRANCH  14  20
BRANCH  17  22
HETATM   22  C16 UNL     1      26.794   4.385  48.878  1.00  0.00     0.159 C 
BRANCH  22  23
HETATM   23  C17 UNL     1      25.796   4.282  49.977  1.00  0.00     0.221 C 
HETATM   24  N3  UNL     1      26.414   3.454  50.990  1.00  0.00    -0.370 N 
HETATM   25  H23 UNL     1      26.908   3.162  51.887  1.00  0.00     0.159 HD
HETATM   26  H24 UNL     1      26.597   2.415  51.105  1.00  0.00     0.159 HD
HETATM   27  O2  UNL     1      24.868   4.280  50.818  1.00  0.00    -0.273 OA
ENDBRANCH  22  23
ENDBRANCH  17  22
ENDBRANCH   3   4
BRANCH   3  28
HETATM   28  C18 UNL     1      24.290   7.430  47.777  1.00  0.00    -0.013 A 
HETATM   29  C19 UNL     1      23.406   6.352  47.876  1.00  0.00     0.013 A 
HETATM   30  C20 UNL     1      22.653   5.947  46.805  1.00  0.00     0.004 A 
HETATM   31  C21 UNL     1      22.781   6.629  45.604  1.00  0.00     0.042 A 
HETATM   32  C22 UNL     1      23.630   7.683  45.465  1.00  0.00     0.117 A 
HETATM   33  F1  UNL     1      23.822   8.406  44.334  1.00  0.00    -0.206 F 
HETATM   34  C23 UNL     1      24.395   8.096  46.550  1.00  0.00     0.055 A 
ENDBRANCH   3  28
TORSDOF 5
ENDMDL
