MODEL 1
REMARK VINA RESULT:      -8.1      0.000      0.000
REMARK  3 active torsions:
REMARK  status: ('A' for Active; 'I' for Inactive)
REMARK    1  A    between atoms: C2_3  and  N1_4 
REMARK    2  A    between atoms: N1_4  and  C3_5 
REMARK    3  A    between atoms: C7_11  and  C8_12 
ROOT
HETATM    1  C3  UNL     1      26.792   0.260  53.302  1.00  0.00     0.137 A 
HETATM    2  N2  UNL     1      27.449  -0.255  54.276  1.00  0.00    -0.224 NA
HETATM    3  C4  UNL     1      28.531   0.410  54.881  1.00  0.00     0.229 A 
HETATM    4  N3  UNL     1      28.899   1.556  54.472  1.00  0.00    -0.278 NA
HETATM    5  C5  UNL     1      28.302   2.307  53.386  1.00  0.00     0.192 A 
HETATM    6  C6  UNL     1      27.120   1.595  52.800  1.00  0.00     0.004 A 
HETATM    7  C7  UNL     1      26.379   2.158  51.859  1.00  0.00    -0.008 C 
ENDROOT
BRANCH   1   8
HETATM    8  N1  UNL     1      25.714  -0.486  52.747  1.00  0.00    -0.338 N 
HETATM    9  H1  UNL     1      25.975  -1.115  51.934  1.00  0.00     0.167 HD
BRANCH   8  10
HETATM   10  C2  UNL     1      24.388  -0.349  53.300  1.00  0.00     0.076 A 
HETATM   11  C1  UNL     1      23.803  -0.741  54.416  1.00  0.00     0.164 A 
HETATM   12  F1  UNL     1      24.270  -1.437  55.468  1.00  0.00    -0.202 F 
HETATM   13  C14 UNL     1      22.583  -0.092  53.914  1.00  0.00     0.077 A 
HETATM   14  C13 UNL     1      23.193   0.298  52.787  1.00  0.00     0.059 A 
HETATM   15 CL1  UNL     1      20.984   0.064  54.600  1.00  0.00    -0.081 Cl
ENDBRANCH   8  10
ENDBRANCH   1   8
BRANCH   7  16
HETATM   16  C8  UNL     1      26.171   3.316  51.014  1.00  0.00     0.027 C 
HETATM   17  C9  UNL     1      26.610   3.176  49.579  1.00  0.00     0.036 C 
HETATM   18  C10 UNL     1      26.592   4.590  49.031  1.00  0.00     0.168 C 
HETATM   19  O1  UNL     1      25.342   5.178  49.138  1.00  0.00    -0.390 OA
HETATM   20  C11 UNL     1      24.904   5.298  50.443  1.00  0.00     0.183 C 
HETATM   21  C12 UNL     1      24.759   3.850  50.949  1.00  0.00     0.089 C 
HETATM   22 BR1  UNL     1      23.773   2.955  49.515  1.00  0.00    -0.088 Br
ENDBRANCH   7  16
TORSDOF 3
ENDMDL
MODEL 2
REMARK VINA RESULT:      -7.9      3.977      5.612
REMARK  3 active torsions:
REMARK  status: ('A' for Active; 'I' for Inactive)
REMARK    1  A    between atoms: C2_3  and  N1_4 
REMARK    2  A    between atoms: N1_4  and  C3_5 
REMARK    3  A    between atoms: C7_11  and  C8_12 
ROOT
HETATM    1  C3  UNL     1      22.629  -0.013  52.987  1.00  0.00     0.137 A 
HETATM    2  N2  UNL     1      21.418  -0.178  53.378  1.00  0.00    -0.224 NA
HETATM    3  C4  UNL     1      21.105  -0.862  54.568  1.00  0.00     0.229 A 
HETATM    4  N3  UNL     1      22.025  -1.348  55.298  1.00  0.00    -0.278 NA
HETATM    5  C5  UNL     1      23.449  -1.281  55.036  1.00  0.00     0.192 A 
HETATM    6  C6  UNL     1      23.749  -0.501  53.792  1.00  0.00     0.004 A 
HETATM    7  C7  UNL     1      24.997  -0.245  53.429  1.00  0.00    -0.008 C 
ENDROOT
BRANCH   1   8
HETATM    8  N1  UNL     1      22.853   0.687  51.767  1.00  0.00    -0.338 N 
HETATM    9  H1  UNL     1      23.043   0.072  50.925  1.00  0.00     0.167 HD
BRANCH   8  10
HETATM   10  C2  UNL     1      22.808   2.129  51.751  1.00  0.00     0.076 A 
HETATM   11  C1  UNL     1      23.383   3.084  52.457  1.00  0.00     0.164 A 
HETATM   12  F1  UNL     1      24.249   3.031  53.485  1.00  0.00    -0.202 F 
HETATM   13  C14 UNL     1      22.652   4.042  51.614  1.00  0.00     0.077 A 
HETATM   14  C13 UNL     1      22.078   3.060  50.907  1.00  0.00     0.059 A 
HETATM   15 CL1  UNL     1      22.610   5.788  51.610  1.00  0.00    -0.081 Cl
ENDBRANCH   8  10
ENDBRANCH   1   8
BRANCH   7  16
HETATM   16  C8  UNL     1      26.403  -0.410  53.734  1.00  0.00     0.027 C 
HETATM   17  C9  UNL     1      27.292  -0.787  52.576  1.00  0.00     0.036 C 
HETATM   18  C10 UNL     1      28.599  -1.211  53.217  1.00  0.00     0.168 C 
HETATM   19  O1  UNL     1      29.154  -0.206  53.992  1.00  0.00    -0.390 OA
HETATM   20  C11 UNL     1      28.349   0.177  55.049  1.00  0.00     0.183 C 
HETATM   21  C12 UNL     1      27.085   0.767  54.394  1.00  0.00     0.089 C 
HETATM   22 BR1  UNL     1      27.793   1.979  53.029  1.00  0.00    -0.088 Br
ENDBRANCH   7  16
TORSDOF 3
ENDMDL
MODEL 3
REMARK VINA RESULT:      -7.5      3.859      5.496
REMARK  3 active torsions:
REMARK  status: ('A' for Active; 'I' for Inactive)
REMARK    1  A    between atoms: C2_3  and  N1_4 
REMARK    2  A    between atoms: N1_4  and  C3_5 
REMARK    3  A    between atoms: C7_11  and  C8_12 
ROOT
HETATM    1  C3  UNL     1      24.093  -0.327  53.826  1.00  0.00     0.137 A 
HETATM    2  N2  UNL     1      24.372  -0.932  54.922  1.00  0.00    -0.224 NA
HETATM    3  C4  UNL     1      23.390  -1.597  55.679  1.00  0.00     0.229 A 
HETATM    4  N3  UNL     1      22.177  -1.615  55.296  1.00  0.00    -0.278 NA
HETATM    5  C5  UNL     1      21.651  -0.990  54.098  1.00  0.00     0.192 A 
HETATM    6  C6  UNL     1      22.732  -0.338  53.290  1.00  0.00     0.004 A 
HETATM    7  C7  UNL     1      22.470   0.207  52.112  1.00  0.00    -0.008 C 
ENDROOT
BRANCH   1   8
HETATM    8  N1  UNL     1      25.149   0.325  53.128  1.00  0.00    -0.338 N 
HETATM    9  H1  UNL     1      24.853   1.153  52.536  1.00  0.00     0.167 HD
BRANCH   8  10
HETATM   10  C2  UNL     1      26.503  -0.158  53.263  1.00  0.00     0.076 A 
HETATM   11  C1  UNL     1      27.164  -1.205  52.807  1.00  0.00     0.164 A 
HETATM   12  F1  UNL     1      26.780  -2.226  52.022  1.00  0.00    -0.202 F 
HETATM   13  C14 UNL     1      28.334  -0.684  53.531  1.00  0.00     0.077 A 
HETATM   14  C13 UNL     1      27.646   0.373  53.984  1.00  0.00     0.059 A 
HETATM   15 CL1  UNL     1      29.967  -1.284  53.683  1.00  0.00    -0.081 Cl
ENDBRANCH   8  10
ENDBRANCH   1   8
BRANCH   7  16
HETATM   16  C8  UNL     1      21.464   0.507  51.114  1.00  0.00     0.027 C 
HETATM   17  C9  UNL     1      20.110   0.910  51.639  1.00  0.00     0.036 C 
HETATM   18  C10 UNL     1      19.193   0.836  50.433  1.00  0.00     0.168 C 
HETATM   19  O1  UNL     1      19.616   1.657  49.400  1.00  0.00    -0.390 OA
HETATM   20  C11 UNL     1      20.867   1.324  48.915  1.00  0.00     0.183 C 
HETATM   21  C12 UNL     1      21.828   1.562  50.096  1.00  0.00     0.089 C 
HETATM   22 BR1  UNL     1      21.319   3.332  50.758  1.00  0.00    -0.088 Br
ENDBRANCH   7  16
TORSDOF 3
ENDMDL
MODEL 4
REMARK VINA RESULT:      -7.5      3.662      5.520
REMARK  3 active torsions:
REMARK  status: ('A' for Active; 'I' for Inactive)
REMARK    1  A    between atoms: C2_3  and  N1_4 
REMARK    2  A    between atoms: N1_4  and  C3_5 
REMARK    3  A    between atoms: C7_11  and  C8_12 
ROOT
HETATM    1  C3  UNL     1      25.962   2.253  51.978  1.00  0.00     0.137 A 
HETATM    2  N2  UNL     1      26.823   2.875  51.259  1.00  0.00    -0.224 NA
HETATM    3  C4  UNL     1      26.484   3.448  50.020  1.00  0.00     0.229 A 
HETATM    4  N3  UNL     1      25.299   3.363  49.567  1.00  0.00    -0.278 NA
HETATM    5  C5  UNL     1      24.184   2.701  50.213  1.00  0.00     0.192 A 
HETATM    6  C6  UNL     1      24.566   2.149  51.554  1.00  0.00     0.004 A 
HETATM    7  C7  UNL     1      23.664   1.588  52.345  1.00  0.00    -0.008 C 
ENDROOT
BRANCH   1   8
HETATM    8  N1  UNL     1      26.394   1.698  53.217  1.00  0.00    -0.338 N 
HETATM    9  H1  UNL     1      26.091   2.236  54.079  1.00  0.00     0.167 HD
BRANCH   8  10
HETATM   10  C2  UNL     1      27.181   0.489  53.224  1.00  0.00     0.076 A 
HETATM   11  C1  UNL     1      26.935  -0.781  52.963  1.00  0.00     0.164 A 
HETATM   12  F1  UNL     1      25.807  -1.407  52.582  1.00  0.00    -0.202 F 
HETATM   13  C14 UNL     1      28.348  -1.040  53.277  1.00  0.00     0.077 A 
HETATM   14  C13 UNL     1      28.580   0.253  53.538  1.00  0.00     0.059 A 
HETATM   15 CL1  UNL     1      29.285  -2.514  53.279  1.00  0.00    -0.081 Cl
ENDBRANCH   8  10
ENDBRANCH   1   8
BRANCH   7  16
HETATM   16  C8  UNL     1      22.277   1.207  52.520  1.00  0.00     0.027 C 
HETATM   17  C9  UNL     1      21.683   0.351  51.431  1.00  0.00     0.036 C 
HETATM   18  C10 UNL     1      20.189   0.385  51.687  1.00  0.00     0.168 C 
HETATM   19  O1  UNL     1      19.862  -0.080  52.951  1.00  0.00    -0.390 OA
HETATM   20  C11 UNL     1      20.414   0.674  53.970  1.00  0.00     0.183 C 
HETATM   21  C12 UNL     1      21.938   0.503  53.813  1.00  0.00     0.089 C 
HETATM   22 BR1  UNL     1      22.167  -1.429  53.599  1.00  0.00    -0.088 Br
ENDBRANCH   7  16
TORSDOF 3
ENDMDL
MODEL 5
REMARK VINA RESULT:      -7.4      4.129      5.832
REMARK  3 active torsions:
REMARK  status: ('A' for Active; 'I' for Inactive)
REMARK    1  A    between atoms: C2_3  and  N1_4 
REMARK    2  A    between atoms: N1_4  and  C3_5 
REMARK    3  A    between atoms: C7_11  and  C8_12 
ROOT
HETATM    1  C3  UNL     1      26.597   2.501  51.548  1.00  0.00     0.137 A 
HETATM    2  N2  UNL     1      27.793   2.475  52.012  1.00  0.00    -0.224 NA
HETATM    3  C4  UNL     1      28.057   2.290  53.381  1.00  0.00     0.229 A 
HETATM    4  N3  UNL     1      27.106   2.146  54.213  1.00  0.00    -0.278 NA
HETATM    5  C5  UNL     1      25.691   2.152  53.900  1.00  0.00     0.192 A 
HETATM    6  C6  UNL     1      25.447   2.297  52.428  1.00  0.00     0.004 A 
HETATM    7  C7  UNL     1      24.223   2.232  51.928  1.00  0.00    -0.008 C 
ENDROOT
BRANCH   1   8
HETATM    8  N1  UNL     1      26.422   2.699  50.148  1.00  0.00    -0.338 N 
HETATM    9  H1  UNL     1      26.334   1.811  49.576  1.00  0.00     0.167 HD
BRANCH   8  10
HETATM   10  C2  UNL     1      26.375   4.040  49.615  1.00  0.00     0.076 A 
HETATM   11  C1  UNL     1      27.169   4.763  48.849  1.00  0.00     0.164 A 
HETATM   12  F1  UNL     1      28.352   4.478  48.276  1.00  0.00    -0.202 F 
HETATM   13  C14 UNL     1      26.180   5.844  48.976  1.00  0.00     0.077 A 
HETATM   14  C13 UNL     1      25.386   5.095  49.752  1.00  0.00     0.059 A 
HETATM   15 CL1  UNL     1      26.140   7.463  48.322  1.00  0.00    -0.081 Cl
ENDBRANCH   8  10
ENDBRANCH   1   8
BRANCH   7  16
HETATM   16  C8  UNL     1      22.810   2.067  52.203  1.00  0.00     0.027 C 
HETATM   17  C9  UNL     1      21.907   3.172  51.718  1.00  0.00     0.036 C 
HETATM   18  C10 UNL     1      20.583   2.918  52.412  1.00  0.00     0.168 C 
HETATM   19  O1  UNL     1      20.070   1.664  52.123  1.00  0.00    -0.390 OA
HETATM   20  C11 UNL     1      20.890   0.630  52.536  1.00  0.00     0.183 C 
HETATM   21  C12 UNL     1      22.179   0.787  51.705  1.00  0.00     0.089 C 
HETATM   22 BR1  UNL     1      21.524   1.035  49.877  1.00  0.00    -0.088 Br
ENDBRANCH   7  16
TORSDOF 3
ENDMDL
MODEL 6
REMARK VINA RESULT:      -7.3      3.902      5.223
REMARK  3 active torsions:
REMARK  status: ('A' for Active; 'I' for Inactive)
REMARK    1  A    between atoms: C2_3  and  N1_4 
REMARK    2  A    between atoms: N1_4  and  C3_5 
REMARK    3  A    between atoms: C7_11  and  C8_12 
ROOT
HETATM    1  C3  UNL     1      22.416   2.240  51.736  1.00  0.00     0.137 A 
HETATM    2  N2  UNL     1      21.837   3.369  51.546  1.00  0.00    -0.224 NA
HETATM    3  C4  UNL     1      22.344   4.567  52.081  1.00  0.00     0.229 A 
HETATM    4  N3  UNL     1      23.404   4.567  52.784  1.00  0.00    -0.278 NA
HETATM    5  C5  UNL     1      24.203   3.406  53.123  1.00  0.00     0.192 A 
HETATM    6  C6  UNL     1      23.665   2.157  52.493  1.00  0.00     0.004 A 
HETATM    7  C7  UNL     1      24.307   1.004  52.605  1.00  0.00    -0.008 C 
ENDROOT
BRANCH   1   8
HETATM    8  N1  UNL     1      21.830   1.076  51.161  1.00  0.00    -0.338 N 
HETATM    9  H1  UNL     1      22.286   0.739  50.266  1.00  0.00     0.167 HD
BRANCH   8  10
HETATM   10  C2  UNL     1      20.700   0.451  51.806  1.00  0.00     0.076 A 
HETATM   11  C1  UNL     1      20.502  -0.131  52.974  1.00  0.00     0.164 A 
HETATM   12  F1  UNL     1      21.332  -0.349  54.010  1.00  0.00    -0.202 F 
HETATM   13  C14 UNL     1      19.114  -0.352  52.543  1.00  0.00     0.077 A 
HETATM   14  C13 UNL     1      19.333   0.243  51.363  1.00  0.00     0.059 A 
HETATM   15 CL1  UNL     1      17.758  -1.112  53.339  1.00  0.00    -0.081 Cl
ENDBRANCH   8  10
ENDBRANCH   1   8
BRANCH   7  16
HETATM   16  C8  UNL     1      25.454   0.305  53.147  1.00  0.00     0.027 C 
HETATM   17  C9  UNL     1      26.423  -0.258  52.139  1.00  0.00     0.036 C 
HETATM   18  C10 UNL     1      27.310  -1.193  52.938  1.00  0.00     0.168 C 
HETATM   19  O1  UNL     1      27.958  -0.543  53.976  1.00  0.00    -0.390 OA
HETATM   20  C11 UNL     1      27.091   0.004  54.904  1.00  0.00     0.183 C 
HETATM   21  C12 UNL     1      26.303   1.078  54.129  1.00  0.00     0.089 C 
HETATM   22 BR1  UNL     1      27.692   2.072  53.172  1.00  0.00    -0.088 Br
ENDBRANCH   7  16
TORSDOF 3
ENDMDL
MODEL 7
REMARK VINA RESULT:      -7.2      2.941      4.475
REMARK  3 active torsions:
REMARK  status: ('A' for Active; 'I' for Inactive)
REMARK    1  A    between atoms: C2_3  and  N1_4 
REMARK    2  A    between atoms: N1_4  and  C3_5 
REMARK    3  A    between atoms: C7_11  and  C8_12 
ROOT
HETATM    1  C3  UNL     1      24.208   0.744  53.309  1.00  0.00     0.137 A 
HETATM    2  N2  UNL     1      23.837  -0.402  53.750  1.00  0.00    -0.224 NA
HETATM    3  C4  UNL     1      22.644  -1.014  53.324  1.00  0.00     0.229 A 
HETATM    4  N3  UNL     1      21.885  -0.440  52.480  1.00  0.00    -0.278 NA
HETATM    5  C5  UNL     1      22.113   0.853  51.868  1.00  0.00     0.192 A 
HETATM    6  C6  UNL     1      23.417   1.452  52.302  1.00  0.00     0.004 A 
HETATM    7  C7  UNL     1      23.854   2.589  51.783  1.00  0.00    -0.008 C 
ENDROOT
BRANCH   1   8
HETATM    8  N1  UNL     1      25.428   1.292  53.799  1.00  0.00    -0.338 N 
HETATM    9  H1  UNL     1      25.344   2.254  54.236  1.00  0.00     0.167 HD
BRANCH   8  10
HETATM   10  C2  UNL     1      26.652   0.536  53.680  1.00  0.00     0.076 A 
HETATM   11  C1  UNL     1      27.225  -0.154  52.713  1.00  0.00     0.164 A 
HETATM   12  F1  UNL     1      26.842  -0.399  51.447  1.00  0.00    -0.202 F 
HETATM   13  C14 UNL     1      28.312  -0.436  53.663  1.00  0.00     0.077 A 
HETATM   14  C13 UNL     1      27.715   0.269  54.632  1.00  0.00     0.059 A 
HETATM   15 CL1  UNL     1      29.788  -1.355  53.499  1.00  0.00    -0.081 Cl
ENDBRANCH   8  10
ENDBRANCH   1   8
BRANCH   7  16
HETATM   16  C8  UNL     1      23.599   3.673  50.857  1.00  0.00     0.027 C 
HETATM   17  C9  UNL     1      23.943   5.057  51.347  1.00  0.00     0.036 C 
HETATM   18  C10 UNL     1      23.284   5.992  50.351  1.00  0.00     0.168 C 
HETATM   19  O1  UNL     1      23.725   5.774  49.056  1.00  0.00    -0.390 OA
HETATM   20  C11 UNL     1      23.444   4.504  48.589  1.00  0.00     0.183 C 
HETATM   21  C12 UNL     1      24.250   3.557  49.499  1.00  0.00     0.089 C 
HETATM   22 BR1  UNL     1      26.033   4.365  49.543  1.00  0.00    -0.088 Br
ENDBRANCH   7  16
TORSDOF 3
ENDMDL
MODEL 8
REMARK VINA RESULT:      -6.9      4.263      6.230
REMARK  3 active torsions:
REMARK  status: ('A' for Active; 'I' for Inactive)
REMARK    1  A    between atoms: C2_3  and  N1_4 
REMARK    2  A    between atoms: N1_4  and  C3_5 
REMARK    3  A    between atoms: C7_11  and  C8_12 
ROOT
HETATM    1  C3  UNL     1      22.021   1.809  52.637  1.00  0.00     0.137 A 
HETATM    2  N2  UNL     1      20.746   1.673  52.591  1.00  0.00    -0.224 NA
HETATM    3  C4  UNL     1      20.116   0.446  52.873  1.00  0.00     0.229 A 
HETATM    4  N3  UNL     1      20.801  -0.580  53.179  1.00  0.00    -0.278 NA
HETATM    5  C5  UNL     1      22.246  -0.644  53.278  1.00  0.00     0.192 A 
HETATM    6  C6  UNL     1      22.880   0.691  53.026  1.00  0.00     0.004 A 
HETATM    7  C7  UNL     1      24.186   0.864  53.162  1.00  0.00    -0.008 C 
ENDROOT
BRANCH   1   8
HETATM    8  N1  UNL     1      22.574   3.085  52.332  1.00  0.00    -0.338 N 
HETATM    9  H1  UNL     1      22.915   3.638  53.169  1.00  0.00     0.167 HD
BRANCH   8  10
HETATM   10  C2  UNL     1      22.634   3.530  50.960  1.00  0.00     0.076 A 
HETATM   11  C1  UNL     1      23.497   3.380  49.973  1.00  0.00     0.164 A 
HETATM   12  F1  UNL     1      24.672   2.727  49.911  1.00  0.00    -0.202 F 
HETATM   13  C14 UNL     1      22.584   4.191  49.154  1.00  0.00     0.077 A 
HETATM   14  C13 UNL     1      21.720   4.333  50.167  1.00  0.00     0.059 A 
HETATM   15 CL1  UNL     1      22.675   4.720  47.492  1.00  0.00    -0.081 Cl
ENDBRANCH   8  10
ENDBRANCH   1   8
BRANCH   7  16
HETATM   16  C8  UNL     1      25.461   0.255  53.483  1.00  0.00     0.027 C 
HETATM   17  C9  UNL     1      26.217  -0.346  52.326  1.00  0.00     0.036 C 
HETATM   18  C10 UNL     1      27.307  -1.180  52.972  1.00  0.00     0.168 C 
HETATM   19  O1  UNL     1      28.128  -0.426  53.794  1.00  0.00    -0.390 OA
HETATM   20  C11 UNL     1      27.455   0.157  54.852  1.00  0.00     0.183 C 
HETATM   21  C12 UNL     1      26.458   1.136  54.199  1.00  0.00     0.089 C 
HETATM   22 BR1  UNL     1      27.549   2.105  52.894  1.00  0.00    -0.088 Br
ENDBRANCH   7  16
TORSDOF 3
ENDMDL
MODEL 9
REMARK VINA RESULT:      -6.8      3.499      5.431
REMARK  3 active torsions:
REMARK  status: ('A' for Active; 'I' for Inactive)
REMARK    1  A    between atoms: C2_3  and  N1_4 
REMARK    2  A    between atoms: N1_4  and  C3_5 
REMARK    3  A    between atoms: C7_11  and  C8_12 
ROOT
HETATM    1  C3  UNL     1      25.861   1.510  53.248  1.00  0.00     0.137 A 
HETATM    2  N2  UNL     1      27.089   1.181  53.421  1.00  0.00    -0.224 NA
HETATM    3  C4  UNL     1      27.482  -0.155  53.619  1.00  0.00     0.229 A 
HETATM    4  N3  UNL     1      26.620  -1.090  53.639  1.00  0.00    -0.278 NA
HETATM    5  C5  UNL     1      25.189  -0.934  53.474  1.00  0.00     0.192 A 
HETATM    6  C6  UNL     1      24.811   0.492  53.211  1.00  0.00     0.004 A 
HETATM    7  C7  UNL     1      23.560   0.829  52.940  1.00  0.00    -0.008 C 
ENDROOT
BRANCH   1   8
HETATM    8  N1  UNL     1      25.553   2.888  53.060  1.00  0.00    -0.338 N 
HETATM    9  H1  UNL     1      25.706   3.502  53.910  1.00  0.00     0.167 HD
BRANCH   8  10
HETATM   10  C2  UNL     1      25.073   3.345  51.778  1.00  0.00     0.076 A 
HETATM   11  C1  UNL     1      25.488   3.216  50.532  1.00  0.00     0.164 A 
HETATM   12  F1  UNL     1      26.552   2.580  50.011  1.00  0.00    -0.202 F 
HETATM   13  C14 UNL     1      24.321   4.022  50.141  1.00  0.00     0.077 A 
HETATM   14  C13 UNL     1      23.916   4.142  51.412  1.00  0.00     0.059 A 
HETATM   15 CL1  UNL     1      23.757   4.566  48.581  1.00  0.00    -0.081 Cl
ENDBRANCH   8  10
ENDBRANCH   1   8
BRANCH   7  16
HETATM   16  C8  UNL     1      22.195   0.376  52.765  1.00  0.00     0.027 C 
HETATM   17  C9  UNL     1      21.337   0.363  54.004  1.00  0.00     0.036 C 
HETATM   18  C10 UNL     1      20.114  -0.444  53.616  1.00  0.00     0.168 C 
HETATM   19  O1  UNL     1      19.448   0.101  52.530  1.00  0.00    -0.390 OA
HETATM   20  C11 UNL     1      20.220   0.147  51.384  1.00  0.00     0.183 C 
HETATM   21  C12 UNL     1      21.379   1.105  51.722  1.00  0.00     0.089 C 
HETATM   22 BR1  UNL     1      20.484   2.646  52.533  1.00  0.00    -0.088 Br
ENDBRANCH   7  16
TORSDOF 3
ENDMDL
