MODEL 1
REMARK VINA RESULT:      -7.8      0.000      0.000
REMARK  5 active torsions:
REMARK  status: ('A' for Active; 'I' for Inactive)
REMARK    1  A    between atoms: N1_2  and  C2_3 
REMARK    2  A    between atoms: N2_4  and  C3_5 
REMARK    3  A    between atoms: C5_7  and  C6_8 
REMARK    4  A    between atoms: C6_8  and  N3_9 
REMARK    5  A    between atoms: N3_9  and  C7_10 
ROOT
HETATM    1  C7  UNL     1      25.998   2.131  51.965  1.00  0.00     0.039 C 
HETATM    2  C8  UNL     1      24.695   1.934  51.787  1.00  0.00     0.032 C 
HETATM    3  C9  UNL     1      23.627   1.089  52.338  1.00  0.00     0.026 C 
HETATM    4  C10 UNL     1      23.629   0.076  53.219  1.00  0.00     0.135 C 
HETATM    5  O1  UNL     1      24.653  -0.537  53.928  1.00  0.00    -0.359 OA
HETATM    6  C11 UNL     1      25.968  -0.894  53.621  1.00  0.00     0.214 C 
HETATM    7  C12 UNL     1      26.911   0.232  53.597  1.00  0.00    -0.022 A 
HETATM    8  C13 UNL     1      27.958  -0.096  54.443  1.00  0.00     0.010 A 
HETATM    9  C14 UNL     1      29.002   0.789  54.614  1.00  0.00     0.001 A 
HETATM   10  C15 UNL     1      28.985   1.990  53.938  1.00  0.00     0.001 A 
HETATM   11  C16 UNL     1      27.946   2.337  53.087  1.00  0.00     0.014 A 
HETATM   12  C17 UNL     1      26.906   1.454  52.916  1.00  0.00    -0.001 A 
ENDROOT
BRANCH   1  13
HETATM   13  N3  UNL     1      26.681   3.096  51.182  1.00  0.00    -0.386 N 
HETATM   14  H12 UNL     1      27.307   3.682  51.791  1.00  0.00     0.160 HD
BRANCH  13  15
HETATM   15  C6  UNL     1      26.609   3.334  49.753  1.00  0.00     0.149 C 
BRANCH  15  16
HETATM   16  C5  UNL     1      26.240   4.709  49.391  1.00  0.00     0.019 C 
HETATM   17  C3  UNL     1      26.427   5.909  48.863  1.00  0.00     0.029 C 
HETATM   18  C4  UNL     1      27.830   5.834  48.321  1.00  0.00     0.070 C 
BRANCH  17  19
HETATM   19  N2  UNL     1      25.691   7.102  48.723  1.00  0.00    -0.249 NA
HETATM   20  C2  UNL     1      25.837   8.161  49.415  1.00  0.00     0.202 C 
BRANCH  20  21
HETATM   21  N1  UNL     1      26.743   8.422  50.473  1.00  0.00    -0.389 N 
HETATM   22  C1  UNL     1      27.781   9.397  50.226  1.00  0.00     0.147 C 
HETATM   23  H4  UNL     1      26.594   7.891  51.357  1.00  0.00     0.159 HD
ENDBRANCH  20  21
ENDBRANCH  17  19
ENDBRANCH  15  16
ENDBRANCH  13  15
ENDBRANCH   1  13
TORSDOF 5
ENDMDL
MODEL 2
REMARK VINA RESULT:      -7.7      4.457      6.905
REMARK  5 active torsions:
REMARK  status: ('A' for Active; 'I' for Inactive)
REMARK    1  A    between atoms: N1_2  and  C2_3 
REMARK    2  A    between atoms: N2_4  and  C3_5 
REMARK    3  A    between atoms: C5_7  and  C6_8 
REMARK    4  A    between atoms: C6_8  and  N3_9 
REMARK    5  A    between atoms: N3_9  and  C7_10 
ROOT
HETATM    1  C7  UNL     1      23.373   1.428  52.899  1.00  0.00     0.039 C 
HETATM    2  C8  UNL     1      23.400   2.712  52.556  1.00  0.00     0.032 C 
HETATM    3  C9  UNL     1      22.449   3.807  52.327  1.00  0.00     0.026 C 
HETATM    4  C10 UNL     1      21.107   3.858  52.295  1.00  0.00     0.135 C 
HETATM    5  O1  UNL     1      20.136   2.881  52.469  1.00  0.00    -0.359 OA
HETATM    6  C11 UNL     1      20.025   1.543  52.084  1.00  0.00     0.214 C 
HETATM    7  C12 UNL     1      20.836   0.613  52.881  1.00  0.00    -0.022 A 
HETATM    8  C13 UNL     1      19.983  -0.373  53.348  1.00  0.00     0.010 A 
HETATM    9  C14 UNL     1      20.480  -1.391  54.134  1.00  0.00     0.001 A 
HETATM   10  C15 UNL     1      21.823  -1.410  54.443  1.00  0.00     0.001 A 
HETATM   11  C16 UNL     1      22.694  -0.432  53.985  1.00  0.00     0.014 A 
HETATM   12  C17 UNL     1      22.198   0.584  53.201  1.00  0.00    -0.001 A 
ENDROOT
BRANCH   1  13
HETATM   13  N3  UNL     1      24.586   0.701  53.013  1.00  0.00    -0.386 N 
HETATM   14  H12 UNL     1      24.574   0.105  53.880  1.00  0.00     0.160 HD
BRANCH  13  15
HETATM   15  C6  UNL     1      25.738   0.696  52.133  1.00  0.00     0.149 C 
BRANCH  15  16
HETATM   16  C5  UNL     1      26.901  -0.024  52.669  1.00  0.00     0.019 C 
HETATM   17  C3  UNL     1      27.638  -1.089  52.947  1.00  0.00     0.029 C 
HETATM   18  C4  UNL     1      26.811  -2.230  52.414  1.00  0.00     0.070 C 
BRANCH  17  19
HETATM   19  N2  UNL     1      28.873  -1.357  53.568  1.00  0.00    -0.249 NA
HETATM   20  C2  UNL     1      29.807  -0.518  53.778  1.00  0.00     0.202 C 
BRANCH  20  21
HETATM   21  N1  UNL     1      29.861   0.861  53.459  1.00  0.00    -0.389 N 
HETATM   22  C1  UNL     1      29.388   1.789  54.463  1.00  0.00     0.147 C 
HETATM   23  H4  UNL     1      30.238   1.110  52.520  1.00  0.00     0.159 HD
ENDBRANCH  20  21
ENDBRANCH  17  19
ENDBRANCH  15  16
ENDBRANCH  13  15
ENDBRANCH   1  13
TORSDOF 5
ENDMDL
MODEL 3
REMARK VINA RESULT:      -7.6      3.502      6.415
REMARK  5 active torsions:
REMARK  status: ('A' for Active; 'I' for Inactive)
REMARK    1  A    between atoms: N1_2  and  C2_3 
REMARK    2  A    between atoms: N2_4  and  C3_5 
REMARK    3  A    between atoms: C5_7  and  C6_8 
REMARK    4  A    between atoms: C6_8  and  N3_9 
REMARK    5  A    between atoms: N3_9  and  C7_10 
ROOT
HETATM    1  C7  UNL     1      23.378   1.394  51.714  1.00  0.00     0.039 C 
HETATM    2  C8  UNL     1      22.249   0.755  51.423  1.00  0.00     0.032 C 
HETATM    3  C9  UNL     1      21.314   0.636  50.297  1.00  0.00     0.026 C 
HETATM    4  C10 UNL     1      21.229   1.262  49.112  1.00  0.00     0.135 C 
HETATM    5  O1  UNL     1      22.004   2.255  48.529  1.00  0.00    -0.359 OA
HETATM    6  C11 UNL     1      22.637   3.403  49.012  1.00  0.00     0.214 C 
HETATM    7  C12 UNL     1      23.871   3.143  49.766  1.00  0.00    -0.022 A 
HETATM    8  C13 UNL     1      24.869   3.912  49.189  1.00  0.00     0.010 A 
HETATM    9  C14 UNL     1      26.149   3.866  49.701  1.00  0.00     0.001 A 
HETATM   10  C15 UNL     1      26.413   3.053  50.782  1.00  0.00     0.001 A 
HETATM   11  C16 UNL     1      25.428   2.276  51.373  1.00  0.00     0.014 A 
HETATM   12  C17 UNL     1      24.151   2.322  50.863  1.00  0.00    -0.001 A 
ENDROOT
BRANCH   1  13
HETATM   13  N3  UNL     1      23.982   1.218  52.985  1.00  0.00    -0.386 N 
HETATM   14  H12 UNL     1      24.255   2.149  53.391  1.00  0.00     0.160 HD
BRANCH  13  15
HETATM   15  C6  UNL     1      24.240  -0.008  53.716  1.00  0.00     0.149 C 
BRANCH  15  16
HETATM   16  C5  UNL     1      25.665  -0.295  53.925  1.00  0.00     0.019 C 
HETATM   17  C3  UNL     1      26.884  -0.673  53.572  1.00  0.00     0.029 C 
HETATM   18  C4  UNL     1      26.731  -1.015  52.113  1.00  0.00     0.070 C 
BRANCH  17  19
HETATM   19  N2  UNL     1      28.140  -0.819  54.191  1.00  0.00    -0.249 NA
HETATM   20  C2  UNL     1      28.840   0.113  54.703  1.00  0.00     0.202 C 
BRANCH  20  21
HETATM   21  N1  UNL     1      28.560   1.499  54.788  1.00  0.00    -0.389 N 
HETATM   22  C1  UNL     1      28.724   2.280  53.582  1.00  0.00     0.147 C 
HETATM   23  H4  UNL     1      28.255   1.859  55.717  1.00  0.00     0.159 HD
ENDBRANCH  20  21
ENDBRANCH  17  19
ENDBRANCH  15  16
ENDBRANCH  13  15
ENDBRANCH   1  13
TORSDOF 5
ENDMDL
MODEL 4
REMARK VINA RESULT:      -7.6      1.878      3.764
REMARK  5 active torsions:
REMARK  status: ('A' for Active; 'I' for Inactive)
REMARK    1  A    between atoms: N1_2  and  C2_3 
REMARK    2  A    between atoms: N2_4  and  C3_5 
REMARK    3  A    between atoms: C5_7  and  C6_8 
REMARK    4  A    between atoms: C6_8  and  N3_9 
REMARK    5  A    between atoms: N3_9  and  C7_10 
ROOT
HETATM    1  C7  UNL     1      24.547   1.366  51.964  1.00  0.00     0.039 C 
HETATM    2  C8  UNL     1      25.849   1.223  51.734  1.00  0.00     0.032 C 
HETATM    3  C9  UNL     1      26.939   0.322  52.125  1.00  0.00     0.026 C 
HETATM    4  C10 UNL     1      27.013  -0.696  52.998  1.00  0.00     0.135 C 
HETATM    5  O1  UNL     1      26.072  -1.260  53.849  1.00  0.00    -0.359 OA
HETATM    6  C11 UNL     1      25.050  -0.740  54.647  1.00  0.00     0.214 C 
HETATM    7  C12 UNL     1      23.853  -0.324  53.904  1.00  0.00    -0.022 A 
HETATM    8  C13 UNL     1      22.771  -0.967  54.483  1.00  0.00     0.010 A 
HETATM    9  C14 UNL     1      21.503  -0.757  53.981  1.00  0.00     0.001 A 
HETATM   10  C15 UNL     1      21.335   0.091  52.908  1.00  0.00     0.001 A 
HETATM   11  C16 UNL     1      22.405   0.743  52.314  1.00  0.00     0.014 A 
HETATM   12  C17 UNL     1      23.669   0.535  52.815  1.00  0.00    -0.001 A 
ENDROOT
BRANCH   1  13
HETATM   13  N3  UNL     1      23.834   2.430  51.354  1.00  0.00    -0.386 N 
HETATM   14  H12 UNL     1      23.221   2.910  52.061  1.00  0.00     0.160 HD
BRANCH  13  15
HETATM   15  C6  UNL     1      23.862   2.881  49.976  1.00  0.00     0.149 C 
BRANCH  15  16
HETATM   16  C5  UNL     1      24.657   4.097  49.758  1.00  0.00     0.019 C 
HETATM   17  C3  UNL     1      25.758   4.792  49.519  1.00  0.00     0.029 C 
HETATM   18  C4  UNL     1      26.820   3.729  49.412  1.00  0.00     0.070 C 
BRANCH  17  19
HETATM   19  N2  UNL     1      26.114   6.146  49.371  1.00  0.00    -0.249 NA
HETATM   20  C2  UNL     1      25.738   7.109  50.115  1.00  0.00     0.202 C 
BRANCH  20  21
HETATM   21  N1  UNL     1      24.892   7.084  51.252  1.00  0.00    -0.389 N 
HETATM   22  C1  UNL     1      23.498   7.407  51.042  1.00  0.00     0.147 C 
HETATM   23  H4  UNL     1      25.336   6.834  52.160  1.00  0.00     0.159 HD
ENDBRANCH  20  21
ENDBRANCH  17  19
ENDBRANCH  15  16
ENDBRANCH  13  15
ENDBRANCH   1  13
TORSDOF 5
ENDMDL
MODEL 5
REMARK VINA RESULT:      -7.5      2.975      7.517
REMARK  5 active torsions:
REMARK  status: ('A' for Active; 'I' for Inactive)
REMARK    1  A    between atoms: N1_2  and  C2_3 
REMARK    2  A    between atoms: N2_4  and  C3_5 
REMARK    3  A    between atoms: C5_7  and  C6_8 
REMARK    4  A    between atoms: C6_8  and  N3_9 
REMARK    5  A    between atoms: N3_9  and  C7_10 
ROOT
HETATM    1  C7  UNL     1      25.902   4.554  49.591  1.00  0.00     0.039 C 
HETATM    2  C8  UNL     1      24.584   4.386  49.546  1.00  0.00     0.032 C 
HETATM    3  C9  UNL     1      23.429   4.953  48.839  1.00  0.00     0.026 C 
HETATM    4  C10 UNL     1      23.295   5.988  47.993  1.00  0.00     0.135 C 
HETATM    5  O1  UNL     1      24.213   6.897  47.485  1.00  0.00    -0.359 OA
HETATM    6  C11 UNL     1      25.315   7.567  48.022  1.00  0.00     0.214 C 
HETATM    7  C12 UNL     1      26.513   6.732  48.184  1.00  0.00    -0.022 A 
HETATM    8  C13 UNL     1      27.552   7.383  47.539  1.00  0.00     0.010 A 
HETATM    9  C14 UNL     1      28.811   6.820  47.531  1.00  0.00     0.001 A 
HETATM   10  C15 UNL     1      29.014   5.614  48.167  1.00  0.00     0.001 A 
HETATM   11  C16 UNL     1      27.986   4.947  48.818  1.00  0.00     0.014 A 
HETATM   12  C17 UNL     1      26.731   5.509  48.826  1.00  0.00    -0.001 A 
ENDROOT
BRANCH   1  13
HETATM   13  N3  UNL     1      26.687   3.753  50.459  1.00  0.00    -0.386 N 
HETATM   14  H12 UNL     1      27.483   4.316  50.854  1.00  0.00     0.160 HD
BRANCH  13  15
HETATM   15  C6  UNL     1      26.519   2.360  50.826  1.00  0.00     0.149 C 
BRANCH  15  16
HETATM   16  C5  UNL     1      27.022   2.026  52.165  1.00  0.00     0.019 C 
HETATM   17  C3  UNL     1      26.933   1.601  53.415  1.00  0.00     0.029 C 
HETATM   18  C4  UNL     1      25.471   1.272  53.565  1.00  0.00     0.070 C 
BRANCH  17  19
HETATM   19  N2  UNL     1      27.801   1.421  54.510  1.00  0.00    -0.249 NA
HETATM   20  C2  UNL     1      28.442   0.359  54.795  1.00  0.00     0.202 C 
BRANCH  20  21
HETATM   21  N1  UNL     1      28.459  -0.886  54.118  1.00  0.00    -0.389 N 
HETATM   22  C1  UNL     1      29.646  -1.205  53.356  1.00  0.00     0.147 C 
HETATM   23  H4  UNL     1      27.612  -1.485  54.218  1.00  0.00     0.159 HD
ENDBRANCH  20  21
ENDBRANCH  17  19
ENDBRANCH  15  16
ENDBRANCH  13  15
ENDBRANCH   1  13
TORSDOF 5
ENDMDL
MODEL 6
REMARK VINA RESULT:      -7.0      1.602      2.045
REMARK  5 active torsions:
REMARK  status: ('A' for Active; 'I' for Inactive)
REMARK    1  A    between atoms: N1_2  and  C2_3 
REMARK    2  A    between atoms: N2_4  and  C3_5 
REMARK    3  A    between atoms: C5_7  and  C6_8 
REMARK    4  A    between atoms: C6_8  and  N3_9 
REMARK    5  A    between atoms: N3_9  and  C7_10 
ROOT
HETATM    1  C7  UNL     1      26.014   2.178  51.839  1.00  0.00     0.039 C 
HETATM    2  C8  UNL     1      24.715   1.966  51.649  1.00  0.00     0.032 C 
HETATM    3  C9  UNL     1      23.652   1.109  52.189  1.00  0.00     0.026 C 
HETATM    4  C10 UNL     1      23.656   0.096  53.071  1.00  0.00     0.135 C 
HETATM    5  O1  UNL     1      24.681  -0.504  53.790  1.00  0.00    -0.359 OA
HETATM    6  C11 UNL     1      26.003  -0.846  53.497  1.00  0.00     0.214 C 
HETATM    7  C12 UNL     1      26.933   0.291  53.481  1.00  0.00    -0.022 A 
HETATM    8  C13 UNL     1      27.976  -0.025  54.337  1.00  0.00     0.010 A 
HETATM    9  C14 UNL     1      29.008   0.872  54.518  1.00  0.00     0.001 A 
HETATM   10  C15 UNL     1      28.983   2.073  53.841  1.00  0.00     0.001 A 
HETATM   11  C16 UNL     1      27.949   2.407  52.980  1.00  0.00     0.014 A 
HETATM   12  C17 UNL     1      26.920   1.512  52.799  1.00  0.00    -0.001 A 
ENDROOT
BRANCH   1  13
HETATM   13  N3  UNL     1      26.693   3.150  51.062  1.00  0.00    -0.386 N 
HETATM   14  H12 UNL     1      27.637   3.355  51.479  1.00  0.00     0.160 HD
BRANCH  13  15
HETATM   15  C6  UNL     1      26.257   3.829  49.857  1.00  0.00     0.149 C 
BRANCH  15  16
HETATM   16  C5  UNL     1      25.747   5.188  50.084  1.00  0.00     0.019 C 
HETATM   17  C3  UNL     1      25.170   6.332  49.750  1.00  0.00     0.029 C 
HETATM   18  C4  UNL     1      24.854   6.144  48.289  1.00  0.00     0.070 C 
BRANCH  17  19
HETATM   19  N2  UNL     1      24.836   7.545  50.382  1.00  0.00    -0.249 NA
HETATM   20  C2  UNL     1      23.757   7.796  51.008  1.00  0.00     0.202 C 
BRANCH  20  21
HETATM   21  N1  UNL     1      22.636   6.957  51.232  1.00  0.00    -0.389 N 
HETATM   22  C1  UNL     1      21.525   7.084  50.316  1.00  0.00     0.147 C 
HETATM   23  H4  UNL     1      22.694   6.306  52.044  1.00  0.00     0.159 HD
ENDBRANCH  20  21
ENDBRANCH  17  19
ENDBRANCH  15  16
ENDBRANCH  13  15
ENDBRANCH   1  13
TORSDOF 5
ENDMDL
MODEL 7
REMARK VINA RESULT:      -7.0      1.979      4.037
REMARK  5 active torsions:
REMARK  status: ('A' for Active; 'I' for Inactive)
REMARK    1  A    between atoms: N1_2  and  C2_3 
REMARK    2  A    between atoms: N2_4  and  C3_5 
REMARK    3  A    between atoms: C5_7  and  C6_8 
REMARK    4  A    between atoms: C6_8  and  N3_9 
REMARK    5  A    between atoms: N3_9  and  C7_10 
ROOT
HETATM    1  C7  UNL     1      24.295   1.053  52.129  1.00  0.00     0.039 C 
HETATM    2  C8  UNL     1      25.592   1.002  51.840  1.00  0.00     0.032 C 
HETATM    3  C9  UNL     1      26.775   0.226  52.233  1.00  0.00     0.026 C 
HETATM    4  C10 UNL     1      26.978  -0.717  53.168  1.00  0.00     0.135 C 
HETATM    5  O1  UNL     1      26.131  -1.294  54.104  1.00  0.00    -0.359 OA
HETATM    6  C11 UNL     1      25.106  -0.805  54.918  1.00  0.00     0.214 C 
HETATM    7  C12 UNL     1      23.844  -0.545  54.213  1.00  0.00    -0.022 A 
HETATM    8  C13 UNL     1      22.850  -1.232  54.891  1.00  0.00     0.010 A 
HETATM    9  C14 UNL     1      21.547  -1.166  54.444  1.00  0.00     0.001 A 
HETATM   10  C15 UNL     1      21.254  -0.415  53.326  1.00  0.00     0.001 A 
HETATM   11  C16 UNL     1      22.235   0.280  52.634  1.00  0.00     0.014 A 
HETATM   12  C17 UNL     1      23.535   0.214  53.080  1.00  0.00    -0.001 A 
ENDROOT
BRANCH   1  13
HETATM   13  N3  UNL     1      23.465   2.006  51.486  1.00  0.00    -0.386 N 
HETATM   14  H12 UNL     1      22.631   2.228  52.089  1.00  0.00     0.160 HD
BRANCH  13  15
HETATM   15  C6  UNL     1      23.633   2.649  50.198  1.00  0.00     0.149 C 
BRANCH  15  16
HETATM   16  C5  UNL     1      24.197   4.003  50.271  1.00  0.00     0.019 C 
HETATM   17  C3  UNL     1      24.209   5.316  50.100  1.00  0.00     0.029 C 
HETATM   18  C4  UNL     1      22.879   5.592  49.449  1.00  0.00     0.070 C 
BRANCH  17  19
HETATM   19  N2  UNL     1      25.092   6.383  50.353  1.00  0.00    -0.249 NA
HETATM   20  C2  UNL     1      26.101   6.709  49.648  1.00  0.00     0.202 C 
BRANCH  20  21
HETATM   21  N1  UNL     1      26.593   6.113  48.460  1.00  0.00    -0.389 N 
HETATM   22  C1  UNL     1      27.617   5.102  48.606  1.00  0.00     0.147 C 
HETATM   23  H4  UNL     1      26.181   6.447  47.564  1.00  0.00     0.159 HD
ENDBRANCH  20  21
ENDBRANCH  17  19
ENDBRANCH  15  16
ENDBRANCH  13  15
ENDBRANCH   1  13
TORSDOF 5
ENDMDL
MODEL 8
REMARK VINA RESULT:      -6.9      3.058      6.955
REMARK  5 active torsions:
REMARK  status: ('A' for Active; 'I' for Inactive)
REMARK    1  A    between atoms: N1_2  and  C2_3 
REMARK    2  A    between atoms: N2_4  and  C3_5 
REMARK    3  A    between atoms: C5_7  and  C6_8 
REMARK    4  A    between atoms: C6_8  and  N3_9 
REMARK    5  A    between atoms: N3_9  and  C7_10 
ROOT
HETATM    1  C7  UNL     1      24.053   4.016  51.372  1.00  0.00     0.039 C 
HETATM    2  C8  UNL     1      22.849   4.473  51.703  1.00  0.00     0.032 C 
HETATM    3  C9  UNL     1      21.999   5.634  51.416  1.00  0.00     0.026 C 
HETATM    4  C10 UNL     1      22.208   6.773  50.735  1.00  0.00     0.135 C 
HETATM    5  O1  UNL     1      23.318   7.257  50.055  1.00  0.00    -0.359 OA
HETATM    6  C11 UNL     1      24.693   7.229  50.297  1.00  0.00     0.214 C 
HETATM    7  C12 UNL     1      25.330   5.933  50.030  1.00  0.00    -0.022 A 
HETATM    8  C13 UNL     1      26.384   6.168  49.163  1.00  0.00     0.010 A 
HETATM    9  C14 UNL     1      27.168   5.115  48.739  1.00  0.00     0.001 A 
HETATM   10  C15 UNL     1      26.887   3.842  49.186  1.00  0.00     0.001 A 
HETATM   11  C16 UNL     1      25.836   3.586  50.054  1.00  0.00     0.014 A 
HETATM   12  C17 UNL     1      25.054   4.636  50.478  1.00  0.00    -0.001 A 
ENDROOT
BRANCH   1  13
HETATM   13  N3  UNL     1      24.513   2.784  51.902  1.00  0.00    -0.386 N 
HETATM   14  H12 UNL     1      24.810   2.141  51.124  1.00  0.00     0.160 HD
BRANCH  13  15
HETATM   15  C6  UNL     1      24.606   2.357  53.284  1.00  0.00     0.149 C 
BRANCH  15  16
HETATM   16  C5  UNL     1      25.613   1.315  53.526  1.00  0.00     0.019 C 
HETATM   17  C3  UNL     1      26.045   0.112  53.871  1.00  0.00     0.029 C 
HETATM   18  C4  UNL     1      24.779  -0.618  54.235  1.00  0.00     0.070 C 
BRANCH  17  19
HETATM   19  N2  UNL     1      27.282  -0.551  53.972  1.00  0.00    -0.249 NA
HETATM   20  C2  UNL     1      28.368  -0.057  54.417  1.00  0.00     0.202 C 
BRANCH  20  21
HETATM   21  N1  UNL     1      28.620   1.245  54.915  1.00  0.00    -0.389 N 
HETATM   22  C1  UNL     1      29.087   2.234  53.969  1.00  0.00     0.147 C 
HETATM   23  H4  UNL     1      28.450   1.398  55.932  1.00  0.00     0.159 HD
ENDBRANCH  20  21
ENDBRANCH  17  19
ENDBRANCH  15  16
ENDBRANCH  13  15
ENDBRANCH   1  13
TORSDOF 5
ENDMDL
MODEL 9
REMARK VINA RESULT:      -6.9      4.053      6.861
REMARK  5 active torsions:
REMARK  status: ('A' for Active; 'I' for Inactive)
REMARK    1  A    between atoms: N1_2  and  C2_3 
REMARK    2  A    between atoms: N2_4  and  C3_5 
REMARK    3  A    between atoms: C5_7  and  C6_8 
REMARK    4  A    between atoms: C6_8  and  N3_9 
REMARK    5  A    between atoms: N3_9  and  C7_10 
ROOT
HETATM    1  C7  UNL     1      22.421   1.166  52.192  1.00  0.00     0.039 C 
HETATM    2  C8  UNL     1      21.501   0.243  51.930  1.00  0.00     0.032 C 
HETATM    3  C9  UNL     1      20.139   0.174  51.386  1.00  0.00     0.026 C 
HETATM    4  C10 UNL     1      19.252   1.116  51.027  1.00  0.00     0.135 C 
HETATM    5  O1  UNL     1      19.311   2.503  51.044  1.00  0.00    -0.359 OA
HETATM    6  C11 UNL     1      19.843   3.441  51.931  1.00  0.00     0.214 C 
HETATM    7  C12 UNL     1      21.306   3.566  51.877  1.00  0.00    -0.022 A 
HETATM    8  C13 UNL     1      21.593   4.906  51.678  1.00  0.00     0.010 A 
HETATM    9  C14 UNL     1      22.906   5.319  51.588  1.00  0.00     0.001 A 
HETATM   10  C15 UNL     1      23.914   4.385  51.696  1.00  0.00     0.001 A 
HETATM   11  C16 UNL     1      23.648   3.039  51.895  1.00  0.00     0.014 A 
HETATM   12  C17 UNL     1      22.338   2.628  51.986  1.00  0.00    -0.001 A 
ENDROOT
BRANCH   1  13
HETATM   13  N3  UNL     1      23.671   0.783  52.744  1.00  0.00    -0.386 N 
HETATM   14  H12 UNL     1      24.417   1.472  52.468  1.00  0.00     0.160 HD
BRANCH  13  15
HETATM   15  C6  UNL     1      23.995  -0.360  53.575  1.00  0.00     0.149 C 
BRANCH  15  16
HETATM   16  C5  UNL     1      25.433  -0.544  53.809  1.00  0.00     0.019 C 
HETATM   17  C3  UNL     1      26.710  -0.621  53.471  1.00  0.00     0.029 C 
HETATM   18  C4  UNL     1      26.687  -0.396  51.982  1.00  0.00     0.070 C 
BRANCH  17  19
HETATM   19  N2  UNL     1      27.939  -0.851  54.119  1.00  0.00    -0.249 NA
HETATM   20  C2  UNL     1      28.665   0.025  54.689  1.00  0.00     0.202 C 
BRANCH  20  21
HETATM   21  N1  UNL     1      28.447   1.419  54.824  1.00  0.00    -0.389 N 
HETATM   22  C1  UNL     1      28.896   2.264  53.740  1.00  0.00     0.147 C 
HETATM   23  H4  UNL     1      27.976   1.736  55.698  1.00  0.00     0.159 HD
ENDBRANCH  20  21
ENDBRANCH  17  19
ENDBRANCH  15  16
ENDBRANCH  13  15
ENDBRANCH   1  13
TORSDOF 5
ENDMDL
