MODEL 1
REMARK VINA RESULT:      -6.1      0.000      0.000
REMARK  7 active torsions:
REMARK  status: ('A' for Active; 'I' for Inactive)
REMARK    1  A    between atoms: C2_2  and  C3_3 
REMARK    2  A    between atoms: C3_3  and  S1_7 
REMARK    3  A    between atoms: C4_4  and  C5_5 
REMARK    4  A    between atoms: S1_7  and  N1_9 
REMARK       I    between atoms: N1_9  and  C6_10 
REMARK    5  A    between atoms: C6_10  and  C7_12 
REMARK    6  A    between atoms: C7_12  and  S2_13 
REMARK    7  A    between atoms: S2_13  and  C8_14 
ROOT
HETATM    1  N1  UNL     1      27.665   2.705  52.632  1.00  0.00    -0.261 N 
HETATM    2  C6  UNL     1      26.838   2.180  51.571  1.00  0.00     0.307 C 
HETATM    3  O2  UNL     1      26.816   0.916  51.383  1.00  0.00    -0.257 OA
HETATM    4  H7  UNL     1      27.743   3.724  52.856  1.00  0.00     0.180 HD
ENDROOT
BRANCH   2   5
HETATM    5  C7  UNL     1      26.092   3.028  50.784  1.00  0.00    -0.005 C 
BRANCH   5   6
HETATM    6  S2  UNL     1      25.302   3.894  49.956  1.00  0.00    -0.042 SA
BRANCH   6   7
HETATM    7  C8  UNL     1      24.327   4.917  48.964  1.00  0.00     0.013 A 
HETATM    8  C9  UNL     1      24.811   6.172  48.670  1.00  0.00     0.021 A 
HETATM    9  C10 UNL     1      24.021   6.983  47.878  1.00  0.00     0.020 A 
HETATM   10  C11 UNL     1      22.834   6.442  47.470  1.00  0.00     0.011 A 
HETATM   11 BR1  UNL     1      21.742   7.556  46.377  1.00  0.00    -0.051 Br
HETATM   12  C12 UNL     1      22.310   5.191  47.738  1.00  0.00     0.020 A 
HETATM   13  C13 UNL     1      23.108   4.389  48.531  1.00  0.00     0.021 A 
ENDBRANCH   6   7
ENDBRANCH   5   6
ENDBRANCH   2   5
BRANCH   1  14
HETATM   14  S1  UNL     1      28.615   1.680  53.639  1.00  0.00     0.153 S 
HETATM   15  O1  UNL     1      29.319   2.403  54.774  1.00  0.00    -0.230 OA
BRANCH  14  16
HETATM   16  C3  UNL     1      27.792   0.239  54.202  1.00  0.00     0.050 C 
HETATM   17  C4  UNL     1      28.433  -0.868  53.939  1.00  0.00     0.027 C 
BRANCH  16  18
HETATM   18  C2  UNL     1      26.513   0.248  54.903  1.00  0.00     0.012 C 
HETATM   19  C1  UNL     1      25.448  -0.357  54.402  1.00  0.00     0.013 C 
ENDBRANCH  16  18
BRANCH  17  20
HETATM   20  C5  UNL     1      29.726  -1.036  53.244  1.00  0.00     0.251 C 
HETATM   21  F1  UNL     1      30.720  -1.367  54.168  1.00  0.00    -0.251 F 
ENDBRANCH  17  20
ENDBRANCH  14  16
ENDBRANCH   1  14
TORSDOF 7
ENDMDL
MODEL 2
REMARK VINA RESULT:      -6.1      2.768      3.196
REMARK  7 active torsions:
REMARK  status: ('A' for Active; 'I' for Inactive)
REMARK    1  A    between atoms: C2_2  and  C3_3 
REMARK    2  A    between atoms: C3_3  and  S1_7 
REMARK    3  A    between atoms: C4_4  and  C5_5 
REMARK    4  A    between atoms: S1_7  and  N1_9 
REMARK       I    between atoms: N1_9  and  C6_10 
REMARK    5  A    between atoms: C6_10  and  C7_12 
REMARK    6  A    between atoms: C7_12  and  S2_13 
REMARK    7  A    between atoms: S2_13  and  C8_14 
ROOT
HETATM    1  N1  UNL     1      26.049   1.821  54.148  1.00  0.00    -0.261 N 
HETATM    2  C6  UNL     1      25.127   1.664  53.048  1.00  0.00     0.307 C 
HETATM    3  O2  UNL     1      24.931   0.492  52.578  1.00  0.00    -0.257 OA
HETATM    4  H7  UNL     1      26.270   2.741  54.593  1.00  0.00     0.180 HD
ENDROOT
BRANCH   2   5
HETATM    5  C7  UNL     1      24.479   2.759  52.522  1.00  0.00    -0.005 C 
BRANCH   5   6
HETATM    6  S2  UNL     1      23.810   3.893  51.951  1.00  0.00    -0.042 SA
BRANCH   6   7
HETATM    7  C8  UNL     1      23.009   5.273  51.291  1.00  0.00     0.013 A 
HETATM    8  C9  UNL     1      21.692   5.129  50.918  1.00  0.00     0.021 A 
HETATM    9  C10 UNL     1      21.062   6.240  50.388  1.00  0.00     0.020 A 
HETATM   10  C11 UNL     1      21.826   7.369  50.294  1.00  0.00     0.011 A 
HETATM   11 BR1  UNL     1      20.961   8.901  49.564  1.00  0.00    -0.051 Br
HETATM   12  C12 UNL     1      23.147   7.558  50.655  1.00  0.00     0.020 A 
HETATM   13  C13 UNL     1      23.766   6.442  51.183  1.00  0.00     0.021 A 
ENDBRANCH   6   7
ENDBRANCH   5   6
ENDBRANCH   2   5
BRANCH   1  14
HETATM   14  S1  UNL     1      26.884   0.480  54.836  1.00  0.00     0.153 S 
HETATM   15  O1  UNL     1      25.974  -0.615  55.364  1.00  0.00    -0.230 OA
BRANCH  14  16
HETATM   16  C3  UNL     1      28.170  -0.173  53.840  1.00  0.00     0.050 C 
HETATM   17  C4  UNL     1      29.229   0.587  53.786  1.00  0.00     0.027 C 
BRANCH  16  18
HETATM   18  C2  UNL     1      28.089  -1.444  53.129  1.00  0.00     0.012 C 
HETATM   19  C1  UNL     1      29.083  -2.316  53.163  1.00  0.00     0.013 C 
ENDBRANCH  16  18
BRANCH  17  20
HETATM   20  C5  UNL     1      29.458   1.891  54.445  1.00  0.00     0.251 C 
HETATM   21  F1  UNL     1      29.033   2.925  53.607  1.00  0.00    -0.251 F 
ENDBRANCH  17  20
ENDBRANCH  14  16
ENDBRANCH   1  14
TORSDOF 7
ENDMDL
MODEL 3
REMARK VINA RESULT:      -6.0      2.912      3.518
REMARK  7 active torsions:
REMARK  status: ('A' for Active; 'I' for Inactive)
REMARK    1  A    between atoms: C2_2  and  C3_3 
REMARK    2  A    between atoms: C3_3  and  S1_7 
REMARK    3  A    between atoms: C4_4  and  C5_5 
REMARK    4  A    between atoms: S1_7  and  N1_9 
REMARK       I    between atoms: N1_9  and  C6_10 
REMARK    5  A    between atoms: C6_10  and  C7_12 
REMARK    6  A    between atoms: C7_12  and  S2_13 
REMARK    7  A    between atoms: S2_13  and  C8_14 
ROOT
HETATM    1  N1  UNL     1      26.611   0.561  51.731  1.00  0.00    -0.261 N 
HETATM    2  C6  UNL     1      25.648   1.566  51.347  1.00  0.00     0.307 C 
HETATM    3  O2  UNL     1      24.431   1.416  51.709  1.00  0.00    -0.257 OA
HETATM    4  H7  UNL     1      27.625   0.604  51.479  1.00  0.00     0.180 HD
ENDROOT
BRANCH   2   5
HETATM    5  C7  UNL     1      26.039   2.659  50.607  1.00  0.00    -0.005 C 
BRANCH   5   6
HETATM    6  S2  UNL     1      26.450   3.811  49.855  1.00  0.00    -0.042 SA
BRANCH   6   7
HETATM    7  C8  UNL     1      26.971   5.181  48.944  1.00  0.00     0.013 A 
HETATM    8  C9  UNL     1      26.040   6.159  48.672  1.00  0.00     0.021 A 
HETATM    9  C10 UNL     1      26.466   7.250  47.940  1.00  0.00     0.020 A 
HETATM   10  C11 UNL     1      27.780   7.237  47.564  1.00  0.00     0.011 A 
HETATM   11 BR1  UNL     1      28.373   8.740  46.554  1.00  0.00    -0.051 Br
HETATM   12  C12 UNL     1      28.748   6.281  47.814  1.00  0.00     0.020 A 
HETATM   13  C13 UNL     1      28.310   5.196  48.546  1.00  0.00     0.021 A 
ENDBRANCH   6   7
ENDBRANCH   5   6
ENDBRANCH   2   5
BRANCH   1  14
HETATM   14  S1  UNL     1      26.165  -0.822  52.656  1.00  0.00     0.153 S 
HETATM   15  O1  UNL     1      27.179  -1.952  52.614  1.00  0.00    -0.230 OA
BRANCH  14  16
HETATM   16  C3  UNL     1      25.652  -0.475  54.295  1.00  0.00     0.050 C 
HETATM   17  C4  UNL     1      26.551   0.151  55.005  1.00  0.00     0.027 C 
BRANCH  16  18
HETATM   18  C2  UNL     1      24.348  -0.839  54.839  1.00  0.00     0.012 C 
HETATM   19  C1  UNL     1      23.248  -0.747  54.110  1.00  0.00     0.013 C 
ENDBRANCH  16  18
BRANCH  17  20
HETATM   20  C5  UNL     1      27.905   0.583  54.597  1.00  0.00     0.251 C 
HETATM   21  F1  UNL     1      28.843  -0.377  54.982  1.00  0.00    -0.251 F 
ENDBRANCH  17  20
ENDBRANCH  14  16
ENDBRANCH   1  14
TORSDOF 7
ENDMDL
MODEL 4
REMARK VINA RESULT:      -6.0      5.839      6.784
REMARK  7 active torsions:
REMARK  status: ('A' for Active; 'I' for Inactive)
REMARK    1  A    between atoms: C2_2  and  C3_3 
REMARK    2  A    between atoms: C3_3  and  S1_7 
REMARK    3  A    between atoms: C4_4  and  C5_5 
REMARK    4  A    between atoms: S1_7  and  N1_9 
REMARK       I    between atoms: N1_9  and  C6_10 
REMARK    5  A    between atoms: C6_10  and  C7_12 
REMARK    6  A    between atoms: C7_12  and  S2_13 
REMARK    7  A    between atoms: S2_13  and  C8_14 
ROOT
HETATM    1  N1  UNL     1      24.105  -0.348  53.900  1.00  0.00    -0.261 N 
HETATM    2  C6  UNL     1      23.282   0.619  53.212  1.00  0.00     0.307 C 
HETATM    3  O2  UNL     1      23.802   1.741  52.885  1.00  0.00    -0.257 OA
HETATM    4  H7  UNL     1      23.763  -1.288  54.204  1.00  0.00     0.180 HD
ENDROOT
BRANCH   2   5
HETATM    5  C7  UNL     1      21.968   0.333  52.918  1.00  0.00    -0.005 C 
BRANCH   5   6
HETATM    6  S2  UNL     1      20.595   0.057  52.604  1.00  0.00    -0.042 SA
BRANCH   6   7
HETATM    7  C8  UNL     1      18.952  -0.305  52.218  1.00  0.00     0.013 A 
HETATM    8  C9  UNL     1      18.232  -1.050  53.125  1.00  0.00     0.021 A 
HETATM    9  C10 UNL     1      16.918  -1.336  52.805  1.00  0.00     0.020 A 
HETATM   10  C11 UNL     1      16.476  -0.841  51.611  1.00  0.00     0.011 A 
HETATM   11 BR1  UNL     1      14.666  -1.233  51.166  1.00  0.00    -0.051 Br
HETATM   12  C12 UNL     1      17.160  -0.091  50.672  1.00  0.00     0.020 A 
HETATM   13  C13 UNL     1      18.472   0.189  51.003  1.00  0.00     0.021 A 
ENDBRANCH   6   7
ENDBRANCH   5   6
ENDBRANCH   2   5
BRANCH   1  14
HETATM   14  S1  UNL     1      25.753  -0.031  54.288  1.00  0.00     0.153 S 
HETATM   15  O1  UNL     1      26.188  -0.569  55.640  1.00  0.00    -0.230 OA
BRANCH  14  16
HETATM   16  C3  UNL     1      26.897  -0.448  53.027  1.00  0.00     0.050 C 
HETATM   17  C4  UNL     1      27.487   0.585  52.491  1.00  0.00     0.027 C 
BRANCH  16  18
HETATM   18  C2  UNL     1      27.182  -1.814  52.601  1.00  0.00     0.012 C 
HETATM   19  C1  UNL     1      28.326  -2.406  52.906  1.00  0.00     0.013 C 
ENDBRANCH  16  18
BRANCH  17  20
HETATM   20  C5  UNL     1      27.304   2.016  52.813  1.00  0.00     0.251 C 
HETATM   21  F1  UNL     1      28.232   2.404  53.783  1.00  0.00    -0.251 F 
ENDBRANCH  17  20
ENDBRANCH  14  16
ENDBRANCH   1  14
TORSDOF 7
ENDMDL
MODEL 5
REMARK VINA RESULT:      -5.9      3.291      4.092
REMARK  7 active torsions:
REMARK  status: ('A' for Active; 'I' for Inactive)
REMARK    1  A    between atoms: C2_2  and  C3_3 
REMARK    2  A    between atoms: C3_3  and  S1_7 
REMARK    3  A    between atoms: C4_4  and  C5_5 
REMARK    4  A    between atoms: S1_7  and  N1_9 
REMARK       I    between atoms: N1_9  and  C6_10 
REMARK    5  A    between atoms: C6_10  and  C7_12 
REMARK    6  A    between atoms: C7_12  and  S2_13 
REMARK    7  A    between atoms: S2_13  and  C8_14 
ROOT
HETATM    1  N1  UNL     1      26.860   1.196  51.659  1.00  0.00    -0.261 N 
HETATM    2  C6  UNL     1      25.897   2.118  51.103  1.00  0.00     0.307 C 
HETATM    3  O2  UNL     1      24.655   1.905  51.316  1.00  0.00    -0.257 OA
HETATM    4  H7  UNL     1      27.894   1.294  51.535  1.00  0.00     0.180 HD
ENDROOT
BRANCH   2   5
HETATM    5  C7  UNL     1      26.316   3.200  50.362  1.00  0.00    -0.005 C 
BRANCH   5   6
HETATM    6  S2  UNL     1      26.730   4.336  49.589  1.00  0.00    -0.042 SA
BRANCH   6   7
HETATM    7  C8  UNL     1      27.230   5.684  48.633  1.00  0.00     0.013 A 
HETATM    8  C9  UNL     1      26.279   6.626  48.311  1.00  0.00     0.021 A 
HETATM    9  C10 UNL     1      26.690   7.700  47.543  1.00  0.00     0.020 A 
HETATM   10  C11 UNL     1      28.009   7.706  47.186  1.00  0.00     0.011 A 
HETATM   11 BR1  UNL     1      28.579   9.184  46.128  1.00  0.00    -0.051 Br
HETATM   12  C12 UNL     1      28.996   6.785  47.487  1.00  0.00     0.020 A 
HETATM   13  C13 UNL     1      28.574   5.718  48.254  1.00  0.00     0.021 A 
ENDBRANCH   6   7
ENDBRANCH   5   6
ENDBRANCH   2   5
BRANCH   1  14
HETATM   14  S1  UNL     1      26.381  -0.171  52.590  1.00  0.00     0.153 S 
HETATM   15  O1  UNL     1      26.759  -1.507  51.975  1.00  0.00    -0.230 OA
BRANCH  14  16
HETATM   16  C3  UNL     1      26.819  -0.093  54.285  1.00  0.00     0.050 C 
HETATM   17  C4  UNL     1      25.834  -0.370  55.096  1.00  0.00     0.027 C 
BRANCH  16  18
HETATM   18  C2  UNL     1      28.153   0.244  54.771  1.00  0.00     0.012 C 
HETATM   19  C1  UNL     1      29.240  -0.183  54.150  1.00  0.00     0.013 C 
ENDBRANCH  16  18
BRANCH  17  20
HETATM   20  C5  UNL     1      24.440  -0.726  54.757  1.00  0.00     0.251 C 
HETATM   21  F1  UNL     1      23.892  -1.511  55.775  1.00  0.00    -0.251 F 
ENDBRANCH  17  20
ENDBRANCH  14  16
ENDBRANCH   1  14
TORSDOF 7
ENDMDL
MODEL 6
REMARK VINA RESULT:      -5.9      5.471      6.266
REMARK  7 active torsions:
REMARK  status: ('A' for Active; 'I' for Inactive)
REMARK    1  A    between atoms: C2_2  and  C3_3 
REMARK    2  A    between atoms: C3_3  and  S1_7 
REMARK    3  A    between atoms: C4_4  and  C5_5 
REMARK    4  A    between atoms: S1_7  and  N1_9 
REMARK       I    between atoms: N1_9  and  C6_10 
REMARK    5  A    between atoms: C6_10  and  C7_12 
REMARK    6  A    between atoms: C7_12  and  S2_13 
REMARK    7  A    between atoms: S2_13  and  C8_14 
ROOT
HETATM    1  N1  UNL     1      24.336   0.094  53.833  1.00  0.00    -0.261 N 
HETATM    2  C6  UNL     1      23.527   1.087  53.167  1.00  0.00     0.307 C 
HETATM    3  O2  UNL     1      24.021   2.251  52.977  1.00  0.00    -0.257 OA
HETATM    4  H7  UNL     1      24.013  -0.881  54.029  1.00  0.00     0.180 HD
ENDROOT
BRANCH   2   5
HETATM    5  C7  UNL     1      22.252   0.780  52.749  1.00  0.00    -0.005 C 
BRANCH   5   6
HETATM    6  S2  UNL     1      20.920   0.482  52.305  1.00  0.00    -0.042 SA
BRANCH   6   7
HETATM    7  C8  UNL     1      19.307   0.132  51.798  1.00  0.00     0.013 A 
HETATM    8  C9  UNL     1      18.519  -0.613  52.646  1.00  0.00     0.021 A 
HETATM    9  C10 UNL     1      17.230  -0.890  52.230  1.00  0.00     0.020 A 
HETATM   10  C11 UNL     1      16.879  -0.386  51.009  1.00  0.00     0.011 A 
HETATM   11 BR1  UNL     1      15.104  -0.765  50.431  1.00  0.00    -0.051 Br
HETATM   12  C12 UNL     1      17.634   0.365  50.127  1.00  0.00     0.020 A 
HETATM   13  C13 UNL     1      18.919   0.635  50.553  1.00  0.00     0.021 A 
ENDBRANCH   6   7
ENDBRANCH   5   6
ENDBRANCH   2   5
BRANCH   1  14
HETATM   14  S1  UNL     1      25.936   0.435  54.374  1.00  0.00     0.153 S 
HETATM   15  O1  UNL     1      26.423  -0.475  55.487  1.00  0.00    -0.230 OA
BRANCH  14  16
HETATM   16  C3  UNL     1      27.125   0.587  53.096  1.00  0.00     0.050 C 
HETATM   17  C4  UNL     1      27.322  -0.516  52.427  1.00  0.00     0.027 C 
BRANCH  16  18
HETATM   18  C2  UNL     1      27.841   1.821  52.786  1.00  0.00     0.012 C 
HETATM   19  C1  UNL     1      28.578   2.436  53.696  1.00  0.00     0.013 C 
ENDBRANCH  16  18
BRANCH  17  20
HETATM   20  C5  UNL     1      26.679  -1.833  52.622  1.00  0.00     0.251 C 
HETATM   21  F1  UNL     1      27.636  -2.847  52.514  1.00  0.00    -0.251 F 
ENDBRANCH  17  20
ENDBRANCH  14  16
ENDBRANCH   1  14
TORSDOF 7
ENDMDL
MODEL 7
REMARK VINA RESULT:      -5.9      5.602      6.705
REMARK  7 active torsions:
REMARK  status: ('A' for Active; 'I' for Inactive)
REMARK    1  A    between atoms: C2_2  and  C3_3 
REMARK    2  A    between atoms: C3_3  and  S1_7 
REMARK    3  A    between atoms: C4_4  and  C5_5 
REMARK    4  A    between atoms: S1_7  and  N1_9 
REMARK       I    between atoms: N1_9  and  C6_10 
REMARK    5  A    between atoms: C6_10  and  C7_12 
REMARK    6  A    between atoms: C7_12  and  S2_13 
REMARK    7  A    between atoms: S2_13  and  C8_14 
ROOT
HETATM    1  N1  UNL     1      24.464  -0.219  53.125  1.00  0.00    -0.261 N 
HETATM    2  C6  UNL     1      23.408  -0.676  53.998  1.00  0.00     0.307 C 
HETATM    3  O2  UNL     1      23.724  -1.145  55.144  1.00  0.00    -0.257 OA
HETATM    4  H7  UNL     1      24.298   0.178  52.172  1.00  0.00     0.180 HD
ENDROOT
BRANCH   2   5
HETATM    5  C7  UNL     1      22.093  -0.605  53.596  1.00  0.00    -0.005 C 
BRANCH   5   6
HETATM    6  S2  UNL     1      20.717  -0.520  53.198  1.00  0.00    -0.042 SA
BRANCH   6   7
HETATM    7  C8  UNL     1      19.069  -0.391  52.702  1.00  0.00     0.013 A 
HETATM    8  C9  UNL     1      18.754   0.580  51.778  1.00  0.00     0.021 A 
HETATM    9  C10 UNL     1      17.430   0.676  51.390  1.00  0.00     0.020 A 
HETATM   10  C11 UNL     1      16.574  -0.215  51.974  1.00  0.00     0.011 A 
HETATM   11 BR1  UNL     1      14.749  -0.086  51.441  1.00  0.00    -0.051 Br
HETATM   12  C12 UNL     1      16.845  -1.203  52.902  1.00  0.00     0.020 A 
HETATM   13  C13 UNL     1      18.169  -1.290  53.282  1.00  0.00     0.021 A 
ENDBRANCH   6   7
ENDBRANCH   5   6
ENDBRANCH   2   5
BRANCH   1  14
HETATM   14  S1  UNL     1      26.122  -0.291  53.586  1.00  0.00     0.153 S 
HETATM   15  O1  UNL     1      26.708  -1.692  53.586  1.00  0.00    -0.230 OA
BRANCH  14  16
HETATM   16  C3  UNL     1      27.165   0.845  52.752  1.00  0.00     0.050 C 
HETATM   17  C4  UNL     1      28.275   1.103  53.387  1.00  0.00     0.027 C 
BRANCH  16  18
HETATM   18  C2  UNL     1      26.845   1.457  51.467  1.00  0.00     0.012 C 
HETATM   19  C1  UNL     1      26.239   2.631  51.395  1.00  0.00     0.013 C 
ENDBRANCH  16  18
BRANCH  17  20
HETATM   20  C5  UNL     1      28.735   0.565  54.685  1.00  0.00     0.251 C 
HETATM   21  F1  UNL     1      29.562  -0.541  54.473  1.00  0.00    -0.251 F 
ENDBRANCH  17  20
ENDBRANCH  14  16
ENDBRANCH   1  14
TORSDOF 7
ENDMDL
MODEL 8
REMARK VINA RESULT:      -5.9      4.362      5.335
REMARK  7 active torsions:
REMARK  status: ('A' for Active; 'I' for Inactive)
REMARK    1  A    between atoms: C2_2  and  C3_3 
REMARK    2  A    between atoms: C3_3  and  S1_7 
REMARK    3  A    between atoms: C4_4  and  C5_5 
REMARK    4  A    between atoms: S1_7  and  N1_9 
REMARK       I    between atoms: N1_9  and  C6_10 
REMARK    5  A    between atoms: C6_10  and  C7_12 
REMARK    6  A    between atoms: C7_12  and  S2_13 
REMARK    7  A    between atoms: S2_13  and  C8_14 
ROOT
HETATM    1  N1  UNL     1      24.091   1.841  51.558  1.00  0.00    -0.261 N 
HETATM    2  C6  UNL     1      23.732   3.158  51.086  1.00  0.00     0.307 C 
HETATM    3  O2  UNL     1      22.558   3.598  51.339  1.00  0.00    -0.257 OA
HETATM    4  H7  UNL     1      25.027   1.403  51.396  1.00  0.00     0.180 HD
ENDROOT
BRANCH   2   5
HETATM    5  C7  UNL     1      24.638   3.916  50.380  1.00  0.00    -0.005 C 
BRANCH   5   6
HETATM    6  S2  UNL     1      25.594   4.712  49.664  1.00  0.00    -0.042 SA
BRANCH   6   7
HETATM    7  C8  UNL     1      26.753   5.643  48.786  1.00  0.00     0.013 A 
HETATM    8  C9  UNL     1      26.341   6.849  48.266  1.00  0.00     0.021 A 
HETATM    9  C10 UNL     1      27.276   7.585  47.562  1.00  0.00     0.020 A 
HETATM   10  C11 UNL     1      28.519   7.026  47.462  1.00  0.00     0.011 A 
HETATM   11 BR1  UNL     1      29.811   8.038  46.494  1.00  0.00    -0.051 Br
HETATM   12  C12 UNL     1      28.976   5.823  47.968  1.00  0.00     0.020 A 
HETATM   13  C13 UNL     1      28.034   5.097  48.668  1.00  0.00     0.021 A 
ENDBRANCH   6   7
ENDBRANCH   5   6
ENDBRANCH   2   5
BRANCH   1  14
HETATM   14  S1  UNL     1      22.988   0.858  52.443  1.00  0.00     0.153 S 
HETATM   15  O1  UNL     1      21.901   0.223  51.594  1.00  0.00    -0.230 OA
BRANCH  14  16
HETATM   16  C3  UNL     1      23.742  -0.312  53.509  1.00  0.00     0.050 C 
HETATM   17  C4  UNL     1      22.933  -0.800  54.409  1.00  0.00     0.027 C 
BRANCH  16  18
HETATM   18  C2  UNL     1      25.139  -0.721  53.417  1.00  0.00     0.012 C 
HETATM   19  C1  UNL     1      26.063  -0.199  54.207  1.00  0.00     0.013 C 
ENDBRANCH  16  18
BRANCH  17  20
HETATM   20  C5  UNL     1      21.504  -0.486  54.625  1.00  0.00     0.251 C 
HETATM   21  F1  UNL     1      20.754  -1.665  54.610  1.00  0.00    -0.251 F 
ENDBRANCH  17  20
ENDBRANCH  14  16
ENDBRANCH   1  14
TORSDOF 7
ENDMDL
MODEL 9
REMARK VINA RESULT:      -5.8      5.650      8.306
REMARK  7 active torsions:
REMARK  status: ('A' for Active; 'I' for Inactive)
REMARK    1  A    between atoms: C2_2  and  C3_3 
REMARK    2  A    between atoms: C3_3  and  S1_7 
REMARK    3  A    between atoms: C4_4  and  C5_5 
REMARK    4  A    between atoms: S1_7  and  N1_9 
REMARK       I    between atoms: N1_9  and  C6_10 
REMARK    5  A    between atoms: C6_10  and  C7_12 
REMARK    6  A    between atoms: C7_12  and  S2_13 
REMARK    7  A    between atoms: S2_13  and  C8_14 
ROOT
HETATM    1  N1  UNL     1      25.770   6.416  50.394  1.00  0.00    -0.261 N 
HETATM    2  C6  UNL     1      24.797   5.515  49.823  1.00  0.00     0.307 C 
HETATM    3  O2  UNL     1      24.366   5.749  48.642  1.00  0.00    -0.257 OA
HETATM    4  H7  UNL     1      26.175   6.301  51.351  1.00  0.00     0.180 HD
ENDROOT
BRANCH   2   5
HETATM    5  C7  UNL     1      24.345   4.431  50.542  1.00  0.00    -0.005 C 
BRANCH   5   6
HETATM    6  S2  UNL     1      23.855   3.313  51.297  1.00  0.00    -0.042 SA
BRANCH   6   7
HETATM    7  C8  UNL     1      23.261   1.953  52.178  1.00  0.00     0.013 A 
HETATM    8  C9  UNL     1      24.163   0.972  52.522  1.00  0.00     0.021 A 
HETATM    9  C10 UNL     1      23.676  -0.115  53.225  1.00  0.00     0.020 A 
HETATM   10  C11 UNL     1      22.338  -0.092  53.503  1.00  0.00     0.011 A 
HETATM   11 BR1  UNL     1      21.663  -1.587  54.471  1.00  0.00    -0.051 Br
HETATM   12  C12 UNL     1      21.398   0.869  53.178  1.00  0.00     0.020 A 
HETATM   13  C13 UNL     1      21.896   1.949  52.477  1.00  0.00     0.021 A 
ENDBRANCH   6   7
ENDBRANCH   5   6
ENDBRANCH   2   5
BRANCH   1  14
HETATM   14  S1  UNL     1      26.361   7.785  49.531  1.00  0.00     0.153 S 
HETATM   15  O1  UNL     1      27.067   8.810  50.400  1.00  0.00    -0.230 OA
BRANCH  14  16
HETATM   16  C3  UNL     1      27.291   7.402  48.096  1.00  0.00     0.050 C 
HETATM   17  C4  UNL     1      26.837   7.964  47.010  1.00  0.00     0.027 C 
BRANCH  16  18
HETATM   18  C2  UNL     1      28.469   6.540  48.091  1.00  0.00     0.012 C 
HETATM   19  C1  UNL     1      28.383   5.255  48.393  1.00  0.00     0.013 C 
ENDBRANCH  16  18
BRANCH  17  20
HETATM   20  C5  UNL     1      25.666   8.854  46.858  1.00  0.00     0.251 C 
HETATM   21  F1  UNL     1      24.563   8.114  46.425  1.00  0.00    -0.251 F 
ENDBRANCH  17  20
ENDBRANCH  14  16
ENDBRANCH   1  14
TORSDOF 7
ENDMDL
