MODEL 1
REMARK VINA RESULT:      -7.4      0.000      0.000
REMARK  6 active torsions:
REMARK  status: ('A' for Active; 'I' for Inactive)
REMARK    1  A    between atoms: N1_2  and  C2_3 
REMARK    2  A    between atoms: C2_3  and  S1_8 
REMARK    3  A    between atoms: C3_4  and  C4_5 
REMARK    4  A    between atoms: S1_8  and  N2_11 
REMARK       I    between atoms: N2_11  and  C7_12 
REMARK    5  A    between atoms: C7_12  and  C8_14 
REMARK    6  A    between atoms: C8_14  and  C9_15 
ROOT
HETATM    1  N2  UNL     1      23.608   1.381  51.410  1.00  0.00    -0.249 N 
HETATM    2  C7  UNL     1      23.896   1.474  52.797  1.00  0.00     0.235 C 
HETATM    3  O3  UNL     1      23.849   2.667  53.207  1.00  0.00    -0.272 OA
HETATM    4  H9  UNL     1      23.606   0.445  50.907  1.00  0.00     0.182 HD
ENDROOT
BRANCH   1   5
HETATM    5  S1  UNL     1      23.269   2.886  50.619  1.00  0.00     0.280 S 
HETATM    6  O1  UNL     1      22.451   3.789  51.504  1.00  0.00    -0.199 OA
HETATM    7  O2  UNL     1      22.483   2.665  49.357  1.00  0.00    -0.199 OA
BRANCH   5   8
HETATM    8  C2  UNL     1      24.781   3.688  50.287  1.00  0.00     0.145 C 
HETATM    9  C3  UNL     1      24.992   4.336  49.154  1.00  0.00     0.050 C 
BRANCH   8  10
HETATM   10  N1  UNL     1      25.938   3.760  51.133  1.00  0.00    -0.384 N 
HETATM   11  C1  UNL     1      26.759   2.559  51.226  1.00  0.00     0.147 C 
HETATM   12  H4  UNL     1      26.156   4.650  51.649  1.00  0.00     0.159 HD
ENDBRANCH   8  10
BRANCH   9  13
HETATM   13  C4  UNL     1      26.274   4.986  48.934  1.00  0.00    -0.055 A 
HETATM   14  C5  UNL     1      26.955   6.145  48.891  1.00  0.00    -0.015 A 
HETATM   15  C6  UNL     1      27.713   4.947  48.616  1.00  0.00     0.066 A 
ENDBRANCH   9  13
ENDBRANCH   5   8
ENDBRANCH   1   5
BRANCH   2  16
HETATM   16  C8  UNL     1      24.191   0.197  53.506  1.00  0.00     0.142 C 
BRANCH  16  17
HETATM   17  C9  UNL     1      25.653  -0.019  53.663  1.00  0.00    -0.049 A 
HETATM   18  C10 UNL     1      26.208  -0.908  52.739  1.00  0.00     0.009 A 
HETATM   19  C11 UNL     1      27.546  -1.198  52.769  1.00  0.00     0.024 A 
HETATM   20  C12 UNL     1      28.367  -0.613  53.719  1.00  0.00     0.034 A 
HETATM   21 CL1  UNL     1      30.073  -0.981  53.761  1.00  0.00    -0.084 Cl
HETATM   22  C13 UNL     1      27.818   0.264  54.630  1.00  0.00     0.024 A 
HETATM   23  C14 UNL     1      26.474   0.561  54.608  1.00  0.00     0.009 A 
ENDBRANCH  16  17
ENDBRANCH   2  16
TORSDOF 6
ENDMDL
MODEL 2
REMARK VINA RESULT:      -7.3      1.135      1.788
REMARK  6 active torsions:
REMARK  status: ('A' for Active; 'I' for Inactive)
REMARK    1  A    between atoms: N1_2  and  C2_3 
REMARK    2  A    between atoms: C2_3  and  S1_8 
REMARK    3  A    between atoms: C3_4  and  C4_5 
REMARK    4  A    between atoms: S1_8  and  N2_11 
REMARK       I    between atoms: N2_11  and  C7_12 
REMARK    5  A    between atoms: C7_12  and  C8_14 
REMARK    6  A    between atoms: C8_14  and  C9_15 
ROOT
HETATM    1  N2  UNL     1      24.181   1.611  52.558  1.00  0.00    -0.249 N 
HETATM    2  C7  UNL     1      23.506   0.429  52.961  1.00  0.00     0.235 C 
HETATM    3  O3  UNL     1      22.442   0.250  52.305  1.00  0.00    -0.272 OA
HETATM    4  H9  UNL     1      25.094   1.909  53.011  1.00  0.00     0.182 HD
ENDROOT
BRANCH   1   5
HETATM    5  S1  UNL     1      23.409   2.513  51.293  1.00  0.00     0.280 S 
HETATM    6  O1  UNL     1      22.205   3.252  51.815  1.00  0.00    -0.199 OA
HETATM    7  O2  UNL     1      22.936   1.603  50.195  1.00  0.00    -0.199 OA
BRANCH   5   8
HETATM    8  C2  UNL     1      24.541   3.694  50.688  1.00  0.00     0.145 C 
HETATM    9  C3  UNL     1      25.199   3.512  49.557  1.00  0.00     0.050 C 
BRANCH   8  10
HETATM   10  N1  UNL     1      24.899   4.949  51.285  1.00  0.00    -0.384 N 
HETATM   11  C1  UNL     1      23.860   5.972  51.333  1.00  0.00     0.147 C 
HETATM   12  H4  UNL     1      25.870   5.094  51.660  1.00  0.00     0.159 HD
ENDBRANCH   8  10
BRANCH   9  13
HETATM   13  C4  UNL     1      26.131   4.533  49.103  1.00  0.00    -0.055 A 
HETATM   14  C5  UNL     1      27.409   4.849  48.832  1.00  0.00    -0.015 A 
HETATM   15  C6  UNL     1      26.434   5.893  48.622  1.00  0.00     0.066 A 
ENDBRANCH   9  13
ENDBRANCH   5   8
ENDBRANCH   1   5
BRANCH   2  16
HETATM   16  C8  UNL     1      24.144  -0.369  54.045  1.00  0.00     0.142 C 
BRANCH  16  17
HETATM   17  C9  UNL     1      25.608  -0.512  53.832  1.00  0.00    -0.049 A 
HETATM   18  C10 UNL     1      26.397   0.145  54.779  1.00  0.00     0.009 A 
HETATM   19  C11 UNL     1      27.762   0.095  54.704  1.00  0.00     0.024 A 
HETATM   20  C12 UNL     1      28.381  -0.609  53.683  1.00  0.00     0.034 A 
HETATM   21 CL1  UNL     1      30.123  -0.674  53.583  1.00  0.00    -0.084 Cl
HETATM   22  C13 UNL     1      27.601  -1.257  52.749  1.00  0.00     0.024 A 
HETATM   23  C14 UNL     1      26.228  -1.212  52.817  1.00  0.00     0.009 A 
ENDBRANCH  16  17
ENDBRANCH   2  16
TORSDOF 6
ENDMDL
MODEL 3
REMARK VINA RESULT:      -6.9      1.315      2.058
REMARK  6 active torsions:
REMARK  status: ('A' for Active; 'I' for Inactive)
REMARK    1  A    between atoms: N1_2  and  C2_3 
REMARK    2  A    between atoms: C2_3  and  S1_8 
REMARK    3  A    between atoms: C3_4  and  C4_5 
REMARK    4  A    between atoms: S1_8  and  N2_11 
REMARK       I    between atoms: N2_11  and  C7_12 
REMARK    5  A    between atoms: C7_12  and  C8_14 
REMARK    6  A    between atoms: C8_14  and  C9_15 
ROOT
HETATM    1  N2  UNL     1      24.759   3.132  51.926  1.00  0.00    -0.249 N 
HETATM    2  C7  UNL     1      24.044   1.943  52.228  1.00  0.00     0.235 C 
HETATM    3  O3  UNL     1      23.212   1.653  51.324  1.00  0.00    -0.272 OA
HETATM    4  H9  UNL     1      25.498   3.516  52.586  1.00  0.00     0.182 HD
ENDROOT
BRANCH   1   5
HETATM    5  S1  UNL     1      24.336   3.893  50.426  1.00  0.00     0.280 S 
HETATM    6  O1  UNL     1      23.133   4.783  50.593  1.00  0.00    -0.199 OA
HETATM    7  O2  UNL     1      23.995   2.868  49.381  1.00  0.00    -0.199 OA
BRANCH   5   8
HETATM    8  C2  UNL     1      25.674   4.890  49.917  1.00  0.00     0.145 C 
HETATM    9  C3  UNL     1      26.505   4.506  48.964  1.00  0.00     0.050 C 
BRANCH   8  10
HETATM   10  N1  UNL     1      26.042   6.182  50.420  1.00  0.00    -0.384 N 
HETATM   11  C1  UNL     1      25.059   7.249  50.273  1.00  0.00     0.147 C 
HETATM   12  H4  UNL     1      26.983   6.323  50.867  1.00  0.00     0.159 HD
ENDBRANCH   8  10
BRANCH   9  13
HETATM   13  C4  UNL     1      27.602   5.381  48.582  1.00  0.00    -0.055 A 
HETATM   14  C5  UNL     1      28.919   5.491  48.334  1.00  0.00    -0.015 A 
HETATM   15  C6  UNL     1      28.139   6.699  48.197  1.00  0.00     0.066 A 
ENDBRANCH   9  13
ENDBRANCH   5   8
ENDBRANCH   1   5
BRANCH   2  16
HETATM   16  C8  UNL     1      24.385   1.265  53.510  1.00  0.00     0.142 C 
BRANCH  16  17
HETATM   17  C9  UNL     1      25.689   0.556  53.427  1.00  0.00    -0.049 A 
HETATM   18  C10 UNL     1      26.706   1.124  54.197  1.00  0.00     0.009 A 
HETATM   19  C11 UNL     1      27.958   0.572  54.214  1.00  0.00     0.024 A 
HETATM   20  C12 UNL     1      28.232  -0.561  53.464  1.00  0.00     0.034 A 
HETATM   21 CL1  UNL     1      29.828  -1.268  53.482  1.00  0.00    -0.084 Cl
HETATM   22  C13 UNL     1      27.227  -1.121  52.705  1.00  0.00     0.024 A 
HETATM   23  C14 UNL     1      25.966  -0.572  52.682  1.00  0.00     0.009 A 
ENDBRANCH  16  17
ENDBRANCH   2  16
TORSDOF 6
ENDMDL
MODEL 4
REMARK VINA RESULT:      -6.7      3.700      7.114
REMARK  6 active torsions:
REMARK  status: ('A' for Active; 'I' for Inactive)
REMARK    1  A    between atoms: N1_2  and  C2_3 
REMARK    2  A    between atoms: C2_3  and  S1_8 
REMARK    3  A    between atoms: C3_4  and  C4_5 
REMARK    4  A    between atoms: S1_8  and  N2_11 
REMARK       I    between atoms: N2_11  and  C7_12 
REMARK    5  A    between atoms: C7_12  and  C8_14 
REMARK    6  A    between atoms: C8_14  and  C9_15 
ROOT
HETATM    1  N2  UNL     1      25.409   1.966  51.185  1.00  0.00    -0.249 N 
HETATM    2  C7  UNL     1      26.584   2.629  50.745  1.00  0.00     0.235 C 
HETATM    3  O3  UNL     1      27.447   2.713  51.662  1.00  0.00    -0.272 OA
HETATM    4  H9  UNL     1      24.583   1.813  50.534  1.00  0.00     0.182 HD
ENDROOT
BRANCH   1   5
HETATM    5  S1  UNL     1      25.427   1.438  52.837  1.00  0.00     0.280 S 
HETATM    6  O1  UNL     1      25.665   2.596  53.770  1.00  0.00    -0.199 OA
HETATM    7  O2  UNL     1      26.526   0.440  53.070  1.00  0.00    -0.199 OA
BRANCH   5   8
HETATM    8  C2  UNL     1      23.867   0.757  53.216  1.00  0.00     0.145 C 
HETATM    9  C3  UNL     1      23.744  -0.341  53.940  1.00  0.00     0.050 C 
BRANCH   8  10
HETATM   10  N1  UNL     1      22.578   1.254  52.827  1.00  0.00    -0.384 N 
HETATM   11  C1  UNL     1      22.202   1.080  51.428  1.00  0.00     0.147 C 
HETATM   12  H4  UNL     1      21.957   1.716  53.538  1.00  0.00     0.159 HD
ENDBRANCH   8  10
BRANCH   9  13
HETATM   13  C4  UNL     1      22.415  -0.862  54.223  1.00  0.00    -0.055 A 
HETATM   14  C5  UNL     1      21.562  -1.893  54.101  1.00  0.00    -0.015 A 
HETATM   15  C6  UNL     1      21.065  -0.731  54.800  1.00  0.00     0.066 A 
ENDBRANCH   9  13
ENDBRANCH   5   8
ENDBRANCH   1   5
BRANCH   2  16
HETATM   16  C8  UNL     1      26.599   3.094  49.329  1.00  0.00     0.142 C 
BRANCH  16  17
HETATM   17  C9  UNL     1      26.671   4.576  49.238  1.00  0.00    -0.049 A 
HETATM   18  C10 UNL     1      27.782   5.059  48.543  1.00  0.00     0.009 A 
HETATM   19  C11 UNL     1      27.972   6.405  48.383  1.00  0.00     0.024 A 
HETATM   20  C12 UNL     1      27.063   7.307  48.912  1.00  0.00     0.034 A 
HETATM   21 CL1  UNL     1      27.302   9.025  48.710  1.00  0.00    -0.084 Cl
HETATM   22  C13 UNL     1      25.967   6.829  49.598  1.00  0.00     0.024 A 
HETATM   23  C14 UNL     1      25.768   5.478  49.763  1.00  0.00     0.009 A 
ENDBRANCH  16  17
ENDBRANCH   2  16
TORSDOF 6
ENDMDL
MODEL 5
REMARK VINA RESULT:      -6.7      6.692      9.049
REMARK  6 active torsions:
REMARK  status: ('A' for Active; 'I' for Inactive)
REMARK    1  A    between atoms: N1_2  and  C2_3 
REMARK    2  A    between atoms: C2_3  and  S1_8 
REMARK    3  A    between atoms: C3_4  and  C4_5 
REMARK    4  A    between atoms: S1_8  and  N2_11 
REMARK       I    between atoms: N2_11  and  C7_12 
REMARK    5  A    between atoms: C7_12  and  C8_14 
REMARK    6  A    between atoms: C8_14  and  C9_15 
ROOT
HETATM    1  N2  UNL     1      30.645   6.749  47.602  1.00  0.00    -0.249 N 
HETATM    2  C7  UNL     1      29.571   7.475  48.181  1.00  0.00     0.235 C 
HETATM    3  O3  UNL     1      29.944   8.143  49.186  1.00  0.00    -0.272 OA
HETATM    4  H9  UNL     1      30.501   6.135  46.748  1.00  0.00     0.182 HD
ENDROOT
BRANCH   1   5
HETATM    5  S1  UNL     1      32.180   6.940  48.387  1.00  0.00     0.280 S 
HETATM    6  O1  UNL     1      32.152   6.361  49.776  1.00  0.00    -0.199 OA
HETATM    7  O2  UNL     1      32.541   8.394  48.514  1.00  0.00    -0.199 OA
BRANCH   5   8
HETATM    8  C2  UNL     1      33.382   6.071  47.468  1.00  0.00     0.145 C 
HETATM    9  C3  UNL     1      33.068   5.021  46.730  1.00  0.00     0.050 C 
BRANCH   8  10
HETATM   10  N1  UNL     1      34.787   6.349  47.382  1.00  0.00    -0.384 N 
HETATM   11  C1  UNL     1      35.499   6.524  48.643  1.00  0.00     0.147 C 
HETATM   12  H4  UNL     1      35.252   6.418  46.442  1.00  0.00     0.159 HD
ENDBRANCH   8  10
BRANCH   9  13
HETATM   13  C4  UNL     1      34.114   4.337  45.986  1.00  0.00    -0.055 A 
HETATM   14  C5  UNL     1      34.784   4.232  44.825  1.00  0.00    -0.015 A 
HETATM   15  C6  UNL     1      35.179   3.323  45.875  1.00  0.00     0.066 A 
ENDBRANCH   9  13
ENDBRANCH   5   8
ENDBRANCH   1   5
BRANCH   2  16
HETATM   16  C8  UNL     1      28.240   7.332  47.529  1.00  0.00     0.142 C 
BRANCH  16  17
HETATM   17  C9  UNL     1      27.413   6.289  48.192  1.00  0.00    -0.049 A 
HETATM   18  C10 UNL     1      26.086   6.662  48.417  1.00  0.00     0.009 A 
HETATM   19  C11 UNL     1      25.212   5.797  49.020  1.00  0.00     0.024 A 
HETATM   20  C12 UNL     1      25.636   4.539  49.415  1.00  0.00     0.034 A 
HETATM   21 CL1  UNL     1      24.525   3.433  50.185  1.00  0.00    -0.084 Cl
HETATM   22  C13 UNL     1      26.946   4.172  49.192  1.00  0.00     0.024 A 
HETATM   23  C14 UNL     1      27.831   5.035  48.587  1.00  0.00     0.009 A 
ENDBRANCH  16  17
ENDBRANCH   2  16
TORSDOF 6
ENDMDL
MODEL 6
REMARK VINA RESULT:      -6.3      3.091      4.128
REMARK  6 active torsions:
REMARK  status: ('A' for Active; 'I' for Inactive)
REMARK    1  A    between atoms: N1_2  and  C2_3 
REMARK    2  A    between atoms: C2_3  and  S1_8 
REMARK    3  A    between atoms: C3_4  and  C4_5 
REMARK    4  A    between atoms: S1_8  and  N2_11 
REMARK       I    between atoms: N2_11  and  C7_12 
REMARK    5  A    between atoms: C7_12  and  C8_14 
REMARK    6  A    between atoms: C8_14  and  C9_15 
ROOT
HETATM    1  N2  UNL     1      24.918   4.152  51.560  1.00  0.00    -0.249 N 
HETATM    2  C7  UNL     1      25.079   2.907  50.897  1.00  0.00     0.235 C 
HETATM    3  O3  UNL     1      24.818   2.995  49.665  1.00  0.00    -0.272 OA
HETATM    4  H9  UNL     1      25.098   4.252  52.602  1.00  0.00     0.182 HD
ENDROOT
BRANCH   1   5
HETATM    5  S1  UNL     1      24.411   5.471  50.554  1.00  0.00     0.280 S 
HETATM    6  O1  UNL     1      23.714   6.531  51.365  1.00  0.00    -0.199 OA
HETATM    7  O2  UNL     1      23.444   5.003  49.502  1.00  0.00    -0.199 OA
BRANCH   5   8
HETATM    8  C2  UNL     1      25.826   6.191  49.834  1.00  0.00     0.145 C 
HETATM    9  C3  UNL     1      26.456   5.625  48.819  1.00  0.00     0.050 C 
BRANCH   8  10
HETATM   10  N1  UNL     1      26.469   7.418  50.207  1.00  0.00    -0.384 N 
HETATM   11  C1  UNL     1      25.771   8.654  49.872  1.00  0.00     0.147 C 
HETATM   12  H4  UNL     1      27.399   7.395  50.697  1.00  0.00     0.159 HD
ENDBRANCH   8  10
BRANCH   9  13
HETATM   13  C4  UNL     1      27.632   6.273  48.260  1.00  0.00    -0.055 A 
HETATM   14  C5  UNL     1      28.974   6.318  48.209  1.00  0.00    -0.015 A 
HETATM   15  C6  UNL     1      28.271   7.285  47.399  1.00  0.00     0.066 A 
ENDBRANCH   9  13
ENDBRANCH   5   8
ENDBRANCH   1   5
BRANCH   2  16
HETATM   16  C8  UNL     1      25.515   1.755  51.735  1.00  0.00     0.142 C 
BRANCH  16  17
HETATM   17  C9  UNL     1      24.356   1.033  52.321  1.00  0.00    -0.049 A 
HETATM   18  C10 UNL     1      23.127   1.342  51.735  1.00  0.00     0.009 A 
HETATM   19  C11 UNL     1      21.975   0.748  52.177  1.00  0.00     0.024 A 
HETATM   20  C12 UNL     1      22.016  -0.169  53.216  1.00  0.00     0.034 A 
HETATM   21 CL1  UNL     1      20.550  -0.929  53.783  1.00  0.00    -0.084 Cl
HETATM   22  C13 UNL     1      23.231  -0.474  53.793  1.00  0.00     0.024 A 
HETATM   23  C14 UNL     1      24.393   0.119  53.355  1.00  0.00     0.009 A 
ENDBRANCH  16  17
ENDBRANCH   2  16
TORSDOF 6
ENDMDL
MODEL 7
REMARK VINA RESULT:      -6.3      2.491      3.211
REMARK  6 active torsions:
REMARK  status: ('A' for Active; 'I' for Inactive)
REMARK    1  A    between atoms: N1_2  and  C2_3 
REMARK    2  A    between atoms: C2_3  and  S1_8 
REMARK    3  A    between atoms: C3_4  and  C4_5 
REMARK    4  A    between atoms: S1_8  and  N2_11 
REMARK       I    between atoms: N2_11  and  C7_12 
REMARK    5  A    between atoms: C7_12  and  C8_14 
REMARK    6  A    between atoms: C8_14  and  C9_15 
ROOT
HETATM    1  N2  UNL     1      21.945   1.291  53.291  1.00  0.00    -0.249 N 
HETATM    2  C7  UNL     1      22.425   0.003  52.934  1.00  0.00     0.235 C 
HETATM    3  O3  UNL     1      21.944  -0.388  51.834  1.00  0.00    -0.272 OA
HETATM    4  H9  UNL     1      22.253   1.766  54.190  1.00  0.00     0.182 HD
ENDROOT
BRANCH   1   5
HETATM    5  S1  UNL     1      20.839   2.010  52.167  1.00  0.00     0.280 S 
HETATM    6  O1  UNL     1      20.127   3.184  52.786  1.00  0.00    -0.199 OA
HETATM    7  O2  UNL     1      19.788   1.023  51.740  1.00  0.00    -0.199 OA
BRANCH   5   8
HETATM    8  C2  UNL     1      21.746   2.596  50.797  1.00  0.00     0.145 C 
HETATM    9  C3  UNL     1      21.975   3.885  50.613  1.00  0.00     0.050 C 
BRANCH   8  10
HETATM   10  N1  UNL     1      22.338   1.822  49.744  1.00  0.00    -0.384 N 
HETATM   11  C1  UNL     1      21.424   1.215  48.783  1.00  0.00     0.147 C 
HETATM   12  H4  UNL     1      23.382   1.714  49.694  1.00  0.00     0.159 HD
ENDBRANCH   8  10
BRANCH   9  13
HETATM   13  C4  UNL     1      22.739   4.313  49.452  1.00  0.00    -0.055 A 
HETATM   14  C5  UNL     1      23.950   4.613  48.951  1.00  0.00    -0.015 A 
HETATM   15  C6  UNL     1      22.834   4.726  48.040  1.00  0.00     0.066 A 
ENDBRANCH   9  13
ENDBRANCH   5   8
ENDBRANCH   1   5
BRANCH   2  16
HETATM   16  C8  UNL     1      23.378  -0.641  53.881  1.00  0.00     0.142 C 
BRANCH  16  17
HETATM   17  C9  UNL     1      24.773  -0.181  53.655  1.00  0.00    -0.049 A 
HETATM   18  C10 UNL     1      25.609  -0.304  54.766  1.00  0.00     0.009 A 
HETATM   19  C11 UNL     1      26.921   0.083  54.698  1.00  0.00     0.024 A 
HETATM   20  C12 UNL     1      27.435   0.603  53.521  1.00  0.00     0.034 A 
HETATM   21 CL1  UNL     1      29.107   1.098  53.429  1.00  0.00    -0.084 Cl
HETATM   22  C13 UNL     1      26.609   0.724  52.424  1.00  0.00     0.024 A 
HETATM   23  C14 UNL     1      25.289   0.338  52.484  1.00  0.00     0.009 A 
ENDBRANCH  16  17
ENDBRANCH   2  16
TORSDOF 6
ENDMDL
MODEL 8
REMARK VINA RESULT:      -6.3      3.783      5.705
REMARK  6 active torsions:
REMARK  status: ('A' for Active; 'I' for Inactive)
REMARK    1  A    between atoms: N1_2  and  C2_3 
REMARK    2  A    between atoms: C2_3  and  S1_8 
REMARK    3  A    between atoms: C3_4  and  C4_5 
REMARK    4  A    between atoms: S1_8  and  N2_11 
REMARK       I    between atoms: N2_11  and  C7_12 
REMARK    5  A    between atoms: C7_12  and  C8_14 
REMARK    6  A    between atoms: C8_14  and  C9_15 
ROOT
HETATM    1  N2  UNL     1      22.764   1.034  53.426  1.00  0.00    -0.249 N 
HETATM    2  C7  UNL     1      23.310   0.952  52.118  1.00  0.00     0.235 C 
HETATM    3  O3  UNL     1      22.654   0.161  51.384  1.00  0.00    -0.272 OA
HETATM    4  H9  UNL     1      23.198   1.657  54.169  1.00  0.00     0.182 HD
ENDROOT
BRANCH   1   5
HETATM    5  S1  UNL     1      21.361   0.055  53.708  1.00  0.00     0.280 S 
HETATM    6  O1  UNL     1      20.820   0.275  55.096  1.00  0.00    -0.199 OA
HETATM    7  O2  UNL     1      21.691  -1.406  53.582  1.00  0.00    -0.199 OA
BRANCH   5   8
HETATM    8  C2  UNL     1      20.124   0.522  52.571  1.00  0.00     0.145 C 
HETATM    9  C3  UNL     1      19.053  -0.224  52.362  1.00  0.00     0.050 C 
BRANCH   8  10
HETATM   10  N1  UNL     1      20.087   1.700  51.753  1.00  0.00    -0.384 N 
HETATM   11  C1  UNL     1      20.126   2.982  52.448  1.00  0.00     0.147 C 
HETATM   12  H4  UNL     1      20.034   1.612  50.707  1.00  0.00     0.159 HD
ENDBRANCH   8  10
BRANCH   9  13
HETATM   13  C4  UNL     1      18.054   0.218  51.401  1.00  0.00    -0.055 A 
HETATM   14  C5  UNL     1      16.888   0.857  51.204  1.00  0.00    -0.015 A 
HETATM   15  C6  UNL     1      17.536   0.331  50.025  1.00  0.00     0.066 A 
ENDBRANCH   9  13
ENDBRANCH   5   8
ENDBRANCH   1   5
BRANCH   2  16
HETATM   16  C8  UNL     1      24.516   1.783  51.844  1.00  0.00     0.142 C 
BRANCH  16  17
HETATM   17  C9  UNL     1      25.761   1.113  52.304  1.00  0.00    -0.049 A 
HETATM   18  C10 UNL     1      26.786   1.987  52.670  1.00  0.00     0.009 A 
HETATM   19  C11 UNL     1      27.988   1.505  53.113  1.00  0.00     0.024 A 
HETATM   20  C12 UNL     1      28.203   0.138  53.202  1.00  0.00     0.034 A 
HETATM   21 CL1  UNL     1      29.734  -0.481  53.766  1.00  0.00    -0.084 Cl
HETATM   22  C13 UNL     1      27.190  -0.724  52.840  1.00  0.00     0.024 A 
HETATM   23  C14 UNL     1      25.978  -0.247  52.393  1.00  0.00     0.009 A 
ENDBRANCH  16  17
ENDBRANCH   2  16
TORSDOF 6
ENDMDL
MODEL 9
REMARK VINA RESULT:      -6.2      3.872      7.247
REMARK  6 active torsions:
REMARK  status: ('A' for Active; 'I' for Inactive)
REMARK    1  A    between atoms: N1_2  and  C2_3 
REMARK    2  A    between atoms: C2_3  and  S1_8 
REMARK    3  A    between atoms: C3_4  and  C4_5 
REMARK    4  A    between atoms: S1_8  and  N2_11 
REMARK       I    between atoms: N2_11  and  C7_12 
REMARK    5  A    between atoms: C7_12  and  C8_14 
REMARK    6  A    between atoms: C8_14  and  C9_15 
ROOT
HETATM    1  N2  UNL     1      25.162   2.546  50.918  1.00  0.00    -0.249 N 
HETATM    2  C7  UNL     1      26.279   3.285  50.448  1.00  0.00     0.235 C 
HETATM    3  O3  UNL     1      27.331   3.004  51.088  1.00  0.00    -0.272 OA
HETATM    4  H9  UNL     1      24.199   2.664  50.486  1.00  0.00     0.182 HD
ENDROOT
BRANCH   1   5
HETATM    5  S1  UNL     1      25.489   1.457  52.228  1.00  0.00     0.280 S 
HETATM    6  O1  UNL     1      26.055   2.194  53.412  1.00  0.00    -0.199 OA
HETATM    7  O2  UNL     1      26.495   0.416  51.823  1.00  0.00    -0.199 OA
BRANCH   5   8
HETATM    8  C2  UNL     1      23.986   0.722  52.722  1.00  0.00     0.145 C 
HETATM    9  C3  UNL     1      23.924  -0.114  53.743  1.00  0.00     0.050 C 
BRANCH   8  10
HETATM   10  N1  UNL     1      22.689   0.905  52.137  1.00  0.00    -0.384 N 
HETATM   11  C1  UNL     1      22.051   2.199  52.347  1.00  0.00     0.147 C 
HETATM   12  H4  UNL     1      22.245   0.125  51.590  1.00  0.00     0.159 HD
ENDBRANCH   8  10
BRANCH   9  13
HETATM   13  C4  UNL     1      22.641  -0.696  54.109  1.00  0.00    -0.055 A 
HETATM   14  C5  UNL     1      21.526  -0.583  54.851  1.00  0.00    -0.015 A 
HETATM   15  C6  UNL     1      21.614  -1.747  54.001  1.00  0.00     0.066 A 
ENDBRANCH   9  13
ENDBRANCH   5   8
ENDBRANCH   1   5
BRANCH   2  16
HETATM   16  C8  UNL     1      26.031   4.229  49.322  1.00  0.00     0.142 C 
BRANCH  16  17
HETATM   17  C9  UNL     1      24.938   5.186  49.639  1.00  0.00    -0.049 A 
HETATM   18  C10 UNL     1      23.798   5.044  48.846  1.00  0.00     0.009 A 
HETATM   19  C11 UNL     1      22.715   5.860  49.030  1.00  0.00     0.024 A 
HETATM   20  C12 UNL     1      22.738   6.842  50.008  1.00  0.00     0.034 A 
HETATM   21 CL1  UNL     1      21.359   7.886  50.246  1.00  0.00    -0.084 Cl
HETATM   22  C13 UNL     1      23.864   6.982  50.790  1.00  0.00     0.024 A 
HETATM   23  C14 UNL     1      24.958   6.165  50.612  1.00  0.00     0.009 A 
ENDBRANCH  16  17
ENDBRANCH   2  16
TORSDOF 6
ENDMDL
