MODEL 1
REMARK VINA RESULT:      -7.8      0.000      0.000
REMARK  6 active torsions:
REMARK  status: ('A' for Active; 'I' for Inactive)
REMARK    1  A    between atoms: O1_2  and  C2_3 
REMARK    2  A    between atoms: C2_3  and  C3_4 
REMARK    3  A    between atoms: C3_4  and  C4_5 
REMARK    4  A    between atoms: C4_5  and  N1_6 
REMARK    5  A    between atoms: N1_6  and  C5_7 
REMARK    6  A    between atoms: C16_19  and  C17_20 
ROOT
HETATM    1  C5  UNL     1      26.405   2.408  53.118  1.00  0.00     0.003 C 
HETATM    2  C6  UNL     1      26.861   2.373  51.893  1.00  0.00    -0.002 C 
HETATM    3  C7  UNL     1      25.703   2.273  50.966  1.00  0.00     0.032 C 
HETATM    4  C8  UNL     1      24.847   1.129  51.471  1.00  0.00     0.037 C 
HETATM    5  C9  UNL     1      24.065   1.646  52.661  1.00  0.00     0.061 A 
HETATM    6  C10 UNL     1      23.020   2.623  52.128  1.00  0.00     0.054 A 
HETATM    7  C11 UNL     1      21.620   2.302  52.383  1.00  0.00     0.151 A 
HETATM    8  C12 UNL     1      20.685   1.490  52.919  1.00  0.00     0.042 A 
HETATM    9 CL1  UNL     1      19.641   2.722  52.206  1.00  0.00    -0.205 Cl
HETATM   10  C13 UNL     1      20.216   0.314  53.675  1.00  0.00    -0.010 A 
HETATM   11  C14 UNL     1      21.169  -0.463  54.153  1.00  0.00    -0.023 A 
HETATM   12  C15 UNL     1      22.392  -1.106  54.542  1.00  0.00     0.087 A 
HETATM   13  C16 UNL     1      23.613  -0.360  54.047  1.00  0.00     0.050 A 
HETATM   14  N3  UNL     1      23.390   0.635  53.351  1.00  0.00    -0.281 NA
HETATM   15  C18 UNL     1      25.022   2.361  53.593  1.00  0.00     0.089 C 
ENDROOT
BRANCH  13  16
HETATM   16  C17 UNL     1      24.856  -1.024  54.529  1.00  0.00     0.134 C 
HETATM   17  N2  UNL     1      25.172  -1.221  55.757  1.00  0.00    -0.310 NA
HETATM   18  H24 UNL     1      26.060  -1.692  55.998  1.00  0.00     0.186 HD
ENDBRANCH  13  16
BRANCH   1  19
HETATM   19  N1  UNL     1      27.462   2.505  54.075  1.00  0.00    -0.393 N 
HETATM   20  H10 UNL     1      27.095   2.624  55.059  1.00  0.00     0.159 HD
BRANCH  19  21
HETATM   21  C4  UNL     1      28.872   2.440  53.687  1.00  0.00     0.121 C 
BRANCH  21  22
HETATM   22  C3  UNL     1      29.468   1.075  53.883  1.00  0.00     0.046 C 
BRANCH  22  23
HETATM   23  C2  UNL     1      28.682   0.279  54.925  1.00  0.00     0.168 C 
BRANCH  23  24
HETATM   24  O1  UNL     1      28.067  -0.770  54.272  1.00  0.00    -0.396 OA
HETATM   25  C1  UNL     1      28.905  -1.415  53.358  1.00  0.00     0.201 C 
ENDBRANCH  23  24
ENDBRANCH  22  23
ENDBRANCH  21  22
ENDBRANCH  19  21
ENDBRANCH   1  19
TORSDOF 6
ENDMDL
MODEL 2
REMARK VINA RESULT:      -7.2      3.393      4.880
REMARK  6 active torsions:
REMARK  status: ('A' for Active; 'I' for Inactive)
REMARK    1  A    between atoms: O1_2  and  C2_3 
REMARK    2  A    between atoms: C2_3  and  C3_4 
REMARK    3  A    between atoms: C3_4  and  C4_5 
REMARK    4  A    between atoms: C4_5  and  N1_6 
REMARK    5  A    between atoms: N1_6  and  C5_7 
REMARK    6  A    between atoms: C16_19  and  C17_20 
ROOT
HETATM    1  C5  UNL     1      24.149   4.833  50.542  1.00  0.00     0.003 C 
HETATM    2  C6  UNL     1      23.543   4.807  49.383  1.00  0.00    -0.002 C 
HETATM    3  C7  UNL     1      22.536   3.713  49.406  1.00  0.00     0.032 C 
HETATM    4  C8  UNL     1      23.260   2.474  49.893  1.00  0.00     0.037 C 
HETATM    5  C9  UNL     1      23.406   2.601  51.396  1.00  0.00     0.061 A 
HETATM    6  C10 UNL     1      22.016   2.424  52.002  1.00  0.00     0.054 A 
HETATM    7  C11 UNL     1      21.834   1.316  52.933  1.00  0.00     0.151 A 
HETATM    8  C12 UNL     1      22.335   0.259  53.605  1.00  0.00     0.042 A 
HETATM    9 CL1  UNL     1      20.664   0.212  54.174  1.00  0.00    -0.205 Cl
HETATM   10  C13 UNL     1      23.398  -0.675  54.019  1.00  0.00    -0.010 A 
HETATM   11  C14 UNL     1      24.587  -0.438  53.500  1.00  0.00    -0.023 A 
HETATM   12  C15 UNL     1      25.740   0.052  52.798  1.00  0.00     0.087 A 
HETATM   13  C16 UNL     1      25.422   1.269  51.955  1.00  0.00     0.050 A 
HETATM   14  N3  UNL     1      24.239   1.623  51.947  1.00  0.00    -0.281 NA
HETATM   15  C18 UNL     1      23.944   3.980  51.713  1.00  0.00     0.089 C 
ENDROOT
BRANCH  13  16
HETATM   16  C17 UNL     1      26.656   1.782  51.299  1.00  0.00     0.134 C 
HETATM   17  N2  UNL     1      27.311   2.829  51.650  1.00  0.00    -0.310 NA
HETATM   18  H24 UNL     1      28.161   3.109  51.133  1.00  0.00     0.186 HD
ENDBRANCH  13  16
BRANCH   1  19
HETATM   19  N1  UNL     1      25.138   5.863  50.601  1.00  0.00    -0.393 N 
HETATM   20  H10 UNL     1      25.243   6.255  51.576  1.00  0.00     0.159 HD
BRANCH  19  21
HETATM   21  C4  UNL     1      25.890   6.288  49.419  1.00  0.00     0.121 C 
BRANCH  21  22
HETATM   22  C3  UNL     1      26.877   5.255  48.953  1.00  0.00     0.046 C 
BRANCH  22  23
HETATM   23  C2  UNL     1      28.088   5.913  48.292  1.00  0.00     0.168 C 
BRANCH  23  24
HETATM   24  O1  UNL     1      29.155   5.048  48.421  1.00  0.00    -0.396 OA
HETATM   25  C1  UNL     1      30.366   5.602  47.998  1.00  0.00     0.201 C 
ENDBRANCH  23  24
ENDBRANCH  22  23
ENDBRANCH  21  22
ENDBRANCH  19  21
ENDBRANCH   1  19
TORSDOF 6
ENDMDL
MODEL 3
REMARK VINA RESULT:      -7.0      3.602      5.641
REMARK  6 active torsions:
REMARK  status: ('A' for Active; 'I' for Inactive)
REMARK    1  A    between atoms: O1_2  and  C2_3 
REMARK    2  A    between atoms: C2_3  and  C3_4 
REMARK    3  A    between atoms: C3_4  and  C4_5 
REMARK    4  A    between atoms: C4_5  and  N1_6 
REMARK    5  A    between atoms: N1_6  and  C5_7 
REMARK    6  A    between atoms: C16_19  and  C17_20 
ROOT
HETATM    1  C5  UNL     1      23.903   4.267  51.663  1.00  0.00     0.003 C 
HETATM    2  C6  UNL     1      23.665   4.051  50.396  1.00  0.00    -0.002 C 
HETATM    3  C7  UNL     1      23.188   2.652  50.241  1.00  0.00     0.032 C 
HETATM    4  C8  UNL     1      24.187   1.775  50.968  1.00  0.00     0.037 C 
HETATM    5  C9  UNL     1      23.892   1.890  52.449  1.00  0.00     0.061 A 
HETATM    6  C10 UNL     1      22.574   1.163  52.706  1.00  0.00     0.054 A 
HETATM    7  C11 UNL     1      22.608   0.036  53.632  1.00  0.00     0.151 A 
HETATM    8  C12 UNL     1      23.293  -0.767  54.472  1.00  0.00     0.042 A 
HETATM    9 CL1  UNL     1      21.685  -1.483  54.615  1.00  0.00    -0.205 Cl
HETATM   10  C13 UNL     1      24.494  -1.228  55.192  1.00  0.00    -0.010 A 
HETATM   11  C14 UNL     1      25.588  -0.527  54.966  1.00  0.00    -0.023 A 
HETATM   12  C15 UNL     1      26.598   0.399  54.538  1.00  0.00     0.087 A 
HETATM   13  C16 UNL     1      26.056   1.428  53.568  1.00  0.00     0.050 A 
HETATM   14  N3  UNL     1      24.871   1.293  53.248  1.00  0.00    -0.281 NA
HETATM   15  C18 UNL     1      23.757   3.357  52.801  1.00  0.00     0.089 C 
ENDROOT
BRANCH  13  16
HETATM   16  C17 UNL     1      27.118   2.407  53.204  1.00  0.00     0.134 C 
HETATM   17  N2  UNL     1      27.594   2.591  52.027  1.00  0.00    -0.310 NA
HETATM   18  H24 UNL     1      28.334   3.296  51.869  1.00  0.00     0.186 HD
ENDBRANCH  13  16
BRANCH   1  19
HETATM   19  N1  UNL     1      24.368   5.597  51.898  1.00  0.00    -0.393 N 
HETATM   20  H10 UNL     1      24.453   5.811  52.929  1.00  0.00     0.159 HD
BRANCH  19  21
HETATM   21  C4  UNL     1      24.677   6.518  50.802  1.00  0.00     0.121 C 
BRANCH  21  22
HETATM   22  C3  UNL     1      23.982   7.843  50.941  1.00  0.00     0.046 C 
BRANCH  22  23
HETATM   23  C2  UNL     1      22.624   7.825  50.237  1.00  0.00     0.168 C 
BRANCH  23  24
HETATM   24  O1  UNL     1      21.771   7.054  50.999  1.00  0.00    -0.396 OA
HETATM   25  C1  UNL     1      20.848   6.335  50.234  1.00  0.00     0.201 C 
ENDBRANCH  23  24
ENDBRANCH  22  23
ENDBRANCH  21  22
ENDBRANCH  19  21
ENDBRANCH   1  19
TORSDOF 6
ENDMDL
MODEL 4
REMARK VINA RESULT:      -7.0      3.592      5.539
REMARK  6 active torsions:
REMARK  status: ('A' for Active; 'I' for Inactive)
REMARK    1  A    between atoms: O1_2  and  C2_3 
REMARK    2  A    between atoms: C2_3  and  C3_4 
REMARK    3  A    between atoms: C3_4  and  C4_5 
REMARK    4  A    between atoms: C4_5  and  N1_6 
REMARK    5  A    between atoms: N1_6  and  C5_7 
REMARK    6  A    between atoms: C16_19  and  C17_20 
ROOT
HETATM    1  C5  UNL     1      23.462   4.989  51.719  1.00  0.00     0.003 C 
HETATM    2  C6  UNL     1      22.611   5.035  50.727  1.00  0.00    -0.002 C 
HETATM    3  C7  UNL     1      21.974   3.698  50.594  1.00  0.00     0.032 C 
HETATM    4  C8  UNL     1      23.102   2.687  50.557  1.00  0.00     0.037 C 
HETATM    5  C9  UNL     1      23.586   2.503  51.980  1.00  0.00     0.061 A 
HETATM    6  C10 UNL     1      22.496   1.745  52.735  1.00  0.00     0.054 A 
HETATM    7  C11 UNL     1      22.861   0.455  53.308  1.00  0.00     0.151 A 
HETATM    8  C12 UNL     1      23.780  -0.506  53.538  1.00  0.00     0.042 A 
HETATM    9 CL1  UNL     1      22.384  -1.228  54.343  1.00  0.00    -0.205 Cl
HETATM   10  C13 UNL     1      25.123  -1.109  53.465  1.00  0.00    -0.010 A 
HETATM   11  C14 UNL     1      26.033  -0.383  52.846  1.00  0.00    -0.023 A 
HETATM   12  C15 UNL     1      26.794   0.606  52.136  1.00  0.00     0.087 A 
HETATM   13  C16 UNL     1      25.958   1.813  51.763  1.00  0.00     0.050 A 
HETATM   14  N3  UNL     1      24.762   1.751  52.063  1.00  0.00    -0.281 NA
HETATM   15  C18 UNL     1      23.798   3.868  52.599  1.00  0.00     0.089 C 
ENDROOT
BRANCH  13  16
HETATM   16  C17 UNL     1      26.801   2.839  51.089  1.00  0.00     0.134 C 
HETATM   17  N2  UNL     1      26.710   3.194  49.860  1.00  0.00    -0.310 NA
HETATM   18  H24 UNL     1      27.341   3.918  49.478  1.00  0.00     0.186 HD
ENDBRANCH  13  16
BRANCH   1  19
HETATM   19  N1  UNL     1      24.120   6.242  51.913  1.00  0.00    -0.393 N 
HETATM   20  H10 UNL     1      24.468   6.357  52.904  1.00  0.00     0.159 HD
BRANCH  19  21
HETATM   21  C4  UNL     1      24.269   7.219  50.832  1.00  0.00     0.121 C 
BRANCH  21  22
HETATM   22  C3  UNL     1      25.667   7.270  50.282  1.00  0.00     0.046 C 
BRANCH  22  23
HETATM   23  C2  UNL     1      25.734   6.625  48.898  1.00  0.00     0.168 C 
BRANCH  23  24
HETATM   24  O1  UNL     1      26.873   5.848  48.855  1.00  0.00    -0.396 OA
HETATM   25  C1  UNL     1      27.939   6.470  48.199  1.00  0.00     0.201 C 
ENDBRANCH  23  24
ENDBRANCH  22  23
ENDBRANCH  21  22
ENDBRANCH  19  21
ENDBRANCH   1  19
TORSDOF 6
ENDMDL
MODEL 5
REMARK VINA RESULT:      -7.0      3.001      4.826
REMARK  6 active torsions:
REMARK  status: ('A' for Active; 'I' for Inactive)
REMARK    1  A    between atoms: O1_2  and  C2_3 
REMARK    2  A    between atoms: C2_3  and  C3_4 
REMARK    3  A    between atoms: C3_4  and  C4_5 
REMARK    4  A    between atoms: C4_5  and  N1_6 
REMARK    5  A    between atoms: N1_6  and  C5_7 
REMARK    6  A    between atoms: C16_19  and  C17_20 
ROOT
HETATM    1  C5  UNL     1      26.317   2.171  51.442  1.00  0.00     0.003 C 
HETATM    2  C6  UNL     1      27.165   2.428  52.402  1.00  0.00    -0.002 C 
HETATM    3  C7  UNL     1      26.637   1.845  53.663  1.00  0.00     0.032 C 
HETATM    4  C8  UNL     1      25.205   2.325  53.791  1.00  0.00     0.037 C 
HETATM    5  C9  UNL     1      24.365   1.485  52.851  1.00  0.00     0.061 A 
HETATM    6  C10 UNL     1      24.290   0.080  53.444  1.00  0.00     0.054 A 
HETATM    7  C11 UNL     1      22.964  -0.430  53.775  1.00  0.00     0.151 A 
HETATM    8  C12 UNL     1      21.626  -0.268  53.818  1.00  0.00     0.042 A 
HETATM    9 CL1  UNL     1      21.754  -1.889  54.508  1.00  0.00    -0.205 Cl
HETATM   10  C13 UNL     1      20.363   0.460  53.594  1.00  0.00    -0.010 A 
HETATM   11  C14 UNL     1      20.492   1.646  53.032  1.00  0.00    -0.023 A 
HETATM   12  C15 UNL     1      20.929   2.871  52.424  1.00  0.00     0.087 A 
HETATM   13  C16 UNL     1      22.434   2.925  52.263  1.00  0.00     0.050 A 
HETATM   14  N3  UNL     1      23.057   1.961  52.716  1.00  0.00    -0.281 NA
HETATM   15  C18 UNL     1      25.046   1.446  51.499  1.00  0.00     0.089 C 
ENDROOT
BRANCH  13  16
HETATM   16  C17 UNL     1      22.836   4.180  51.569  1.00  0.00     0.134 C 
HETATM   17  N2  UNL     1      22.334   4.624  50.475  1.00  0.00    -0.310 NA
HETATM   18  H24 UNL     1      22.678   5.509  50.065  1.00  0.00     0.186 HD
ENDBRANCH  13  16
BRANCH   1  19
HETATM   19  N1  UNL     1      26.754   2.700  50.189  1.00  0.00    -0.393 N 
HETATM   20  H10 UNL     1      27.746   2.418  49.964  1.00  0.00     0.159 HD
BRANCH  19  21
HETATM   21  C4  UNL     1      25.887   3.532  49.351  1.00  0.00     0.121 C 
BRANCH  21  22
HETATM   22  C3  UNL     1      26.055   5.002  49.618  1.00  0.00     0.046 C 
BRANCH  22  23
HETATM   23  C2  UNL     1      27.043   5.628  48.634  1.00  0.00     0.168 C 
BRANCH  23  24
HETATM   24  O1  UNL     1      28.159   4.819  48.592  1.00  0.00    -0.396 OA
HETATM   25  C1  UNL     1      29.318   5.501  48.212  1.00  0.00     0.201 C 
ENDBRANCH  23  24
ENDBRANCH  22  23
ENDBRANCH  21  22
ENDBRANCH  19  21
ENDBRANCH   1  19
TORSDOF 6
ENDMDL
MODEL 6
REMARK VINA RESULT:      -6.7      2.148      4.366
REMARK  6 active torsions:
REMARK  status: ('A' for Active; 'I' for Inactive)
REMARK    1  A    between atoms: O1_2  and  C2_3 
REMARK    2  A    between atoms: C2_3  and  C3_4 
REMARK    3  A    between atoms: C3_4  and  C4_5 
REMARK    4  A    between atoms: C4_5  and  N1_6 
REMARK    5  A    between atoms: N1_6  and  C5_7 
REMARK    6  A    between atoms: C16_19  and  C17_20 
ROOT
HETATM    1  C5  UNL     1      23.250  -0.508  53.376  1.00  0.00     0.003 C 
HETATM    2  C6  UNL     1      22.825  -0.906  54.546  1.00  0.00    -0.002 C 
HETATM    3  C7  UNL     1      21.350  -0.725  54.595  1.00  0.00     0.032 C 
HETATM    4  C8  UNL     1      21.078   0.698  54.153  1.00  0.00     0.037 C 
HETATM    5  C9  UNL     1      21.201   0.731  52.644  1.00  0.00     0.061 A 
HETATM    6  C10 UNL     1      20.001  -0.022  52.074  1.00  0.00     0.054 A 
HETATM    7  C11 UNL     1      19.103   0.726  51.201  1.00  0.00     0.151 A 
HETATM    8  C12 UNL     1      18.770   1.871  50.570  1.00  0.00     0.042 A 
HETATM    9 CL1  UNL     1      17.441   0.837  50.038  1.00  0.00    -0.205 Cl
HETATM   10  C13 UNL     1      18.957   3.280  50.179  1.00  0.00    -0.010 A 
HETATM   11  C14 UNL     1      20.040   3.858  50.662  1.00  0.00    -0.023 A 
HETATM   12  C15 UNL     1      21.266   4.216  51.317  1.00  0.00     0.087 A 
HETATM   13  C16 UNL     1      21.850   3.063  52.107  1.00  0.00     0.050 A 
HETATM   14  N3  UNL     1      21.178   2.028  52.123  1.00  0.00    -0.281 NA
HETATM   15  C18 UNL     1      22.488   0.036  52.250  1.00  0.00     0.089 C 
ENDROOT
BRANCH  13  16
HETATM   16  C17 UNL     1      23.152   3.457  52.713  1.00  0.00     0.134 C 
HETATM   17  N2  UNL     1      23.658   4.637  52.700  1.00  0.00    -0.310 NA
HETATM   18  H24 UNL     1      24.571   4.817  53.148  1.00  0.00     0.186 HD
ENDBRANCH  13  16
BRANCH   1  19
HETATM   19  N1  UNL     1      24.666  -0.650  53.248  1.00  0.00    -0.393 N 
HETATM   20  H10 UNL     1      25.006  -1.578  53.620  1.00  0.00     0.159 HD
BRANCH  19  21
HETATM   21  C4  UNL     1      25.503   0.398  52.661  1.00  0.00     0.121 C 
BRANCH  21  22
HETATM   22  C3  UNL     1      26.797  -0.130  52.109  1.00  0.00     0.046 C 
BRANCH  22  23
HETATM   23  C2  UNL     1      27.343  -1.261  52.981  1.00  0.00     0.168 C 
BRANCH  23  24
HETATM   24  O1  UNL     1      27.506  -0.762  54.257  1.00  0.00    -0.396 OA
HETATM   25  C1  UNL     1      28.739  -0.132  54.447  1.00  0.00     0.201 C 
ENDBRANCH  23  24
ENDBRANCH  22  23
ENDBRANCH  21  22
ENDBRANCH  19  21
ENDBRANCH   1  19
TORSDOF 6
ENDMDL
MODEL 7
REMARK VINA RESULT:      -6.7      2.230      4.183
REMARK  6 active torsions:
REMARK  status: ('A' for Active; 'I' for Inactive)
REMARK    1  A    between atoms: O1_2  and  C2_3 
REMARK    2  A    between atoms: C2_3  and  C3_4 
REMARK    3  A    between atoms: C3_4  and  C4_5 
REMARK    4  A    between atoms: C4_5  and  N1_6 
REMARK    5  A    between atoms: N1_6  and  C5_7 
REMARK    6  A    between atoms: C16_19  and  C17_20 
ROOT
HETATM    1  C5  UNL     1      23.982  -0.131  53.167  1.00  0.00     0.003 C 
HETATM    2  C6  UNL     1      23.100  -0.719  53.933  1.00  0.00    -0.002 C 
HETATM    3  C7  UNL     1      21.746  -0.439  53.388  1.00  0.00     0.032 C 
HETATM    4  C8  UNL     1      21.667   1.060  53.182  1.00  0.00     0.037 C 
HETATM    5  C9  UNL     1      22.429   1.379  51.913  1.00  0.00     0.061 A 
HETATM    6  C10 UNL     1      21.604   0.847  50.743  1.00  0.00     0.054 A 
HETATM    7  C11 UNL     1      21.158   1.819  49.750  1.00  0.00     0.151 A 
HETATM    8  C12 UNL     1      21.111   3.087  49.294  1.00  0.00     0.042 A 
HETATM    9 CL1  UNL     1      20.158   2.283  48.043  1.00  0.00    -0.205 Cl
HETATM   10  C13 UNL     1      21.424   4.528  49.326  1.00  0.00    -0.010 A 
HETATM   11  C14 UNL     1      22.183   4.915  50.332  1.00  0.00    -0.023 A 
HETATM   12  C15 UNL     1      23.001   5.042  51.505  1.00  0.00     0.087 A 
HETATM   13  C16 UNL     1      23.206   3.716  52.206  1.00  0.00     0.050 A 
HETATM   14  N3  UNL     1      22.611   2.751  51.717  1.00  0.00    -0.281 NA
HETATM   15  C18 UNL     1      23.771   0.680  51.966  1.00  0.00     0.089 C 
ENDROOT
BRANCH  13  16
HETATM   16  C17 UNL     1      24.113   3.883  53.376  1.00  0.00     0.134 C 
HETATM   17  N2  UNL     1      25.135   3.154  53.641  1.00  0.00    -0.310 NA
HETATM   18  H24 UNL     1      25.709   3.345  54.479  1.00  0.00     0.186 HD
ENDBRANCH  13  16
BRANCH   1  19
HETATM   19  N1  UNL     1      25.317  -0.352  53.625  1.00  0.00    -0.393 N 
HETATM   20  H10 UNL     1      25.354  -0.531  54.665  1.00  0.00     0.159 HD
BRANCH  19  21
HETATM   21  C4  UNL     1      26.465  -0.326  52.717  1.00  0.00     0.121 C 
BRANCH  21  22
HETATM   22  C3  UNL     1      27.768  -0.591  53.418  1.00  0.00     0.046 C 
BRANCH  22  23
HETATM   23  C2  UNL     1      27.951   0.352  54.608  1.00  0.00     0.168 C 
BRANCH  23  24
HETATM   24  O1  UNL     1      27.601   1.620  54.193  1.00  0.00    -0.396 OA
HETATM   25  C1  UNL     1      28.685   2.360  53.713  1.00  0.00     0.201 C 
ENDBRANCH  23  24
ENDBRANCH  22  23
ENDBRANCH  21  22
ENDBRANCH  19  21
ENDBRANCH   1  19
TORSDOF 6
ENDMDL
MODEL 8
REMARK VINA RESULT:      -6.5      3.063      5.093
REMARK  6 active torsions:
REMARK  status: ('A' for Active; 'I' for Inactive)
REMARK    1  A    between atoms: O1_2  and  C2_3 
REMARK    2  A    between atoms: C2_3  and  C3_4 
REMARK    3  A    between atoms: C3_4  and  C4_5 
REMARK    4  A    between atoms: C4_5  and  N1_6 
REMARK    5  A    between atoms: N1_6  and  C5_7 
REMARK    6  A    between atoms: C16_19  and  C17_20 
ROOT
HETATM    1  C5  UNL     1      22.921   0.505  52.437  1.00  0.00     0.003 C 
HETATM    2  C6  UNL     1      21.723   0.062  52.715  1.00  0.00    -0.002 C 
HETATM    3  C7  UNL     1      20.798   0.505  51.640  1.00  0.00     0.032 C 
HETATM    4  C8  UNL     1      21.016   1.995  51.473  1.00  0.00     0.037 C 
HETATM    5  C9  UNL     1      22.294   2.176  50.681  1.00  0.00     0.061 A 
HETATM    6  C10 UNL     1      22.008   1.728  49.250  1.00  0.00     0.054 A 
HETATM    7  C11 UNL     1      22.178   2.723  48.197  1.00  0.00     0.151 A 
HETATM    8  C12 UNL     1      22.505   3.974  47.811  1.00  0.00     0.042 A 
HETATM    9 CL1  UNL     1      22.104   3.271  46.242  1.00  0.00    -0.205 Cl
HETATM   10  C13 UNL     1      22.959   5.360  48.029  1.00  0.00    -0.010 A 
HETATM   11  C14 UNL     1      23.240   5.669  49.279  1.00  0.00    -0.023 A 
HETATM   12  C15 UNL     1      23.466   5.717  50.696  1.00  0.00     0.087 A 
HETATM   13  C16 UNL     1      23.164   4.394  51.369  1.00  0.00     0.050 A 
HETATM   14  N3  UNL     1      22.724   3.505  50.634  1.00  0.00    -0.281 NA
HETATM   15  C18 UNL     1      23.370   1.304  51.295  1.00  0.00     0.089 C 
ENDROOT
BRANCH  13  16
HETATM   16  C17 UNL     1      23.476   4.469  52.824  1.00  0.00     0.134 C 
HETATM   17  N2  UNL     1      23.856   5.520  53.455  1.00  0.00    -0.310 NA
HETATM   18  H24 UNL     1      24.050   5.477  54.469  1.00  0.00     0.186 HD
ENDBRANCH  13  16
BRANCH   1  19
HETATM   19  N1  UNL     1      23.875   0.119  53.428  1.00  0.00    -0.393 N 
HETATM   20  H10 UNL     1      23.439  -0.469  54.189  1.00  0.00     0.159 HD
BRANCH  19  21
HETATM   21  C4  UNL     1      25.281   0.519  53.351  1.00  0.00     0.121 C 
BRANCH  21  22
HETATM   22  C3  UNL     1      26.171  -0.578  52.837  1.00  0.00     0.046 C 
BRANCH  22  23
HETATM   23  C2  UNL     1      27.645  -0.191  52.962  1.00  0.00     0.168 C 
BRANCH  23  24
HETATM   24  O1  UNL     1      28.235  -1.073  53.844  1.00  0.00    -0.396 OA
HETATM   25  C1  UNL     1      29.609  -1.222  53.636  1.00  0.00     0.201 C 
ENDBRANCH  23  24
ENDBRANCH  22  23
ENDBRANCH  21  22
ENDBRANCH  19  21
ENDBRANCH   1  19
TORSDOF 6
ENDMDL
MODEL 9
REMARK VINA RESULT:      -6.4      3.974      5.741
REMARK  6 active torsions:
REMARK  status: ('A' for Active; 'I' for Inactive)
REMARK    1  A    between atoms: O1_2  and  C2_3 
REMARK    2  A    between atoms: C2_3  and  C3_4 
REMARK    3  A    between atoms: C3_4  and  C4_5 
REMARK    4  A    between atoms: C4_5  and  N1_6 
REMARK    5  A    between atoms: N1_6  and  C5_7 
REMARK    6  A    between atoms: C16_19  and  C17_20 
ROOT
HETATM    1  C5  UNL     1      24.999   2.802  51.551  1.00  0.00     0.003 C 
HETATM    2  C6  UNL     1      24.099   2.309  52.360  1.00  0.00    -0.002 C 
HETATM    3  C7  UNL     1      22.786   2.318  51.662  1.00  0.00     0.032 C 
HETATM    4  C8  UNL     1      22.602   3.719  51.113  1.00  0.00     0.037 C 
HETATM    5  C9  UNL     1      23.457   3.828  49.867  1.00  0.00     0.061 A 
HETATM    6  C10 UNL     1      22.800   2.968  48.790  1.00  0.00     0.054 A 
HETATM    7  C11 UNL     1      22.375   3.645  47.569  1.00  0.00     0.151 A 
HETATM    8  C12 UNL     1      22.266   4.769  46.832  1.00  0.00     0.042 A 
HETATM    9 CL1  UNL     1      21.514   3.613  45.729  1.00  0.00    -0.205 Cl
HETATM   10  C13 UNL     1      22.453   6.206  46.558  1.00  0.00    -0.010 A 
HETATM   11  C14 UNL     1      23.072   6.883  47.505  1.00  0.00    -0.023 A 
HETATM   12  C15 UNL     1      23.756   7.350  48.677  1.00  0.00     0.087 A 
HETATM   13  C16 UNL     1      24.002   6.240  49.677  1.00  0.00     0.050 A 
HETATM   14  N3  UNL     1      23.541   5.134  49.377  1.00  0.00    -0.281 NA
HETATM   15  C18 UNL     1      24.841   3.302  50.184  1.00  0.00     0.089 C 
ENDROOT
BRANCH  13  16
HETATM   16  C17 UNL     1      24.771   6.754  50.844  1.00  0.00     0.134 C 
HETATM   17  N2  UNL     1      24.415   6.665  52.074  1.00  0.00    -0.310 NA
HETATM   18  H24 UNL     1      25.016   7.053  52.820  1.00  0.00     0.186 HD
ENDBRANCH  13  16
BRANCH   1  19
HETATM   19  N1  UNL     1      26.296   2.828  52.150  1.00  0.00    -0.393 N 
HETATM   20  H10 UNL     1      26.560   3.795  52.481  1.00  0.00     0.159 HD
BRANCH  19  21
HETATM   21  C4  UNL     1      27.123   1.625  52.267  1.00  0.00     0.121 C 
BRANCH  21  22
HETATM   22  C3  UNL     1      27.972   1.620  53.507  1.00  0.00     0.046 C 
BRANCH  22  23
HETATM   23  C2  UNL     1      27.515   0.532  54.480  1.00  0.00     0.168 C 
BRANCH  23  24
HETATM   24  O1  UNL     1      28.097  -0.654  54.083  1.00  0.00    -0.396 OA
HETATM   25  C1  UNL     1      29.487  -0.568  53.956  1.00  0.00     0.201 C 
ENDBRANCH  23  24
ENDBRANCH  22  23
ENDBRANCH  21  22
ENDBRANCH  19  21
ENDBRANCH   1  19
TORSDOF 6
ENDMDL
