MODEL 1
REMARK VINA RESULT:      -6.6      0.000      0.000
REMARK  6 active torsions:
REMARK  status: ('A' for Active; 'I' for Inactive)
REMARK    1  A    between atoms: C4_6  and  C5_7 
REMARK    2  A    between atoms: C5_7  and  C6_8 
REMARK    3  A    between atoms: N3_9  and  N4_10 
REMARK    4  A    between atoms: N4_10  and  C7_11 
REMARK    5  A    between atoms: C7_11  and  P1_12 
REMARK    6  A    between atoms: P1_12  and  C8_13 
ROOT
HETATM    1  N4  UNL     1      23.929   3.009  50.545  1.00  0.00    -0.289 N 
HETATM    2  H7  UNL     1      24.456   3.716  49.997  1.00  0.00     0.188 HD
ENDROOT
BRANCH   1   3
HETATM    3  N3  UNL     1      24.372   3.173  51.875  1.00  0.00    -0.191 NA
HETATM    4  C6  UNL     1      25.263   2.322  52.306  1.00  0.00     0.119 C 
BRANCH   4   5
HETATM    5  C5  UNL     1      25.812   2.392  53.703  1.00  0.00     0.135 C 
BRANCH   5   6
HETATM    6  C4  UNL     1      26.772   1.243  53.856  1.00  0.00     0.153 A 
HETATM    7  N2  UNL     1      27.825   1.186  54.611  1.00  0.00    -0.221 NA
HETATM    8  C3  UNL     1      28.656   0.019  54.659  1.00  0.00     0.238 A 
HETATM    9  N1  UNL     1      28.418  -1.059  53.956  1.00  0.00    -0.218 NA
HETATM   10  C2  UNL     1      27.261  -1.026  53.111  1.00  0.00     0.163 A 
HETATM   11  C1  UNL     1      26.888  -2.038  52.340  1.00  0.00     0.074 C 
HETATM   12  O1  UNL     1      26.472   0.118  53.084  1.00  0.00    -0.278 OA
ENDBRANCH   5   6
ENDBRANCH   4   5
ENDBRANCH   1   3
BRANCH   1  13
HETATM   13  C7  UNL     1      22.954   2.012  50.261  1.00  0.00     0.125 C 
BRANCH  13  14
HETATM   14  P1  UNL     1      21.553   1.747  51.092  1.00  0.00    -0.004 P 
BRANCH  14  15
HETATM   15  C8  UNL     1      21.497   0.539  52.464  1.00  0.00    -0.019 A 
HETATM   16  C9  UNL     1      20.287  -0.031  52.785  1.00  0.00     0.013 A 
HETATM   17  C10 UNL     1      20.262  -0.939  53.822  1.00  0.00     0.003 A 
HETATM   18  C11 UNL     1      21.374  -1.306  54.553  1.00  0.00     0.024 A 
HETATM   19  C12 UNL     1      22.587  -0.729  54.224  1.00  0.00     0.035 A 
HETATM   20 CL1  UNL     1      24.033  -1.154  55.114  1.00  0.00    -0.084 Cl
HETATM   21  C13 UNL     1      22.616   0.186  53.181  1.00  0.00     0.036 A 
ENDBRANCH  14  15
ENDBRANCH  13  14
ENDBRANCH   1  13
TORSDOF 6
ENDMDL
MODEL 2
REMARK VINA RESULT:      -6.5      4.765      7.004
REMARK  6 active torsions:
REMARK  status: ('A' for Active; 'I' for Inactive)
REMARK    1  A    between atoms: C4_6  and  C5_7 
REMARK    2  A    between atoms: C5_7  and  C6_8 
REMARK    3  A    between atoms: N3_9  and  N4_10 
REMARK    4  A    between atoms: N4_10  and  C7_11 
REMARK    5  A    between atoms: C7_11  and  P1_12 
REMARK    6  A    between atoms: P1_12  and  C8_13 
ROOT
HETATM    1  N4  UNL     1      26.871   3.038  51.799  1.00  0.00    -0.289 N 
HETATM    2  H7  UNL     1      27.444   3.805  52.199  1.00  0.00     0.188 HD
ENDROOT
BRANCH   1   3
HETATM    3  N3  UNL     1      27.126   1.922  52.625  1.00  0.00    -0.191 NA
HETATM    4  C6  UNL     1      26.675   0.769  52.211  1.00  0.00     0.119 C 
BRANCH   4   5
HETATM    5  C5  UNL     1      26.884  -0.491  53.003  1.00  0.00     0.135 C 
BRANCH   5   6
HETATM    6  C4  UNL     1      25.619  -0.733  53.783  1.00  0.00     0.153 A 
HETATM    7  N2  UNL     1      25.511  -1.090  55.025  1.00  0.00    -0.221 NA
HETATM    8  C3  UNL     1      24.233  -1.285  55.645  1.00  0.00     0.238 A 
HETATM    9  N1  UNL     1      23.099  -1.120  55.015  1.00  0.00    -0.218 NA
HETATM   10  C2  UNL     1      23.185  -0.726  53.639  1.00  0.00     0.163 A 
HETATM   11  C1  UNL     1      22.127  -0.520  52.868  1.00  0.00     0.074 C 
HETATM   12  O1  UNL     1      24.437  -0.543  53.063  1.00  0.00    -0.278 OA
ENDBRANCH   5   6
ENDBRANCH   4   5
ENDBRANCH   1   3
BRANCH   1  13
HETATM   13  C7  UNL     1      25.975   2.893  50.704  1.00  0.00     0.125 C 
BRANCH  13  14
HETATM   14  P1  UNL     1      25.455   4.094  49.698  1.00  0.00    -0.004 P 
BRANCH  14  15
HETATM   15  C8  UNL     1      26.648   5.236  48.914  1.00  0.00    -0.019 A 
HETATM   16  C9  UNL     1      26.216   6.494  48.562  1.00  0.00     0.013 A 
HETATM   17  C10 UNL     1      27.128   7.342  47.972  1.00  0.00     0.003 A 
HETATM   18  C11 UNL     1      28.442   7.005  47.715  1.00  0.00     0.024 A 
HETATM   19  C12 UNL     1      28.869   5.739  48.073  1.00  0.00     0.035 A 
HETATM   20 CL1  UNL     1      30.524   5.253  47.774  1.00  0.00    -0.084 Cl
HETATM   21  C13 UNL     1      27.954   4.882  48.667  1.00  0.00     0.036 A 
ENDBRANCH  14  15
ENDBRANCH  13  14
ENDBRANCH   1  13
TORSDOF 6
ENDMDL
MODEL 3
REMARK VINA RESULT:      -6.4      1.752      2.207
REMARK  6 active torsions:
REMARK  status: ('A' for Active; 'I' for Inactive)
REMARK    1  A    between atoms: C4_6  and  C5_7 
REMARK    2  A    between atoms: C5_7  and  C6_8 
REMARK    3  A    between atoms: N3_9  and  N4_10 
REMARK    4  A    between atoms: N4_10  and  C7_11 
REMARK    5  A    between atoms: C7_11  and  P1_12 
REMARK    6  A    between atoms: P1_12  and  C8_13 
ROOT
HETATM    1  N4  UNL     1      25.101   2.876  52.119  1.00  0.00    -0.289 N 
HETATM    2  H7  UNL     1      24.878   3.585  52.844  1.00  0.00     0.188 HD
ENDROOT
BRANCH   1   3
HETATM    3  N3  UNL     1      26.503   2.718  52.180  1.00  0.00    -0.191 NA
HETATM    4  C6  UNL     1      27.012   2.441  53.349  1.00  0.00     0.119 C 
BRANCH   4   5
HETATM    5  C5  UNL     1      28.490   2.250  53.541  1.00  0.00     0.135 C 
BRANCH   5   6
HETATM    6  C4  UNL     1      28.751   0.769  53.501  1.00  0.00     0.153 A 
HETATM    7  N2  UNL     1      29.841   0.147  53.828  1.00  0.00    -0.221 NA
HETATM    8  C3  UNL     1      29.950  -1.280  53.740  1.00  0.00     0.238 A 
HETATM    9  N1  UNL     1      28.974  -2.049  53.331  1.00  0.00    -0.218 NA
HETATM   10  C2  UNL     1      27.755  -1.391  52.962  1.00  0.00     0.163 A 
HETATM   11  C1  UNL     1      26.679  -2.032  52.530  1.00  0.00     0.074 C 
HETATM   12  O1  UNL     1      27.676  -0.007  53.057  1.00  0.00    -0.278 OA
ENDBRANCH   5   6
ENDBRANCH   4   5
ENDBRANCH   1   3
BRANCH   1  13
HETATM   13  C7  UNL     1      24.362   2.111  51.175  1.00  0.00     0.125 C 
BRANCH  13  14
HETATM   14  P1  UNL     1      22.752   1.756  51.246  1.00  0.00    -0.004 P 
BRANCH  14  15
HETATM   15  C8  UNL     1      22.114   0.559  52.473  1.00  0.00    -0.019 A 
HETATM   16  C9  UNL     1      22.992   0.037  53.395  1.00  0.00     0.013 A 
HETATM   17  C10 UNL     1      22.495  -0.864  54.312  1.00  0.00     0.003 A 
HETATM   18  C11 UNL     1      21.177  -1.270  54.359  1.00  0.00     0.024 A 
HETATM   19  C12 UNL     1      20.301  -0.741  53.429  1.00  0.00     0.035 A 
HETATM   20 CL1  UNL     1      18.617  -1.217  53.437  1.00  0.00    -0.084 Cl
HETATM   21  C13 UNL     1      20.797   0.166  52.503  1.00  0.00     0.036 A 
ENDBRANCH  14  15
ENDBRANCH  13  14
ENDBRANCH   1  13
TORSDOF 6
ENDMDL
MODEL 4
REMARK VINA RESULT:      -6.4      1.872      2.282
REMARK  6 active torsions:
REMARK  status: ('A' for Active; 'I' for Inactive)
REMARK    1  A    between atoms: C4_6  and  C5_7 
REMARK    2  A    between atoms: C5_7  and  C6_8 
REMARK    3  A    between atoms: N3_9  and  N4_10 
REMARK    4  A    between atoms: N4_10  and  C7_11 
REMARK    5  A    between atoms: C7_11  and  P1_12 
REMARK    6  A    between atoms: P1_12  and  C8_13 
ROOT
HETATM    1  N4  UNL     1      23.075   3.428  51.473  1.00  0.00    -0.289 N 
HETATM    2  H7  UNL     1      23.583   4.198  51.951  1.00  0.00     0.188 HD
ENDROOT
BRANCH   1   3
HETATM    3  N3  UNL     1      24.079   2.516  51.081  1.00  0.00    -0.191 NA
HETATM    4  C6  UNL     1      25.181   2.519  51.780  1.00  0.00     0.119 C 
BRANCH   4   5
HETATM    5  C5  UNL     1      26.322   1.595  51.459  1.00  0.00     0.135 C 
BRANCH   5   6
HETATM    6  C4  UNL     1      26.737   0.945  52.752  1.00  0.00     0.153 A 
HETATM    7  N2  UNL     1      26.057   0.869  53.853  1.00  0.00    -0.221 NA
HETATM    8  C3  UNL     1      26.579   0.214  55.017  1.00  0.00     0.238 A 
HETATM    9  N1  UNL     1      27.761  -0.346  55.055  1.00  0.00    -0.218 NA
HETATM   10  C2  UNL     1      28.537  -0.277  53.852  1.00  0.00     0.163 A 
HETATM   11  C1  UNL     1      29.750  -0.796  53.733  1.00  0.00     0.074 C 
HETATM   12  O1  UNL     1      28.007   0.363  52.738  1.00  0.00    -0.278 OA
ENDBRANCH   5   6
ENDBRANCH   4   5
ENDBRANCH   1   3
BRANCH   1  13
HETATM   13  C7  UNL     1      21.718   3.134  51.164  1.00  0.00     0.125 C 
BRANCH  13  14
HETATM   14  P1  UNL     1      20.568   2.592  52.217  1.00  0.00    -0.004 P 
BRANCH  14  15
HETATM   15  C8  UNL     1      20.731   0.955  53.015  1.00  0.00    -0.019 A 
HETATM   16  C9  UNL     1      21.947   0.609  53.558  1.00  0.00     0.013 A 
HETATM   17  C10 UNL     1      22.053  -0.628  54.155  1.00  0.00     0.003 A 
HETATM   18  C11 UNL     1      21.017  -1.536  54.238  1.00  0.00     0.024 A 
HETATM   19  C12 UNL     1      19.797  -1.182  53.690  1.00  0.00     0.035 A 
HETATM   20 CL1  UNL     1      18.445  -2.290  53.764  1.00  0.00    -0.084 Cl
HETATM   21  C13 UNL     1      19.686   0.063  53.088  1.00  0.00     0.036 A 
ENDBRANCH  14  15
ENDBRANCH  13  14
ENDBRANCH   1  13
TORSDOF 6
ENDMDL
MODEL 5
REMARK VINA RESULT:      -6.3      6.987      9.297
REMARK  6 active torsions:
REMARK  status: ('A' for Active; 'I' for Inactive)
REMARK    1  A    between atoms: C4_6  and  C5_7 
REMARK    2  A    between atoms: C5_7  and  C6_8 
REMARK    3  A    between atoms: N3_9  and  N4_10 
REMARK    4  A    between atoms: N4_10  and  C7_11 
REMARK    5  A    between atoms: C7_11  and  P1_12 
REMARK    6  A    between atoms: P1_12  and  C8_13 
ROOT
HETATM    1  N4  UNL     1      28.078   6.032  48.604  1.00  0.00    -0.289 N 
HETATM    2  H7  UNL     1      27.399   6.509  49.228  1.00  0.00     0.188 HD
ENDROOT
BRANCH   1   3
HETATM    3  N3  UNL     1      27.723   4.666  48.653  1.00  0.00    -0.191 NA
HETATM    4  C6  UNL     1      26.914   4.304  49.612  1.00  0.00     0.119 C 
BRANCH   4   5
HETATM    5  C5  UNL     1      26.464   2.879  49.769  1.00  0.00     0.135 C 
BRANCH   5   6
HETATM    6  C4  UNL     1      26.390   2.603  51.247  1.00  0.00     0.153 A 
HETATM    7  N2  UNL     1      25.326   2.425  51.967  1.00  0.00    -0.221 NA
HETATM    8  C3  UNL     1      25.404   2.168  53.376  1.00  0.00     0.238 A 
HETATM    9  N1  UNL     1      26.535   2.095  54.029  1.00  0.00    -0.218 NA
HETATM   10  C2  UNL     1      27.729   2.289  53.260  1.00  0.00     0.163 A 
HETATM   11  C1  UNL     1      28.948   2.245  53.777  1.00  0.00     0.074 C 
HETATM   12  O1  UNL     1      27.625   2.536  51.896  1.00  0.00    -0.278 OA
ENDBRANCH   5   6
ENDBRANCH   4   5
ENDBRANCH   1   3
BRANCH   1  13
HETATM   13  C7  UNL     1      29.179   6.428  47.796  1.00  0.00     0.125 C 
BRANCH  13  14
HETATM   14  P1  UNL     1      30.771   6.418  48.234  1.00  0.00    -0.004 P 
BRANCH  14  15
HETATM   15  C8  UNL     1      31.955   5.287  47.420  1.00  0.00    -0.019 A 
HETATM   16  C9  UNL     1      33.061   5.828  46.806  1.00  0.00     0.013 A 
HETATM   17  C10 UNL     1      33.943   4.962  46.197  1.00  0.00     0.003 A 
HETATM   18  C11 UNL     1      33.782   3.591  46.168  1.00  0.00     0.024 A 
HETATM   19  C12 UNL     1      32.668   3.054  46.788  1.00  0.00     0.035 A 
HETATM   20 CL1  UNL     1      32.409   1.323  46.784  1.00  0.00    -0.084 Cl
HETATM   21  C13 UNL     1      31.777   3.923  47.401  1.00  0.00     0.036 A 
ENDBRANCH  14  15
ENDBRANCH  13  14
ENDBRANCH   1  13
TORSDOF 6
ENDMDL
MODEL 6
REMARK VINA RESULT:      -6.2      4.260      6.143
REMARK  6 active torsions:
REMARK  status: ('A' for Active; 'I' for Inactive)
REMARK    1  A    between atoms: C4_6  and  C5_7 
REMARK    2  A    between atoms: C5_7  and  C6_8 
REMARK    3  A    between atoms: N3_9  and  N4_10 
REMARK    4  A    between atoms: N4_10  and  C7_11 
REMARK    5  A    between atoms: C7_11  and  P1_12 
REMARK    6  A    between atoms: P1_12  and  C8_13 
ROOT
HETATM    1  N4  UNL     1      22.668   5.035  52.308  1.00  0.00    -0.289 N 
HETATM    2  H7  UNL     1      22.179   4.957  53.221  1.00  0.00     0.188 HD
ENDROOT
BRANCH   1   3
HETATM    3  N3  UNL     1      22.920   3.704  51.913  1.00  0.00    -0.191 NA
HETATM    4  C6  UNL     1      23.817   3.047  52.598  1.00  0.00     0.119 C 
BRANCH   4   5
HETATM    5  C5  UNL     1      24.172   1.624  52.273  1.00  0.00     0.135 C 
BRANCH   5   6
HETATM    6  C4  UNL     1      25.305   1.236  53.185  1.00  0.00     0.153 A 
HETATM    7  N2  UNL     1      25.313   0.304  54.086  1.00  0.00    -0.221 NA
HETATM    8  C3  UNL     1      26.472   0.041  54.889  1.00  0.00     0.238 A 
HETATM    9  N1  UNL     1      27.589   0.711  54.775  1.00  0.00    -0.218 NA
HETATM   10  C2  UNL     1      27.612   1.750  53.787  1.00  0.00     0.163 A 
HETATM   11  C1  UNL     1      28.668   2.515  53.553  1.00  0.00     0.074 C 
HETATM   12  O1  UNL     1      26.475   1.983  53.022  1.00  0.00    -0.278 OA
ENDBRANCH   5   6
ENDBRANCH   4   5
ENDBRANCH   1   3
BRANCH   1  13
HETATM   13  C7  UNL     1      23.094   6.097  51.463  1.00  0.00     0.125 C 
BRANCH  13  14
HETATM   14  P1  UNL     1      23.493   5.978  49.865  1.00  0.00    -0.004 P 
BRANCH  14  15
HETATM   15  C8  UNL     1      25.203   5.577  49.359  1.00  0.00    -0.019 A 
HETATM   16  C9  UNL     1      25.678   4.309  49.604  1.00  0.00     0.013 A 
HETATM   17  C10 UNL     1      26.969   4.023  49.216  1.00  0.00     0.003 A 
HETATM   18  C11 UNL     1      27.809   4.929  48.601  1.00  0.00     0.024 A 
HETATM   19  C12 UNL     1      27.325   6.202  48.357  1.00  0.00     0.035 A 
HETATM   20 CL1  UNL     1      28.341   7.396  47.580  1.00  0.00    -0.084 Cl
HETATM   21  C13 UNL     1      26.025   6.494  48.746  1.00  0.00     0.036 A 
ENDBRANCH  14  15
ENDBRANCH  13  14
ENDBRANCH   1  13
TORSDOF 6
ENDMDL
MODEL 7
REMARK VINA RESULT:      -6.1      2.815      4.132
REMARK  6 active torsions:
REMARK  status: ('A' for Active; 'I' for Inactive)
REMARK    1  A    between atoms: C4_6  and  C5_7 
REMARK    2  A    between atoms: C5_7  and  C6_8 
REMARK    3  A    between atoms: N3_9  and  N4_10 
REMARK    4  A    between atoms: N4_10  and  C7_11 
REMARK    5  A    between atoms: C7_11  and  P1_12 
REMARK    6  A    between atoms: P1_12  and  C8_13 
ROOT
HETATM    1  N4  UNL     1      22.354  -0.809  52.888  1.00  0.00    -0.289 N 
HETATM    2  H7  UNL     1      22.863  -1.323  52.143  1.00  0.00     0.188 HD
ENDROOT
BRANCH   1   3
HETATM    3  N3  UNL     1      23.201  -0.864  54.016  1.00  0.00    -0.191 NA
HETATM    4  C6  UNL     1      24.428  -0.450  53.849  1.00  0.00     0.119 C 
BRANCH   4   5
HETATM    5  C5  UNL     1      25.424  -0.461  54.974  1.00  0.00     0.135 C 
BRANCH   5   6
HETATM    6  C4  UNL     1      26.661   0.234  54.471  1.00  0.00     0.153 A 
HETATM    7  N2  UNL     1      26.808   1.494  54.204  1.00  0.00    -0.221 NA
HETATM    8  C3  UNL     1      28.053   2.023  53.728  1.00  0.00     0.238 A 
HETATM    9  N1  UNL     1      29.116   1.287  53.531  1.00  0.00    -0.218 NA
HETATM   10  C2  UNL     1      28.984  -0.112  53.818  1.00  0.00     0.163 A 
HETATM   11  C1  UNL     1      29.969  -0.985  53.669  1.00  0.00     0.074 C 
HETATM   12  O1  UNL     1      27.767  -0.598  54.278  1.00  0.00    -0.278 OA
ENDBRANCH   5   6
ENDBRANCH   4   5
ENDBRANCH   1   3
BRANCH   1  13
HETATM   13  C7  UNL     1      21.107  -0.133  52.995  1.00  0.00     0.125 C 
BRANCH  13  14
HETATM   14  P1  UNL     1      20.816   1.451  52.634  1.00  0.00    -0.004 P 
BRANCH  14  15
HETATM   15  C8  UNL     1      21.919   2.366  51.498  1.00  0.00    -0.019 A 
HETATM   16  C9  UNL     1      22.226   1.796  50.283  1.00  0.00     0.013 A 
HETATM   17  C10 UNL     1      23.059   2.499  49.439  1.00  0.00     0.003 A 
HETATM   18  C11 UNL     1      23.600   3.732  49.740  1.00  0.00     0.024 A 
HETATM   19  C12 UNL     1      23.287   4.298  50.963  1.00  0.00     0.035 A 
HETATM   20 CL1  UNL     1      23.942   5.861  51.401  1.00  0.00    -0.084 Cl
HETATM   21  C13 UNL     1      22.449   3.594  51.816  1.00  0.00     0.036 A 
ENDBRANCH  14  15
ENDBRANCH  13  14
ENDBRANCH   1  13
TORSDOF 6
ENDMDL
MODEL 8
REMARK VINA RESULT:      -6.0      5.111      7.079
REMARK  6 active torsions:
REMARK  status: ('A' for Active; 'I' for Inactive)
REMARK    1  A    between atoms: C4_6  and  C5_7 
REMARK    2  A    between atoms: C5_7  and  C6_8 
REMARK    3  A    between atoms: N3_9  and  N4_10 
REMARK    4  A    between atoms: N4_10  and  C7_11 
REMARK    5  A    between atoms: C7_11  and  P1_12 
REMARK    6  A    between atoms: P1_12  and  C8_13 
ROOT
HETATM    1  N4  UNL     1      24.781   4.448  51.217  1.00  0.00    -0.289 N 
HETATM    2  H7  UNL     1      25.065   4.987  52.058  1.00  0.00     0.188 HD
ENDROOT
BRANCH   1   3
HETATM    3  N3  UNL     1      24.722   3.104  51.647  1.00  0.00    -0.191 NA
HETATM    4  C6  UNL     1      25.809   2.395  51.511  1.00  0.00     0.119 C 
BRANCH   4   5
HETATM    5  C5  UNL     1      25.869   0.954  51.931  1.00  0.00     0.135 C 
BRANCH   5   6
HETATM    6  C4  UNL     1      27.154   0.773  52.695  1.00  0.00     0.153 A 
HETATM    7  N2  UNL     1      27.820   1.674  53.347  1.00  0.00    -0.221 NA
HETATM    8  C3  UNL     1      29.038   1.359  54.035  1.00  0.00     0.238 A 
HETATM    9  N1  UNL     1      29.560   0.160  54.056  1.00  0.00    -0.218 NA
HETATM   10  C2  UNL     1      28.846  -0.858  53.343  1.00  0.00     0.163 A 
HETATM   11  C1  UNL     1      29.245  -2.120  53.271  1.00  0.00     0.074 C 
HETATM   12  O1  UNL     1      27.667  -0.526  52.685  1.00  0.00    -0.278 OA
ENDBRANCH   5   6
ENDBRANCH   4   5
ENDBRANCH   1   3
BRANCH   1  13
HETATM   13  C7  UNL     1      24.475   4.752  49.862  1.00  0.00     0.125 C 
BRANCH  13  14
HETATM   14  P1  UNL     1      25.003   6.062  49.007  1.00  0.00    -0.004 P 
BRANCH  14  15
HETATM   15  C8  UNL     1      26.760   6.212  48.522  1.00  0.00    -0.019 A 
HETATM   16  C9  UNL     1      27.561   5.097  48.612  1.00  0.00     0.013 A 
HETATM   17  C10 UNL     1      28.883   5.228  48.243  1.00  0.00     0.003 A 
HETATM   18  C11 UNL     1      29.445   6.404  47.792  1.00  0.00     0.024 A 
HETATM   19  C12 UNL     1      28.633   7.521  47.705  1.00  0.00     0.035 A 
HETATM   20 CL1  UNL     1      29.288   9.043  47.140  1.00  0.00    -0.084 Cl
HETATM   21  C13 UNL     1      27.302   7.394  48.075  1.00  0.00     0.036 A 
ENDBRANCH  14  15
ENDBRANCH  13  14
ENDBRANCH   1  13
TORSDOF 6
ENDMDL
MODEL 9
REMARK VINA RESULT:      -6.0      5.755      7.636
REMARK  6 active torsions:
REMARK  status: ('A' for Active; 'I' for Inactive)
REMARK    1  A    between atoms: C4_6  and  C5_7 
REMARK    2  A    between atoms: C5_7  and  C6_8 
REMARK    3  A    between atoms: N3_9  and  N4_10 
REMARK    4  A    between atoms: N4_10  and  C7_11 
REMARK    5  A    between atoms: C7_11  and  P1_12 
REMARK    6  A    between atoms: P1_12  and  C8_13 
ROOT
HETATM    1  N4  UNL     1      26.347   4.183  50.381  1.00  0.00    -0.289 N 
HETATM    2  H7  UNL     1      26.172   5.023  50.966  1.00  0.00     0.188 HD
ENDROOT
BRANCH   1   3
HETATM    3  N3  UNL     1      27.106   4.650  49.287  1.00  0.00    -0.191 NA
HETATM    4  C6  UNL     1      26.958   5.906  48.963  1.00  0.00     0.119 C 
BRANCH   4   5
HETATM    5  C5  UNL     1      27.711   6.520  47.817  1.00  0.00     0.135 C 
BRANCH   5   6
HETATM    6  C4  UNL     1      29.099   6.821  48.314  1.00  0.00     0.153 A 
HETATM    7  N2  UNL     1      30.098   6.001  48.419  1.00  0.00    -0.221 NA
HETATM    8  C3  UNL     1      31.375   6.428  48.913  1.00  0.00     0.238 A 
HETATM    9  N1  UNL     1      31.624   7.656  49.289  1.00  0.00    -0.218 NA
HETATM   10  C2  UNL     1      30.538   8.587  49.185  1.00  0.00     0.163 A 
HETATM   11  C1  UNL     1      30.633   9.864  49.526  1.00  0.00     0.074 C 
HETATM   12  O1  UNL     1      29.311   8.147  48.703  1.00  0.00    -0.278 OA
ENDBRANCH   5   6
ENDBRANCH   4   5
ENDBRANCH   1   3
BRANCH   1  13
HETATM   13  C7  UNL     1      26.013   2.802  50.448  1.00  0.00     0.125 C 
BRANCH  13  14
HETATM   14  P1  UNL     1      25.781   1.915  51.821  1.00  0.00    -0.004 P 
BRANCH  14  15
HETATM   15  C8  UNL     1      27.194   1.130  52.674  1.00  0.00    -0.019 A 
HETATM   16  C9  UNL     1      28.040   1.928  53.410  1.00  0.00     0.013 A 
HETATM   17  C10 UNL     1      29.101   1.321  54.047  1.00  0.00     0.003 A 
HETATM   18  C11 UNL     1      29.363  -0.033  53.989  1.00  0.00     0.024 A 
HETATM   19  C12 UNL     1      28.508  -0.829  53.248  1.00  0.00     0.035 A 
HETATM   20 CL1  UNL     1      28.788  -2.553  53.136  1.00  0.00    -0.084 Cl
HETATM   21  C13 UNL     1      27.439  -0.222  52.605  1.00  0.00     0.036 A 
ENDBRANCH  14  15
ENDBRANCH  13  14
ENDBRANCH   1  13
TORSDOF 6
ENDMDL
