MODEL 1
REMARK VINA RESULT:      -7.1      0.000      0.000
REMARK  8 active torsions:
REMARK  status: ('A' for Active; 'I' for Inactive)
REMARK    1  A    between atoms: O1_2  and  C2_3 
REMARK    2  A    between atoms: C2_3  and  C3_4 
REMARK    3  A    between atoms: C4_5  and  C5_6 
REMARK       I    between atoms: C5_6  and  N1_8 
REMARK    4  A    between atoms: N1_8  and  C6_9 
REMARK    5  A    between atoms: N2_12  and  C9_13 
REMARK    6  A    between atoms: C10_14  and  N4_17 
REMARK    7  A    between atoms: N4_17  and  C12_18 
REMARK    8  A    between atoms: C20_26  and  O3_27 
ROOT
HETATM    1  C9  UNL     1      25.665   3.366  49.570  1.00  0.00     0.132 C 
HETATM    2  C10 UNL     1      26.064   4.649  49.573  1.00  0.00     0.130 C 
HETATM    3  C11 UNL     1      25.260   5.733  50.046  1.00  0.00     0.119 C 
HETATM    4  N3  UNL     1      24.613   6.612  50.422  1.00  0.00    -0.190 NA
ENDROOT
BRANCH   2   5
HETATM    5  N4  UNL     1      27.355   4.998  49.127  1.00  0.00    -0.346 N 
HETATM    6  H11 UNL     1      27.969   4.267  49.590  1.00  0.00     0.167 HD
BRANCH   5   7
HETATM    7  C12 UNL     1      28.204   5.838  48.397  1.00  0.00     0.033 A 
HETATM    8  C13 UNL     1      27.887   7.014  47.761  1.00  0.00     0.029 A 
HETATM    9  C14 UNL     1      28.825   7.703  47.058  1.00  0.00     0.003 A 
HETATM   10  C15 UNL     1      30.083   7.182  47.010  1.00  0.00     0.007 A 
HETATM   11  C16 UNL     1      30.525   6.018  47.603  1.00  0.00    -0.060 A 
HETATM   12  C17 UNL     1      31.884   5.442  47.548  1.00  0.00     0.048 C 
HETATM   13  C18 UNL     1      29.526   5.356  48.310  1.00  0.00     0.036 A 
ENDBRANCH   5   7
ENDBRANCH   2   5
BRANCH   1  14
HETATM   14  N2  UNL     1      24.393   2.967  50.043  1.00  0.00    -0.357 N 
HETATM   15  C8  UNL     1      23.197   3.108  49.264  1.00  0.00     0.157 C 
HETATM   16  C7  UNL     1      22.173   2.092  49.597  1.00  0.00     0.026 C 
HETATM   17  C6  UNL     1      22.352   1.584  50.788  1.00  0.00     0.068 C 
HETATM   18  C20 UNL     1      23.431   1.669  51.760  1.00  0.00     0.110 C 
HETATM   19  C19 UNL     1      24.473   2.392  51.368  1.00  0.00     0.130 C 
BRANCH  17  20
HETATM   20  N1  UNL     1      21.363   0.606  51.161  1.00  0.00    -0.314 N 
HETATM   21  C5  UNL     1      20.222   1.118  51.828  1.00  0.00     0.301 C 
HETATM   22  O2  UNL     1      19.998   2.320  52.099  1.00  0.00    -0.258 OA
HETATM   23  H6  UNL     1      21.500  -0.390  50.943  1.00  0.00     0.170 HD
BRANCH  21  24
HETATM   24  C4  UNL     1      19.232   0.168  52.233  1.00  0.00    -0.003 C 
HETATM   25  C3  UNL     1      18.379  -0.624  52.585  1.00  0.00    -0.070 C 
BRANCH  25  26
HETATM   26  C2  UNL     1      17.333  -1.561  53.001  1.00  0.00     0.261 C 
BRANCH  26  27
HETATM   27  O1  UNL     1      17.905  -2.525  53.862  1.00  0.00    -0.384 OA
HETATM   28  C1  UNL     1      17.215  -3.731  53.587  1.00  0.00     0.202 C 
ENDBRANCH  26  27
ENDBRANCH  25  26
ENDBRANCH  21  24
ENDBRANCH  17  20
BRANCH  18  29
HETATM   29  O3  UNL     1      23.392   1.055  53.002  1.00  0.00    -0.352 OA
HETATM   30  C21 UNL     1      24.299   0.016  53.271  1.00  0.00     0.210 C 
ENDBRANCH  18  29
ENDBRANCH   1  14
TORSDOF 8
ENDMDL
MODEL 2
REMARK VINA RESULT:      -7.1      4.078     10.620
REMARK  8 active torsions:
REMARK  status: ('A' for Active; 'I' for Inactive)
REMARK    1  A    between atoms: O1_2  and  C2_3 
REMARK    2  A    between atoms: C2_3  and  C3_4 
REMARK    3  A    between atoms: C4_5  and  C5_6 
REMARK       I    between atoms: C5_6  and  N1_8 
REMARK    4  A    between atoms: N1_8  and  C6_9 
REMARK    5  A    between atoms: N2_12  and  C9_13 
REMARK    6  A    between atoms: C10_14  and  N4_17 
REMARK    7  A    between atoms: N4_17  and  C12_18 
REMARK    8  A    between atoms: C20_26  and  O3_27 
ROOT
HETATM    1  C9  UNL     1      23.386   3.226  51.128  1.00  0.00     0.132 C 
HETATM    2  C10 UNL     1      24.207   2.283  51.621  1.00  0.00     0.130 C 
HETATM    3  C11 UNL     1      25.613   2.468  51.808  1.00  0.00     0.119 C 
HETATM    4  N3  UNL     1      26.749   2.611  51.955  1.00  0.00    -0.190 NA
ENDROOT
BRANCH   2   5
HETATM    5  N4  UNL     1      23.699   1.032  52.026  1.00  0.00    -0.346 N 
HETATM    6  H11 UNL     1      23.985   0.393  51.229  1.00  0.00     0.167 HD
BRANCH   5   7
HETATM    7  C12 UNL     1      22.995   0.245  52.944  1.00  0.00     0.033 A 
HETATM    8  C13 UNL     1      23.500  -0.489  53.991  1.00  0.00     0.029 A 
HETATM    9  C14 UNL     1      22.682  -1.237  54.779  1.00  0.00     0.003 A 
HETATM   10  C15 UNL     1      21.351  -1.229  54.489  1.00  0.00     0.007 A 
HETATM   11  C16 UNL     1      20.724  -0.539  53.474  1.00  0.00    -0.060 A 
HETATM   12  C17 UNL     1      19.283  -0.532  53.147  1.00  0.00     0.048 C 
HETATM   13  C18 UNL     1      21.606   0.210  52.701  1.00  0.00     0.036 A 
ENDBRANCH   5   7
ENDBRANCH   2   5
BRANCH   1  14
HETATM   14  N2  UNL     1      23.847   4.507  50.745  1.00  0.00    -0.357 N 
HETATM   15  C8  UNL     1      23.415   5.711  51.393  1.00  0.00     0.157 C 
HETATM   16  C7  UNL     1      24.432   6.786  51.342  1.00  0.00     0.026 C 
HETATM   17  C6  UNL     1      25.288   6.608  50.370  1.00  0.00     0.068 C 
HETATM   18  C20 UNL     1      25.559   5.501  49.465  1.00  0.00     0.110 C 
HETATM   19  C19 UNL     1      24.803   4.428  49.663  1.00  0.00     0.130 C 
BRANCH  17  20
HETATM   20  N1  UNL     1      26.283   7.644  50.271  1.00  0.00    -0.314 N 
HETATM   21  C5  UNL     1      25.946   8.733  49.428  1.00  0.00     0.301 C 
HETATM   22  O2  UNL     1      24.877   8.875  48.790  1.00  0.00    -0.258 OA
HETATM   23  H6  UNL     1      27.169   7.575  50.791  1.00  0.00     0.170 HD
BRANCH  21  24
HETATM   24  C4  UNL     1      26.924   9.767  49.289  1.00  0.00    -0.003 C 
HETATM   25  C3  UNL     1      27.772  10.632  49.167  1.00  0.00    -0.070 C 
BRANCH  25  26
HETATM   26  C2  UNL     1      28.801  11.659  49.000  1.00  0.00     0.261 C 
BRANCH  26  27
HETATM   27  O1  UNL     1      28.296  12.889  49.483  1.00  0.00    -0.384 OA
HETATM   28  C1  UNL     1      27.888  13.606  48.333  1.00  0.00     0.202 C 
ENDBRANCH  26  27
ENDBRANCH  25  26
ENDBRANCH  21  24
ENDBRANCH  17  20
BRANCH  18  29
HETATM   29  O3  UNL     1      26.521   5.546  48.468  1.00  0.00    -0.352 OA
HETATM   30  C21 UNL     1      27.695   4.791  48.628  1.00  0.00     0.210 C 
ENDBRANCH  18  29
ENDBRANCH   1  14
TORSDOF 8
ENDMDL
MODEL 3
REMARK VINA RESULT:      -7.1      3.739     10.670
REMARK  8 active torsions:
REMARK  status: ('A' for Active; 'I' for Inactive)
REMARK    1  A    between atoms: O1_2  and  C2_3 
REMARK    2  A    between atoms: C2_3  and  C3_4 
REMARK    3  A    between atoms: C4_5  and  C5_6 
REMARK       I    between atoms: C5_6  and  N1_8 
REMARK    4  A    between atoms: N1_8  and  C6_9 
REMARK    5  A    between atoms: N2_12  and  C9_13 
REMARK    6  A    between atoms: C10_14  and  N4_17 
REMARK    7  A    between atoms: N4_17  and  C12_18 
REMARK    8  A    between atoms: C20_26  and  O3_27 
ROOT
HETATM    1  C9  UNL     1      22.163   3.881  51.011  1.00  0.00     0.132 C 
HETATM    2  C10 UNL     1      22.471   3.000  51.978  1.00  0.00     0.130 C 
HETATM    3  C11 UNL     1      23.680   3.043  52.740  1.00  0.00     0.119 C 
HETATM    4  N3  UNL     1      24.657   3.070  53.354  1.00  0.00    -0.190 NA
ENDROOT
BRANCH   2   5
HETATM    5  N4  UNL     1      21.569   1.974  52.324  1.00  0.00    -0.346 N 
HETATM    6  H11 UNL     1      20.679   2.264  51.825  1.00  0.00     0.167 HD
BRANCH   5   7
HETATM    7  C12 UNL     1      21.280   0.789  53.011  1.00  0.00     0.033 A 
HETATM    8  C13 UNL     1      22.126   0.035  53.789  1.00  0.00     0.029 A 
HETATM    9  C14 UNL     1      21.700  -1.120  54.366  1.00  0.00     0.003 A 
HETATM   10  C15 UNL     1      20.410  -1.496  54.143  1.00  0.00     0.007 A 
HETATM   11  C16 UNL     1      19.468  -0.831  53.388  1.00  0.00    -0.060 A 
HETATM   12  C17 UNL     1      18.071  -1.237  53.134  1.00  0.00     0.048 C 
HETATM   13  C18 UNL     1      19.956   0.344  52.823  1.00  0.00     0.036 A 
ENDBRANCH   5   7
ENDBRANCH   2   5
BRANCH   1  14
HETATM   14  N2  UNL     1      23.021   4.948  50.656  1.00  0.00    -0.357 N 
HETATM   15  C8  UNL     1      22.840   6.284  51.145  1.00  0.00     0.157 C 
HETATM   16  C7  UNL     1      24.110   7.040  51.234  1.00  0.00     0.026 C 
HETATM   17  C6  UNL     1      25.034   6.542  50.455  1.00  0.00     0.068 C 
HETATM   18  C20 UNL     1      25.135   5.316  49.677  1.00  0.00     0.110 C 
HETATM   19  C19 UNL     1      24.087   4.507  49.783  1.00  0.00     0.130 C 
BRANCH  17  20
HETATM   20  N1  UNL     1      26.281   7.262  50.494  1.00  0.00    -0.314 N 
HETATM   21  C5  UNL     1      26.485   8.183  49.435  1.00  0.00     0.301 C 
HETATM   22  O2  UNL     1      25.688   8.429  48.501  1.00  0.00    -0.258 OA
HETATM   23  H6  UNL     1      26.957   7.103  51.252  1.00  0.00     0.170 HD
BRANCH  21  24
HETATM   24  C4  UNL     1      27.725   8.896  49.433  1.00  0.00    -0.003 C 
HETATM   25  C3  UNL     1      28.779   9.504  49.409  1.00  0.00    -0.070 C 
BRANCH  25  26
HETATM   26  C2  UNL     1      30.037  10.250  49.361  1.00  0.00     0.261 C 
BRANCH  26  27
HETATM   27  O1  UNL     1      30.966   9.523  48.582  1.00  0.00    -0.384 OA
HETATM   28  C1  UNL     1      31.434   8.486  49.425  1.00  0.00     0.202 C 
ENDBRANCH  26  27
ENDBRANCH  25  26
ENDBRANCH  21  24
ENDBRANCH  17  20
BRANCH  18  29
HETATM   29  O3  UNL     1      26.226   5.002  48.883  1.00  0.00    -0.352 OA
HETATM   30  C21 UNL     1      27.024   3.901  49.236  1.00  0.00     0.210 C 
ENDBRANCH  18  29
ENDBRANCH   1  14
TORSDOF 8
ENDMDL
MODEL 4
REMARK VINA RESULT:      -7.0      4.320      5.882
REMARK  8 active torsions:
REMARK  status: ('A' for Active; 'I' for Inactive)
REMARK    1  A    between atoms: O1_2  and  C2_3 
REMARK    2  A    between atoms: C2_3  and  C3_4 
REMARK    3  A    between atoms: C4_5  and  C5_6 
REMARK       I    between atoms: C5_6  and  N1_8 
REMARK    4  A    between atoms: N1_8  and  C6_9 
REMARK    5  A    between atoms: N2_12  and  C9_13 
REMARK    6  A    between atoms: C10_14  and  N4_17 
REMARK    7  A    between atoms: N4_17  and  C12_18 
REMARK    8  A    between atoms: C20_26  and  O3_27 
ROOT
HETATM    1  C9  UNL     1      24.988   3.473  50.817  1.00  0.00     0.132 C 
HETATM    2  C10 UNL     1      25.193   2.677  51.881  1.00  0.00     0.130 C 
HETATM    3  C11 UNL     1      24.144   2.030  52.606  1.00  0.00     0.119 C 
HETATM    4  N3  UNL     1      23.301   1.509  53.197  1.00  0.00    -0.190 NA
ENDROOT
BRANCH   2   5
HETATM    5  N4  UNL     1      26.501   2.406  52.330  1.00  0.00    -0.346 N 
HETATM    6  H11 UNL     1      27.008   3.320  52.145  1.00  0.00     0.167 HD
BRANCH   5   7
HETATM    7  C12 UNL     1      27.442   1.523  52.872  1.00  0.00     0.033 A 
HETATM    8  C13 UNL     1      28.590   1.830  53.563  1.00  0.00     0.029 A 
HETATM    9  C14 UNL     1      29.427   0.851  53.999  1.00  0.00     0.003 A 
HETATM   10  C15 UNL     1      29.082  -0.438  53.724  1.00  0.00     0.007 A 
HETATM   11  C16 UNL     1      27.965  -0.874  53.045  1.00  0.00    -0.060 A 
HETATM   12  C17 UNL     1      27.589  -2.269  52.735  1.00  0.00     0.048 C 
HETATM   13  C18 UNL     1      27.144   0.168  52.624  1.00  0.00     0.036 A 
ENDBRANCH   5   7
ENDBRANCH   2   5
BRANCH   1  14
HETATM   14  N2  UNL     1      23.695   3.742  50.310  1.00  0.00    -0.357 N 
HETATM   15  C8  UNL     1      22.999   2.838  49.443  1.00  0.00     0.157 C 
HETATM   16  C7  UNL     1      21.527   2.939  49.570  1.00  0.00     0.026 C 
HETATM   17  C6  UNL     1      21.155   4.089  50.069  1.00  0.00     0.068 C 
HETATM   18  C20 UNL     1      21.875   5.192  50.688  1.00  0.00     0.110 C 
HETATM   19  C19 UNL     1      23.185   5.005  50.798  1.00  0.00     0.130 C 
BRANCH  17  20
HETATM   20  N1  UNL     1      19.728   4.239  50.190  1.00  0.00    -0.314 N 
HETATM   21  C5  UNL     1      19.161   3.727  51.384  1.00  0.00     0.301 C 
HETATM   22  O2  UNL     1      19.781   3.184  52.327  1.00  0.00    -0.258 OA
HETATM   23  H6  UNL     1      19.182   4.694  49.446  1.00  0.00     0.170 HD
BRANCH  21  24
HETATM   24  C4  UNL     1      17.742   3.839  51.522  1.00  0.00    -0.003 C 
HETATM   25  C3  UNL     1      16.536   3.929  51.661  1.00  0.00    -0.070 C 
BRANCH  25  26
HETATM   26  C2  UNL     1      15.089   4.048  51.851  1.00  0.00     0.261 C 
BRANCH  26  27
HETATM   27  O1  UNL     1      14.760   3.563  53.138  1.00  0.00    -0.384 OA
HETATM   28  C1  UNL     1      14.076   2.344  52.917  1.00  0.00     0.202 C 
ENDBRANCH  26  27
ENDBRANCH  25  26
ENDBRANCH  21  24
ENDBRANCH  17  20
BRANCH  18  29
HETATM   29  O3  UNL     1      21.261   6.354  51.129  1.00  0.00    -0.352 OA
HETATM   30  C21 UNL     1      21.668   7.583  50.583  1.00  0.00     0.210 C 
ENDBRANCH  18  29
ENDBRANCH   1  14
TORSDOF 8
ENDMDL
MODEL 5
REMARK VINA RESULT:      -6.9      4.896      6.452
REMARK  8 active torsions:
REMARK  status: ('A' for Active; 'I' for Inactive)
REMARK    1  A    between atoms: O1_2  and  C2_3 
REMARK    2  A    between atoms: C2_3  and  C3_4 
REMARK    3  A    between atoms: C4_5  and  C5_6 
REMARK       I    between atoms: C5_6  and  N1_8 
REMARK    4  A    between atoms: N1_8  and  C6_9 
REMARK    5  A    between atoms: N2_12  and  C9_13 
REMARK    6  A    between atoms: C10_14  and  N4_17 
REMARK    7  A    between atoms: N4_17  and  C12_18 
REMARK    8  A    between atoms: C20_26  and  O3_27 
ROOT
HETATM    1  C9  UNL     1      24.057   0.453  52.083  1.00  0.00     0.132 C 
HETATM    2  C10 UNL     1      24.307  -0.319  53.154  1.00  0.00     0.130 C 
HETATM    3  C11 UNL     1      23.310  -0.723  54.096  1.00  0.00     0.119 C 
HETATM    4  N3  UNL     1      22.510  -1.047  54.862  1.00  0.00    -0.190 NA
ENDROOT
BRANCH   2   5
HETATM    5  N4  UNL     1      25.605  -0.816  53.391  1.00  0.00    -0.346 N 
HETATM    6  H11 UNL     1      25.420  -1.791  53.766  1.00  0.00     0.167 HD
BRANCH   5   7
HETATM    7  C12 UNL     1      26.993  -0.640  53.388  1.00  0.00     0.033 A 
HETATM    8  C13 UNL     1      27.968  -1.604  53.289  1.00  0.00     0.029 A 
HETATM    9  C14 UNL     1      29.286  -1.273  53.337  1.00  0.00     0.003 A 
HETATM   10  C15 UNL     1      29.598   0.044  53.488  1.00  0.00     0.007 A 
HETATM   11  C16 UNL     1      28.719   1.100  53.598  1.00  0.00    -0.060 A 
HETATM   12  C17 UNL     1      29.049   2.530  53.772  1.00  0.00     0.048 C 
HETATM   13  C18 UNL     1      27.386   0.706  53.541  1.00  0.00     0.036 A 
ENDBRANCH   5   7
ENDBRANCH   2   5
BRANCH   1  14
HETATM   14  N2  UNL     1      22.763   0.942  51.786  1.00  0.00    -0.357 N 
HETATM   15  C8  UNL     1      21.716   0.104  51.280  1.00  0.00     0.157 C 
HETATM   16  C7  UNL     1      20.366   0.579  51.661  1.00  0.00     0.026 C 
HETATM   17  C6  UNL     1      20.361   1.850  51.967  1.00  0.00     0.068 C 
HETATM   18  C20 UNL     1      21.412   2.831  52.188  1.00  0.00     0.110 C 
HETATM   19  C19 UNL     1      22.646   2.352  52.084  1.00  0.00     0.130 C 
BRANCH  17  20
HETATM   20  N1  UNL     1      19.061   2.359  52.323  1.00  0.00    -0.314 N 
HETATM   21  C5  UNL     1      18.236   2.738  51.233  1.00  0.00     0.301 C 
HETATM   22  O2  UNL     1      18.527   2.654  50.018  1.00  0.00    -0.258 OA
HETATM   23  H6  UNL     1      18.775   2.429  53.308  1.00  0.00     0.170 HD
BRANCH  21  24
HETATM   24  C4  UNL     1      16.949   3.270  51.555  1.00  0.00    -0.003 C 
HETATM   25  C3  UNL     1      15.844   3.706  51.820  1.00  0.00    -0.070 C 
BRANCH  25  26
HETATM   26  C2  UNL     1      14.506   4.206  52.143  1.00  0.00     0.261 C 
BRANCH  26  27
HETATM   27  O1  UNL     1      14.415   4.383  53.542  1.00  0.00    -0.384 OA
HETATM   28  C1  UNL     1      13.029   4.409  53.829  1.00  0.00     0.202 C 
ENDBRANCH  26  27
ENDBRANCH  25  26
ENDBRANCH  21  24
ENDBRANCH  17  20
BRANCH  18  29
HETATM   29  O3  UNL     1      21.165   4.163  52.483  1.00  0.00    -0.352 OA
HETATM   30  C21 UNL     1      21.901   5.152  51.808  1.00  0.00     0.210 C 
ENDBRANCH  18  29
ENDBRANCH   1  14
TORSDOF 8
ENDMDL
MODEL 6
REMARK VINA RESULT:      -6.8      4.171     10.525
REMARK  8 active torsions:
REMARK  status: ('A' for Active; 'I' for Inactive)
REMARK    1  A    between atoms: O1_2  and  C2_3 
REMARK    2  A    between atoms: C2_3  and  C3_4 
REMARK    3  A    between atoms: C4_5  and  C5_6 
REMARK       I    between atoms: C5_6  and  N1_8 
REMARK    4  A    between atoms: N1_8  and  C6_9 
REMARK    5  A    between atoms: N2_12  and  C9_13 
REMARK    6  A    between atoms: C10_14  and  N4_17 
REMARK    7  A    between atoms: N4_17  and  C12_18 
REMARK    8  A    between atoms: C20_26  and  O3_27 
ROOT
HETATM    1  C9  UNL     1      24.328   3.512  51.532  1.00  0.00     0.132 C 
HETATM    2  C10 UNL     1      23.496   2.566  51.061  1.00  0.00     0.130 C 
HETATM    3  C11 UNL     1      22.682   2.729  49.898  1.00  0.00     0.119 C 
HETATM    4  N3  UNL     1      22.018   2.857  48.962  1.00  0.00    -0.190 NA
ENDROOT
BRANCH   2   5
HETATM    5  N4  UNL     1      23.410   1.310  51.695  1.00  0.00    -0.346 N 
HETATM    6  H11 UNL     1      24.232   0.781  51.283  1.00  0.00     0.167 HD
BRANCH   5   7
HETATM    7  C12 UNL     1      22.764   0.434  52.575  1.00  0.00     0.033 A 
HETATM    8  C13 UNL     1      21.445   0.050  52.569  1.00  0.00     0.029 A 
HETATM    9  C14 UNL     1      20.957  -0.789  53.521  1.00  0.00     0.003 A 
HETATM   10  C15 UNL     1      21.825  -1.230  54.475  1.00  0.00     0.007 A 
HETATM   11  C16 UNL     1      23.163  -0.920  54.589  1.00  0.00    -0.060 A 
HETATM   12  C17 UNL     1      24.107  -1.386  55.625  1.00  0.00     0.048 C 
HETATM   13  C18 UNL     1      23.609  -0.061  53.590  1.00  0.00     0.036 A 
ENDBRANCH   5   7
ENDBRANCH   2   5
BRANCH   1  14
HETATM   14  N2  UNL     1      24.474   4.772  50.906  1.00  0.00    -0.357 N 
HETATM   15  C8  UNL     1      23.737   5.931  51.316  1.00  0.00     0.157 C 
HETATM   16  C7  UNL     1      24.460   7.195  51.049  1.00  0.00     0.026 C 
HETATM   17  C6  UNL     1      25.369   7.055  50.120  1.00  0.00     0.068 C 
HETATM   18  C20 UNL     1      25.935   5.900  49.439  1.00  0.00     0.110 C 
HETATM   19  C19 UNL     1      25.459   4.730  49.848  1.00  0.00     0.130 C 
BRANCH  17  20
HETATM   20  N1  UNL     1      26.082   8.268  49.813  1.00  0.00    -0.314 N 
HETATM   21  C5  UNL     1      25.391   9.188  48.985  1.00  0.00     0.301 C 
HETATM   22  O2  UNL     1      24.235   9.047  48.522  1.00  0.00    -0.258 OA
HETATM   23  H6  UNL     1      27.027   8.432  50.186  1.00  0.00     0.170 HD
BRANCH  21  24
HETATM   24  C4  UNL     1      26.082  10.392  48.642  1.00  0.00    -0.003 C 
HETATM   25  C3  UNL     1      26.654  11.428  48.357  1.00  0.00    -0.070 C 
BRANCH  25  26
HETATM   26  C2  UNL     1      27.332  12.685  48.037  1.00  0.00     0.261 C 
BRANCH  26  27
HETATM   27  O1  UNL     1      28.040  13.122  49.180  1.00  0.00    -0.384 OA
HETATM   28  C1  UNL     1      29.335  12.563  49.057  1.00  0.00     0.202 C 
ENDBRANCH  26  27
ENDBRANCH  25  26
ENDBRANCH  21  24
ENDBRANCH  17  20
BRANCH  18  29
HETATM   29  O3  UNL     1      26.893   5.995  48.442  1.00  0.00    -0.352 OA
HETATM   30  C21 UNL     1      28.024   5.165  48.511  1.00  0.00     0.210 C 
ENDBRANCH  18  29
ENDBRANCH   1  14
TORSDOF 8
ENDMDL
MODEL 7
REMARK VINA RESULT:      -6.7      3.072      3.592
REMARK  8 active torsions:
REMARK  status: ('A' for Active; 'I' for Inactive)
REMARK    1  A    between atoms: O1_2  and  C2_3 
REMARK    2  A    between atoms: C2_3  and  C3_4 
REMARK    3  A    between atoms: C4_5  and  C5_6 
REMARK       I    between atoms: C5_6  and  N1_8 
REMARK    4  A    between atoms: N1_8  and  C6_9 
REMARK    5  A    between atoms: N2_12  and  C9_13 
REMARK    6  A    between atoms: C10_14  and  N4_17 
REMARK    7  A    between atoms: N4_17  and  C12_18 
REMARK    8  A    between atoms: C20_26  and  O3_27 
ROOT
HETATM    1  C9  UNL     1      24.953   4.553  49.803  1.00  0.00     0.132 C 
HETATM    2  C10 UNL     1      26.209   4.081  49.883  1.00  0.00     0.130 C 
HETATM    3  C11 UNL     1      26.608   3.021  50.755  1.00  0.00     0.119 C 
HETATM    4  N3  UNL     1      26.937   2.168  51.461  1.00  0.00    -0.190 NA
ENDROOT
BRANCH   2   5
HETATM    5  N4  UNL     1      27.224   4.605  49.057  1.00  0.00    -0.346 N 
HETATM    6  H11 UNL     1      27.810   3.750  48.832  1.00  0.00     0.167 HD
BRANCH   5   7
HETATM    7  C12 UNL     1      27.831   5.692  48.417  1.00  0.00     0.033 A 
HETATM    8  C13 UNL     1      27.241   6.853  47.979  1.00  0.00     0.029 A 
HETATM    9  C14 UNL     1      27.967   7.808  47.339  1.00  0.00     0.003 A 
HETATM   10  C15 UNL     1      29.295   7.567  47.151  1.00  0.00     0.007 A 
HETATM   11  C16 UNL     1      30.002   6.450  47.542  1.00  0.00    -0.060 A 
HETATM   12  C17 UNL     1      31.439   6.177  47.334  1.00  0.00     0.048 C 
HETATM   13  C18 UNL     1      29.211   5.507  48.193  1.00  0.00     0.036 A 
ENDBRANCH   5   7
ENDBRANCH   2   5
BRANCH   1  14
HETATM   14  N2  UNL     1      23.897   4.031  50.586  1.00  0.00    -0.357 N 
HETATM   15  C8  UNL     1      23.607   4.502  51.909  1.00  0.00     0.157 C 
HETATM   16  C7  UNL     1      22.178   4.360  52.269  1.00  0.00     0.026 C 
HETATM   17  C6  UNL     1      21.575   3.458  51.541  1.00  0.00     0.068 C 
HETATM   18  C20 UNL     1      21.957   2.712  50.351  1.00  0.00     0.110 C 
HETATM   19  C19 UNL     1      23.159   3.011  49.874  1.00  0.00     0.130 C 
BRANCH  17  20
HETATM   20  N1  UNL     1      20.186   3.272  51.874  1.00  0.00    -0.314 N 
HETATM   21  C5  UNL     1      19.274   4.087  51.157  1.00  0.00     0.301 C 
HETATM   22  O2  UNL     1      19.564   4.923  50.270  1.00  0.00    -0.258 OA
HETATM   23  H6  UNL     1      19.903   2.584  52.584  1.00  0.00     0.170 HD
BRANCH  21  24
HETATM   24  C4  UNL     1      17.889   3.943  51.482  1.00  0.00    -0.003 C 
HETATM   25  C3  UNL     1      16.714   3.831  51.777  1.00  0.00    -0.070 C 
BRANCH  25  26
HETATM   26  C2  UNL     1      15.300   3.721  52.142  1.00  0.00     0.261 C 
BRANCH  26  27
HETATM   27  O1  UNL     1      15.111   4.320  53.409  1.00  0.00    -0.384 OA
HETATM   28  C1  UNL     1      13.708   4.396  53.583  1.00  0.00     0.202 C 
ENDBRANCH  26  27
ENDBRANCH  25  26
ENDBRANCH  21  24
ENDBRANCH  17  20
BRANCH  18  29
HETATM   29  O3  UNL     1      21.146   1.761  49.752  1.00  0.00    -0.352 OA
HETATM   30  C21 UNL     1      21.611   1.107  48.598  1.00  0.00     0.210 C 
ENDBRANCH  18  29
ENDBRANCH   1  14
TORSDOF 8
ENDMDL
MODEL 8
REMARK VINA RESULT:      -6.7      3.837     10.530
REMARK  8 active torsions:
REMARK  status: ('A' for Active; 'I' for Inactive)
REMARK    1  A    between atoms: O1_2  and  C2_3 
REMARK    2  A    between atoms: C2_3  and  C3_4 
REMARK    3  A    between atoms: C4_5  and  C5_6 
REMARK       I    between atoms: C5_6  and  N1_8 
REMARK    4  A    between atoms: N1_8  and  C6_9 
REMARK    5  A    between atoms: N2_12  and  C9_13 
REMARK    6  A    between atoms: C10_14  and  N4_17 
REMARK    7  A    between atoms: N4_17  and  C12_18 
REMARK    8  A    between atoms: C20_26  and  O3_27 
ROOT
HETATM    1  C9  UNL     1      24.108   2.698  50.707  1.00  0.00     0.132 C 
HETATM    2  C10 UNL     1      24.193   1.958  51.825  1.00  0.00     0.130 C 
HETATM    3  C11 UNL     1      25.153   2.185  52.860  1.00  0.00     0.119 C 
HETATM    4  N3  UNL     1      25.930   2.360  53.696  1.00  0.00    -0.190 NA
ENDROOT
BRANCH   2   5
HETATM    5  N4  UNL     1      23.285   0.905  52.057  1.00  0.00    -0.346 N 
HETATM    6  H11 UNL     1      23.021   0.601  51.075  1.00  0.00     0.167 HD
BRANCH   5   7
HETATM    7  C12 UNL     1      22.561   0.096  52.940  1.00  0.00     0.033 A 
HETATM    8  C13 UNL     1      23.044  -0.665  53.978  1.00  0.00     0.029 A 
HETATM    9  C14 UNL     1      22.209  -1.432  54.729  1.00  0.00     0.003 A 
HETATM   10  C15 UNL     1      20.884  -1.415  54.412  1.00  0.00     0.007 A 
HETATM   11  C16 UNL     1      20.279  -0.698  53.402  1.00  0.00    -0.060 A 
HETATM   12  C17 UNL     1      18.846  -0.682  53.045  1.00  0.00     0.048 C 
HETATM   13  C18 UNL     1      21.178   0.069  52.667  1.00  0.00     0.036 A 
ENDBRANCH   5   7
ENDBRANCH   2   5
BRANCH   1  14
HETATM   14  N2  UNL     1      24.975   3.787  50.451  1.00  0.00    -0.357 N 
HETATM   15  C8  UNL     1      26.225   3.637  49.766  1.00  0.00     0.157 C 
HETATM   16  C7  UNL     1      26.627   4.858  49.031  1.00  0.00     0.026 C 
HETATM   17  C6  UNL     1      26.042   5.929  49.500  1.00  0.00     0.068 C 
HETATM   18  C20 UNL     1      24.959   6.144  50.449  1.00  0.00     0.110 C 
HETATM   19  C19 UNL     1      24.424   5.032  50.938  1.00  0.00     0.130 C 
BRANCH  17  20
HETATM   20  N1  UNL     1      26.422   7.145  48.828  1.00  0.00    -0.314 N 
HETATM   21  C5  UNL     1      25.586   7.531  47.750  1.00  0.00     0.301 C 
HETATM   22  O2  UNL     1      24.562   6.930  47.352  1.00  0.00    -0.258 OA
HETATM   23  H6  UNL     1      27.247   7.678  49.133  1.00  0.00     0.170 HD
BRANCH  21  24
HETATM   24  C4  UNL     1      25.952   8.721  47.047  1.00  0.00    -0.003 C 
HETATM   25  C3  UNL     1      26.242   9.737  46.443  1.00  0.00    -0.070 C 
BRANCH  25  26
HETATM   26  C2  UNL     1      26.570  10.971  45.726  1.00  0.00     0.261 C 
BRANCH  26  27
HETATM   27  O1  UNL     1      27.569  11.663  46.449  1.00  0.00    -0.384 OA
HETATM   28  C1  UNL     1      28.787  11.027  46.109  1.00  0.00     0.202 C 
ENDBRANCH  26  27
ENDBRANCH  25  26
ENDBRANCH  21  24
ENDBRANCH  17  20
BRANCH  18  29
HETATM   29  O3  UNL     1      24.512   7.401  50.826  1.00  0.00    -0.352 OA
HETATM   30  C21 UNL     1      23.158   7.722  50.631  1.00  0.00     0.210 C 
ENDBRANCH  18  29
ENDBRANCH   1  14
TORSDOF 8
ENDMDL
MODEL 9
REMARK VINA RESULT:      -6.6      4.011      6.260
REMARK  8 active torsions:
REMARK  status: ('A' for Active; 'I' for Inactive)
REMARK    1  A    between atoms: O1_2  and  C2_3 
REMARK    2  A    between atoms: C2_3  and  C3_4 
REMARK    3  A    between atoms: C4_5  and  C5_6 
REMARK       I    between atoms: C5_6  and  N1_8 
REMARK    4  A    between atoms: N1_8  and  C6_9 
REMARK    5  A    between atoms: N2_12  and  C9_13 
REMARK    6  A    between atoms: C10_14  and  N4_17 
REMARK    7  A    between atoms: N4_17  and  C12_18 
REMARK    8  A    between atoms: C20_26  and  O3_27 
ROOT
HETATM    1  C9  UNL     1      23.975   2.828  52.789  1.00  0.00     0.132 C 
HETATM    2  C10 UNL     1      24.992   2.838  51.909  1.00  0.00     0.130 C 
HETATM    3  C11 UNL     1      24.851   3.196  50.533  1.00  0.00     0.119 C 
HETATM    4  N3  UNL     1      24.741   3.479  49.419  1.00  0.00    -0.190 NA
ENDROOT
BRANCH   2   5
HETATM    5  N4  UNL     1      26.300   2.517  52.325  1.00  0.00    -0.346 N 
HETATM    6  H11 UNL     1      26.810   3.443  52.231  1.00  0.00     0.167 HD
BRANCH   5   7
HETATM    7  C12 UNL     1      27.238   1.581  52.774  1.00  0.00     0.033 A 
HETATM    8  C13 UNL     1      28.459   1.821  53.357  1.00  0.00     0.029 A 
HETATM    9  C14 UNL     1      29.279   0.795  53.711  1.00  0.00     0.003 A 
HETATM   10  C15 UNL     1      28.842  -0.472  53.463  1.00  0.00     0.007 A 
HETATM   11  C16 UNL     1      27.645  -0.842  52.888  1.00  0.00    -0.060 A 
HETATM   12  C17 UNL     1      27.168  -2.212  52.608  1.00  0.00     0.048 C 
HETATM   13  C18 UNL     1      26.846   0.246  52.549  1.00  0.00     0.036 A 
ENDBRANCH   5   7
ENDBRANCH   2   5
BRANCH   1  14
HETATM   14  N2  UNL     1      22.654   3.179  52.424  1.00  0.00    -0.357 N 
HETATM   15  C8  UNL     1      22.188   4.535  52.409  1.00  0.00     0.157 C 
HETATM   16  C7  UNL     1      21.109   4.760  51.422  1.00  0.00     0.026 C 
HETATM   17  C6  UNL     1      20.495   3.650  51.102  1.00  0.00     0.068 C 
HETATM   18  C20 UNL     1      20.766   2.245  51.365  1.00  0.00     0.110 C 
HETATM   19  C19 UNL     1      21.877   2.016  52.054  1.00  0.00     0.130 C 
BRANCH  17  20
HETATM   20  N1  UNL     1      19.421   3.828  50.159  1.00  0.00    -0.314 N 
HETATM   21  C5  UNL     1      18.125   3.924  50.724  1.00  0.00     0.301 C 
HETATM   22  O2  UNL     1      17.841   3.886  51.943  1.00  0.00    -0.258 OA
HETATM   23  H6  UNL     1      19.611   3.881  49.149  1.00  0.00     0.170 HD
BRANCH  21  24
HETATM   24  C4  UNL     1      17.034   4.077  49.811  1.00  0.00    -0.003 C 
HETATM   25  C3  UNL     1      16.106   4.227  49.038  1.00  0.00    -0.070 C 
BRANCH  25  26
HETATM   26  C2  UNL     1      15.001   4.431  48.100  1.00  0.00     0.261 C 
BRANCH  26  27
HETATM   27  O1  UNL     1      13.898   4.962  48.809  1.00  0.00    -0.384 OA
HETATM   28  C1  UNL     1      13.684   6.250  48.261  1.00  0.00     0.202 C 
ENDBRANCH  26  27
ENDBRANCH  25  26
ENDBRANCH  21  24
ENDBRANCH  17  20
BRANCH  18  29
HETATM   29  O3  UNL     1      19.941   1.215  50.940  1.00  0.00    -0.352 OA
HETATM   30  C21 UNL     1      19.178   0.523  51.896  1.00  0.00     0.210 C 
ENDBRANCH  18  29
ENDBRANCH   1  14
TORSDOF 8
ENDMDL
