MODEL 1
REMARK VINA RESULT:      -7.9      0.000      0.000
REMARK  5 active torsions:
REMARK  status: ('A' for Active; 'I' for Inactive)
REMARK    1  A    between atoms: C2_2  and  C3_3 
REMARK    2  A    between atoms: C2_2  and  C7_8 
REMARK    3  A    between atoms: C3_3  and  C4_4 
REMARK    4  A    between atoms: C4_4  and  C5_5 
REMARK    5  A    between atoms: C5_5  and  C6_6 
ROOT
HETATM    1  C7  UNL     1      24.020   3.151  52.395  1.00  0.00     0.126 C 
HETATM    2  C8  UNL     1      22.638   3.877  52.258  1.00  0.00     0.195 C 
HETATM    3  N1  UNL     1      23.221   5.182  52.097  1.00  0.00    -0.105 NA
HETATM    4  C9  UNL     1      24.285   5.429  51.627  1.00  0.00     0.699 C 
HETATM    5  N2  UNL     1      24.081   6.850  51.847  1.00  0.00    -0.184 N 
HETATM    6  C10 UNL     1      23.942   7.588  50.553  1.00  0.00     0.127 A 
HETATM    7  C11 UNL     1      22.643   7.544  50.201  1.00  0.00     0.149 A 
HETATM    8  F1  UNL     1      21.658   7.424  51.078  1.00  0.00    -0.203 F 
HETATM    9  C12 UNL     1      22.589   7.661  48.793  1.00  0.00     0.087 A 
HETATM   10  C13 UNL     1      23.800   7.779  48.091  1.00  0.00     0.128 A 
HETATM   11  F2  UNL     1      23.801   7.887  46.722  1.00  0.00    -0.205 F 
HETATM   12  C14 UNL     1      24.939   7.778  48.866  1.00  0.00     0.024 A 
HETATM   13  C15 UNL     1      25.245   7.700  50.187  1.00  0.00     0.156 A 
HETATM   14  F3  UNL     1      26.355   7.789  50.854  1.00  0.00    -0.203 F 
HETATM   15  C16 UNL     1      26.150   7.523  48.127  1.00  0.00     0.071 C 
HETATM   16  C17 UNL     1      27.054   6.414  48.453  1.00  0.00     0.172 C 
HETATM   17  O1  UNL     1      26.675   5.089  48.544  1.00  0.00    -0.389 OA
HETATM   18  C18 UNL     1      25.889   4.956  49.610  1.00  0.00     0.188 C 
HETATM   19  C19 UNL     1      25.341   3.671  50.188  1.00  0.00     0.168 C 
HETATM   20  N3  UNL     1      24.587   4.065  51.367  1.00  0.00    -0.207 N 
HETATM   21  H16 UNL     1      23.974   7.638  52.482  1.00  0.00     0.184 HD
ENDROOT
BRANCH   1  22
HETATM   22  C2  UNL     1      23.983   1.757  52.084  1.00  0.00     0.007 C 
HETATM   23  C1  UNL     1      22.699   1.016  52.254  1.00  0.00     0.012 C 
BRANCH  22  24
HETATM   24  C3  UNL     1      25.056   1.023  52.883  1.00  0.00     0.006 C 
BRANCH  24  25
HETATM   25  C4  UNL     1      26.173   0.495  52.039  1.00  0.00     0.001 C 
BRANCH  25  26
HETATM   26  C5  UNL     1      26.866  -0.703  52.711  1.00  0.00     0.011 C 
BRANCH  26  27
HETATM   27  C6  UNL     1      27.655  -0.248  53.914  1.00  0.00     0.085 C 
HETATM   28 BR1  UNL     1      29.530  -0.701  53.615  1.00  0.00    -0.097 Br
ENDBRANCH  26  27
ENDBRANCH  25  26
ENDBRANCH  24  25
ENDBRANCH  22  24
ENDBRANCH   1  22
TORSDOF 5
ENDMDL
MODEL 2
REMARK VINA RESULT:      -7.8      2.770      4.379
REMARK  5 active torsions:
REMARK  status: ('A' for Active; 'I' for Inactive)
REMARK    1  A    between atoms: C2_2  and  C3_3 
REMARK    2  A    between atoms: C2_2  and  C7_8 
REMARK    3  A    between atoms: C3_3  and  C4_4 
REMARK    4  A    between atoms: C4_4  and  C5_5 
REMARK    5  A    between atoms: C5_5  and  C6_6 
ROOT
HETATM    1  C7  UNL     1      25.611   1.251  52.345  1.00  0.00     0.126 C 
HETATM    2  C8  UNL     1      26.851   1.939  51.679  1.00  0.00     0.195 C 
HETATM    3  N1  UNL     1      26.082   2.546  50.626  1.00  0.00    -0.105 NA
HETATM    4  C9  UNL     1      24.940   2.875  50.683  1.00  0.00     0.699 C 
HETATM    5  N2  UNL     1      24.979   3.339  49.307  1.00  0.00    -0.184 N 
HETATM    6  C10 UNL     1      24.841   4.826  49.229  1.00  0.00     0.127 A 
HETATM    7  C11 UNL     1      26.075   5.353  49.349  1.00  0.00     0.149 A 
HETATM    8  F1  UNL     1      27.177   4.707  49.001  1.00  0.00    -0.203 F 
HETATM    9  C12 UNL     1      25.922   6.654  49.881  1.00  0.00     0.087 A 
HETATM   10  C13 UNL     1      24.622   7.105  50.166  1.00  0.00     0.128 A 
HETATM   11  F2  UNL     1      24.421   8.358  50.690  1.00  0.00    -0.205 F 
HETATM   12  C14 UNL     1      23.609   6.215  49.883  1.00  0.00     0.024 A 
HETATM   13  C15 UNL     1      23.497   4.962  49.372  1.00  0.00     0.156 A 
HETATM   14  F3  UNL     1      22.486   4.212  49.057  1.00  0.00    -0.203 F 
HETATM   15  C16 UNL     1      22.354   6.536  50.517  1.00  0.00     0.071 C 
HETATM   16  C17 UNL     1      21.661   5.600  51.409  1.00  0.00     0.172 C 
HETATM   17  O1  UNL     1      22.223   5.010  52.524  1.00  0.00    -0.389 OA
HETATM   18  C18 UNL     1      23.157   4.155  52.113  1.00  0.00     0.188 C 
HETATM   19  C19 UNL     1      23.946   3.183  52.961  1.00  0.00     0.168 C 
HETATM   20  N3  UNL     1      24.793   2.454  52.032  1.00  0.00    -0.207 N 
HETATM   21  H16 UNL     1      25.063   3.143  48.312  1.00  0.00     0.184 HD
ENDROOT
BRANCH   1  22
HETATM   22  C2  UNL     1      25.793   0.924  53.724  1.00  0.00     0.007 C 
HETATM   23  C1  UNL     1      27.181   0.857  54.270  1.00  0.00     0.012 C 
BRANCH  22  24
HETATM   24  C3  UNL     1      25.104  -0.402  54.032  1.00  0.00     0.006 C 
BRANCH  24  25
HETATM   25  C4  UNL     1      23.769  -0.549  53.374  1.00  0.00     0.001 C 
BRANCH  25  26
HETATM   26  C5  UNL     1      22.665  -0.850  54.402  1.00  0.00     0.011 C 
BRANCH  26  27
HETATM   27  C6  UNL     1      21.377  -0.171  54.007  1.00  0.00     0.085 C 
HETATM   28 BR1  UNL     1      21.518   0.347  52.130  1.00  0.00    -0.097 Br
ENDBRANCH  26  27
ENDBRANCH  25  26
ENDBRANCH  24  25
ENDBRANCH  22  24
ENDBRANCH   1  22
TORSDOF 5
ENDMDL
MODEL 3
REMARK VINA RESULT:      -7.6      2.246      2.482
REMARK  5 active torsions:
REMARK  status: ('A' for Active; 'I' for Inactive)
REMARK    1  A    between atoms: C2_2  and  C3_3 
REMARK    2  A    between atoms: C2_2  and  C7_8 
REMARK    3  A    between atoms: C3_3  and  C4_4 
REMARK    4  A    between atoms: C4_4  and  C5_5 
REMARK    5  A    between atoms: C5_5  and  C6_6 
ROOT
HETATM    1  C7  UNL     1      23.656   3.381  52.234  1.00  0.00     0.126 C 
HETATM    2  C8  UNL     1      22.344   4.182  51.926  1.00  0.00     0.195 C 
HETATM    3  N1  UNL     1      23.022   5.445  51.794  1.00  0.00    -0.105 NA
HETATM    4  C9  UNL     1      24.143   5.612  51.438  1.00  0.00     0.699 C 
HETATM    5  N2  UNL     1      24.005   7.050  51.596  1.00  0.00    -0.184 N 
HETATM    6  C10 UNL     1      24.054   7.751  50.275  1.00  0.00     0.127 A 
HETATM    7  C11 UNL     1      22.800   7.772  49.783  1.00  0.00     0.149 A 
HETATM    8  F1  UNL     1      21.720   7.739  50.549  1.00  0.00    -0.203 F 
HETATM    9  C12 UNL     1      22.906   7.844  48.375  1.00  0.00     0.087 A 
HETATM   10  C13 UNL     1      24.191   7.867  47.808  1.00  0.00     0.128 A 
HETATM   11  F2  UNL     1      24.348   7.928  46.445  1.00  0.00    -0.205 F 
HETATM   12  C14 UNL     1      25.238   7.825  48.704  1.00  0.00     0.024 A 
HETATM   13  C15 UNL     1      25.393   7.774  50.052  1.00  0.00     0.156 A 
HETATM   14  F3  UNL     1      26.428   7.820  50.834  1.00  0.00    -0.203 F 
HETATM   15  C16 UNL     1      26.503   7.474  48.109  1.00  0.00     0.071 C 
HETATM   16  C17 UNL     1      27.296   6.326  48.563  1.00  0.00     0.172 C 
HETATM   17  O1  UNL     1      26.827   5.029  48.648  1.00  0.00    -0.389 OA
HETATM   18  C18 UNL     1      25.924   4.978  49.623  1.00  0.00     0.188 C 
HETATM   19  C19 UNL     1      25.238   3.748  50.173  1.00  0.00     0.168 C 
HETATM   20  N3  UNL     1      24.386   4.225  51.249  1.00  0.00    -0.207 N 
HETATM   21  H16 UNL     1      23.880   7.864  52.193  1.00  0.00     0.184 HD
ENDROOT
BRANCH   1  22
HETATM   22  C2  UNL     1      23.566   1.982  51.957  1.00  0.00     0.007 C 
HETATM   23  C1  UNL     1      22.501   1.499  51.030  1.00  0.00     0.012 C 
BRANCH  22  24
HETATM   24  C3  UNL     1      23.434   1.208  53.265  1.00  0.00     0.006 C 
BRANCH  24  25
HETATM   25  C4  UNL     1      23.640  -0.266  53.111  1.00  0.00     0.001 C 
BRANCH  25  26
HETATM   26  C5  UNL     1      22.611  -1.065  53.929  1.00  0.00     0.011 C 
BRANCH  26  27
HETATM   27  C6  UNL     1      21.538  -0.149  54.464  1.00  0.00     0.085 C 
HETATM   28 BR1  UNL     1      19.900  -0.485  53.457  1.00  0.00    -0.097 Br
ENDBRANCH  26  27
ENDBRANCH  25  26
ENDBRANCH  24  25
ENDBRANCH  22  24
ENDBRANCH   1  22
TORSDOF 5
ENDMDL
MODEL 4
REMARK VINA RESULT:      -7.1      1.621      2.073
REMARK  5 active torsions:
REMARK  status: ('A' for Active; 'I' for Inactive)
REMARK    1  A    between atoms: C2_2  and  C3_3 
REMARK    2  A    between atoms: C2_2  and  C7_8 
REMARK    3  A    between atoms: C3_3  and  C4_4 
REMARK    4  A    between atoms: C4_4  and  C5_5 
REMARK    5  A    between atoms: C5_5  and  C6_6 
ROOT
HETATM    1  C7  UNL     1      21.643   2.652  52.378  1.00  0.00     0.126 C 
HETATM    2  C8  UNL     1      20.461   3.501  51.796  1.00  0.00     0.195 C 
HETATM    3  N1  UNL     1      21.229   4.716  51.729  1.00  0.00    -0.105 NA
HETATM    4  C9  UNL     1      22.405   4.802  51.576  1.00  0.00     0.699 C 
HETATM    5  N2  UNL     1      22.332   6.252  51.635  1.00  0.00    -0.184 N 
HETATM    6  C10 UNL     1      22.660   6.869  50.312  1.00  0.00     0.127 A 
HETATM    7  C11 UNL     1      21.520   6.927  49.599  1.00  0.00     0.149 A 
HETATM    8  F1  UNL     1      20.320   6.997  50.155  1.00  0.00    -0.203 F 
HETATM    9  C12 UNL     1      21.881   6.909  48.232  1.00  0.00     0.087 A 
HETATM   10  C13 UNL     1      23.246   6.830  47.909  1.00  0.00     0.128 A 
HETATM   11  F2  UNL     1      23.648   6.802  46.596  1.00  0.00    -0.205 F 
HETATM   12  C14 UNL     1      24.110   6.786  48.982  1.00  0.00     0.024 A 
HETATM   13  C15 UNL     1      24.017   6.808  50.337  1.00  0.00     0.156 A 
HETATM   14  F3  UNL     1      24.895   6.845  51.292  1.00  0.00    -0.203 F 
HETATM   15  C16 UNL     1      25.437   6.334  48.647  1.00  0.00     0.071 C 
HETATM   16  C17 UNL     1      26.061   5.175  49.294  1.00  0.00     0.172 C 
HETATM   17  O1  UNL     1      25.504   3.912  49.355  1.00  0.00    -0.389 OA
HETATM   18  C18 UNL     1      24.439   3.967  50.150  1.00  0.00     0.188 C 
HETATM   19  C19 UNL     1      23.589   2.811  50.625  1.00  0.00     0.168 C 
HETATM   20  N3  UNL     1      22.590   3.396  51.503  1.00  0.00    -0.207 N 
HETATM   21  H16 UNL     1      22.152   7.106  52.158  1.00  0.00     0.184 HD
ENDROOT
BRANCH   1  22
HETATM   22  C2  UNL     1      21.517   1.245  52.159  1.00  0.00     0.007 C 
HETATM   23  C1  UNL     1      20.181   0.693  51.786  1.00  0.00     0.012 C 
BRANCH  22  24
HETATM   24  C3  UNL     1      22.010   0.488  53.388  1.00  0.00     0.006 C 
BRANCH  24  25
HETATM   25  C4  UNL     1      23.169  -0.415  53.108  1.00  0.00     0.001 C 
BRANCH  25  26
HETATM   26  C5  UNL     1      24.509   0.304  53.337  1.00  0.00     0.011 C 
BRANCH  26  27
HETATM   27  C6  UNL     1      25.479  -0.605  54.052  1.00  0.00     0.085 C 
HETATM   28 BR1  UNL     1      26.744  -1.296  52.736  1.00  0.00    -0.097 Br
ENDBRANCH  26  27
ENDBRANCH  25  26
ENDBRANCH  24  25
ENDBRANCH  22  24
ENDBRANCH   1  22
TORSDOF 5
ENDMDL
MODEL 5
REMARK VINA RESULT:      -7.1      4.480      6.138
REMARK  5 active torsions:
REMARK  status: ('A' for Active; 'I' for Inactive)
REMARK    1  A    between atoms: C2_2  and  C3_3 
REMARK    2  A    between atoms: C2_2  and  C7_8 
REMARK    3  A    between atoms: C3_3  and  C4_4 
REMARK    4  A    between atoms: C4_4  and  C5_5 
REMARK    5  A    between atoms: C5_5  and  C6_6 
ROOT
HETATM    1  C7  UNL     1      19.282   1.452  51.808  1.00  0.00     0.126 C 
HETATM    2  C8  UNL     1      19.248   2.577  50.717  1.00  0.00     0.195 C 
HETATM    3  N1  UNL     1      20.330   3.322  51.302  1.00  0.00    -0.105 NA
HETATM    4  C9  UNL     1      21.229   2.881  51.943  1.00  0.00     0.699 C 
HETATM    5  N2  UNL     1      21.790   4.209  52.118  1.00  0.00    -0.184 N 
HETATM    6  C10 UNL     1      23.092   4.351  51.395  1.00  0.00     0.127 A 
HETATM    7  C11 UNL     1      22.813   4.730  50.133  1.00  0.00     0.149 A 
HETATM    8  F1  UNL     1      21.721   5.403  49.803  1.00  0.00    -0.203 F 
HETATM    9  C12 UNL     1      23.880   4.285  49.318  1.00  0.00     0.087 A 
HETATM   10  C13 UNL     1      24.932   3.584  49.930  1.00  0.00     0.128 A 
HETATM   11  F2  UNL     1      25.988   3.125  49.182  1.00  0.00    -0.205 F 
HETATM   12  C14 UNL     1      24.816   3.406  51.292  1.00  0.00     0.024 A 
HETATM   13  C15 UNL     1      23.933   3.739  52.268  1.00  0.00     0.156 A 
HETATM   14  F3  UNL     1      23.935   3.603  53.559  1.00  0.00    -0.203 F 
HETATM   15  C16 UNL     1      25.685   2.386  51.825  1.00  0.00     0.071 C 
HETATM   16  C17 UNL     1      25.177   1.231  52.573  1.00  0.00     0.172 C 
HETATM   17  O1  UNL     1      24.215   0.354  52.112  1.00  0.00    -0.389 OA
HETATM   18  C18 UNL     1      23.057   1.007  52.047  1.00  0.00     0.188 C 
HETATM   19  C19 UNL     1      21.697   0.429  51.728  1.00  0.00     0.168 C 
HETATM   20  N3  UNL     1      20.767   1.542  51.834  1.00  0.00    -0.207 N 
HETATM   21  H16 UNL     1      21.732   5.147  52.508  1.00  0.00     0.184 HD
ENDROOT
BRANCH   1  22
HETATM   22  C2  UNL     1      18.708   0.212  51.389  1.00  0.00     0.007 C 
HETATM   23  C1  UNL     1      17.811   0.202  50.196  1.00  0.00     0.012 C 
BRANCH  22  24
HETATM   24  C3  UNL     1      17.948  -0.420  52.551  1.00  0.00     0.006 C 
BRANCH  24  25
HETATM   25  C4  UNL     1      18.831  -1.134  53.525  1.00  0.00     0.001 C 
BRANCH  25  26
HETATM   26  C5  UNL     1      18.309  -2.550  53.822  1.00  0.00     0.011 C 
BRANCH  26  27
HETATM   27  C6  UNL     1      16.962  -2.762  53.175  1.00  0.00     0.085 C 
HETATM   28 BR1  UNL     1      16.403  -4.598  53.528  1.00  0.00    -0.097 Br
ENDBRANCH  26  27
ENDBRANCH  25  26
ENDBRANCH  24  25
ENDBRANCH  22  24
ENDBRANCH   1  22
TORSDOF 5
ENDMDL
MODEL 6
REMARK VINA RESULT:      -7.0      2.581      3.395
REMARK  5 active torsions:
REMARK  status: ('A' for Active; 'I' for Inactive)
REMARK    1  A    between atoms: C2_2  and  C3_3 
REMARK    2  A    between atoms: C2_2  and  C7_8 
REMARK    3  A    between atoms: C3_3  and  C4_4 
REMARK    4  A    between atoms: C4_4  and  C5_5 
REMARK    5  A    between atoms: C5_5  and  C6_6 
ROOT
HETATM    1  C7  UNL     1      24.619   2.664  52.218  1.00  0.00     0.126 C 
HETATM    2  C8  UNL     1      23.670   1.581  51.599  1.00  0.00     0.195 C 
HETATM    3  N1  UNL     1      22.710   2.543  51.126  1.00  0.00    -0.105 NA
HETATM    4  C9  UNL     1      22.932   3.666  50.805  1.00  0.00     0.699 C 
HETATM    5  N2  UNL     1      21.528   3.884  50.502  1.00  0.00    -0.184 N 
HETATM    6  C10 UNL     1      21.310   4.080  49.035  1.00  0.00     0.127 A 
HETATM    7  C11 UNL     1      21.149   2.861  48.486  1.00  0.00     0.149 A 
HETATM    8  F1  UNL     1      20.684   1.818  49.156  1.00  0.00    -0.203 F 
HETATM    9  C12 UNL     1      21.550   2.958  47.133  1.00  0.00     0.087 A 
HETATM   10  C13 UNL     1      22.011   4.200  46.666  1.00  0.00     0.128 A 
HETATM   11  F2  UNL     1      22.419   4.344  45.363  1.00  0.00    -0.205 F 
HETATM   12  C14 UNL     1      22.014   5.220  47.593  1.00  0.00     0.024 A 
HETATM   13  C15 UNL     1      21.675   5.380  48.898  1.00  0.00     0.156 A 
HETATM   14  F3  UNL     1      21.631   6.408  49.690  1.00  0.00    -0.203 F 
HETATM   15  C16 UNL     1      22.822   6.352  47.215  1.00  0.00     0.071 C 
HETATM   16  C17 UNL     1      23.922   6.849  48.048  1.00  0.00     0.172 C 
HETATM   17  O1  UNL     1      24.978   6.081  48.499  1.00  0.00    -0.389 OA
HETATM   18  C18 UNL     1      24.505   5.208  49.386  1.00  0.00     0.188 C 
HETATM   19  C19 UNL     1      25.302   4.253  50.245  1.00  0.00     0.168 C 
HETATM   20  N3  UNL     1      24.324   3.561  51.068  1.00  0.00    -0.207 N 
HETATM   21  H16 UNL     1      20.562   3.970  50.811  1.00  0.00     0.184 HD
ENDROOT
BRANCH   1  22
HETATM   22  C2  UNL     1      25.971   2.232  52.382  1.00  0.00     0.007 C 
HETATM   23  C1  UNL     1      26.462   1.081  51.568  1.00  0.00     0.012 C 
BRANCH  22  24
HETATM   24  C3  UNL     1      26.234   1.912  53.850  1.00  0.00     0.006 C 
BRANCH  24  25
HETATM   25  C4  UNL     1      26.387   0.449  54.125  1.00  0.00     0.001 C 
BRANCH  25  26
HETATM   26  C5  UNL     1      27.607   0.171  55.020  1.00  0.00     0.011 C 
BRANCH  26  27
HETATM   27  C6  UNL     1      28.869   0.671  54.361  1.00  0.00     0.085 C 
HETATM   28 BR1  UNL     1      29.780  -0.859  53.560  1.00  0.00    -0.097 Br
ENDBRANCH  26  27
ENDBRANCH  25  26
ENDBRANCH  24  25
ENDBRANCH  22  24
ENDBRANCH   1  22
TORSDOF 5
ENDMDL
MODEL 7
REMARK VINA RESULT:      -6.8     10.096     12.420
REMARK  5 active torsions:
REMARK  status: ('A' for Active; 'I' for Inactive)
REMARK    1  A    between atoms: C2_2  and  C3_3 
REMARK    2  A    between atoms: C2_2  and  C7_8 
REMARK    3  A    between atoms: C3_3  and  C4_4 
REMARK    4  A    between atoms: C4_4  and  C5_5 
REMARK    5  A    between atoms: C5_5  and  C6_6 
ROOT
HETATM    1  C7  UNL     1      33.109   5.228  42.537  1.00  0.00     0.126 C 
HETATM    2  C8  UNL     1      33.179   6.780  42.748  1.00  0.00     0.195 C 
HETATM    3  N1  UNL     1      32.710   6.721  44.107  1.00  0.00    -0.105 NA
HETATM    4  C9  UNL     1      32.857   5.820  44.868  1.00  0.00     0.699 C 
HETATM    5  N2  UNL     1      32.130   6.540  45.900  1.00  0.00    -0.184 N 
HETATM    6  C10 UNL     1      33.029   6.929  47.030  1.00  0.00     0.127 A 
HETATM    7  C11 UNL     1      33.583   8.115  46.715  1.00  0.00     0.149 A 
HETATM    8  F1  UNL     1      33.006   8.995  45.911  1.00  0.00    -0.203 F 
HETATM    9  C12 UNL     1      34.818   8.194  47.401  1.00  0.00     0.087 A 
HETATM   10  C13 UNL     1      35.200   7.106  48.203  1.00  0.00     0.128 A 
HETATM   11  F2  UNL     1      36.393   7.130  48.883  1.00  0.00    -0.205 F 
HETATM   12  C14 UNL     1      34.308   6.056  48.246  1.00  0.00     0.024 A 
HETATM   13  C15 UNL     1      33.095   5.757  47.713  1.00  0.00     0.156 A 
HETATM   14  F3  UNL     1      32.271   4.767  47.869  1.00  0.00    -0.203 F 
HETATM   15  C16 UNL     1      34.872   4.829  48.750  1.00  0.00     0.071 C 
HETATM   16  C17 UNL     1      34.864   3.582  47.978  1.00  0.00     0.172 C 
HETATM   17  O1  UNL     1      35.370   3.442  46.701  1.00  0.00    -0.389 OA
HETATM   18  C18 UNL     1      34.594   4.134  45.870  1.00  0.00     0.188 C 
HETATM   19  C19 UNL     1      34.673   4.171  44.361  1.00  0.00     0.168 C 
HETATM   20  N3  UNL     1      33.580   5.031  43.935  1.00  0.00    -0.207 N 
HETATM   21  H16 UNL     1      31.263   6.938  46.254  1.00  0.00     0.184 HD
ENDROOT
BRANCH   1  22
HETATM   22  C2  UNL     1      33.949   4.741  41.488  1.00  0.00     0.007 C 
HETATM   23  C1  UNL     1      34.381   5.686  40.416  1.00  0.00     0.012 C 
BRANCH  22  24
HETATM   24  C3  UNL     1      33.289   3.541  40.817  1.00  0.00     0.006 C 
BRANCH  24  25
HETATM   25  C4  UNL     1      34.195   2.807  39.881  1.00  0.00     0.001 C 
BRANCH  25  26
HETATM   26  C5  UNL     1      33.773   1.335  39.730  1.00  0.00     0.011 C 
BRANCH  26  27
HETATM   27  C6  UNL     1      34.095   0.834  38.344  1.00  0.00     0.085 C 
HETATM   28 BR1  UNL     1      34.547   2.374  37.234  1.00  0.00    -0.097 Br
ENDBRANCH  26  27
ENDBRANCH  25  26
ENDBRANCH  24  25
ENDBRANCH  22  24
ENDBRANCH   1  22
TORSDOF 5
ENDMDL
MODEL 8
REMARK VINA RESULT:      -6.8      3.544      4.490
REMARK  5 active torsions:
REMARK  status: ('A' for Active; 'I' for Inactive)
REMARK    1  A    between atoms: C2_2  and  C3_3 
REMARK    2  A    between atoms: C2_2  and  C7_8 
REMARK    3  A    between atoms: C3_3  and  C4_4 
REMARK    4  A    between atoms: C4_4  and  C5_5 
REMARK    5  A    between atoms: C5_5  and  C6_6 
ROOT
HETATM    1  C7  UNL     1      22.040   0.821  53.408  1.00  0.00     0.126 C 
HETATM    2  C8  UNL     1      20.475   0.880  53.426  1.00  0.00     0.195 C 
HETATM    3  N1  UNL     1      20.415   2.227  52.924  1.00  0.00    -0.105 NA
HETATM    4  C9  UNL     1      21.211   2.753  52.214  1.00  0.00     0.699 C 
HETATM    5  N2  UNL     1      20.437   3.983  52.217  1.00  0.00    -0.184 N 
HETATM    6  C10 UNL     1      19.854   4.264  50.869  1.00  0.00     0.127 A 
HETATM    7  C11 UNL     1      18.672   3.624  50.798  1.00  0.00     0.149 A 
HETATM    8  F1  UNL     1      17.936   3.339  51.862  1.00  0.00    -0.203 F 
HETATM    9  C12 UNL     1      18.421   3.361  49.432  1.00  0.00     0.087 A 
HETATM   10  C13 UNL     1      19.379   3.775  48.491  1.00  0.00     0.128 A 
HETATM   11  F2  UNL     1      19.185   3.537  47.152  1.00  0.00    -0.205 F 
HETATM   12  C14 UNL     1      20.483   4.417  49.009  1.00  0.00     0.024 A 
HETATM   13  C15 UNL     1      20.933   4.792  50.234  1.00  0.00     0.156 A 
HETATM   14  F3  UNL     1      21.961   5.475  50.638  1.00  0.00    -0.203 F 
HETATM   15  C16 UNL     1      21.597   4.492  48.098  1.00  0.00     0.071 C 
HETATM   16  C17 UNL     1      22.921   3.950  48.426  1.00  0.00     0.172 C 
HETATM   17  O1  UNL     1      23.164   2.650  48.822  1.00  0.00    -0.389 OA
HETATM   18  C18 UNL     1      22.633   2.479  50.031  1.00  0.00     0.188 C 
HETATM   19  C19 UNL     1      22.760   1.267  50.924  1.00  0.00     0.168 C 
HETATM   20  N3  UNL     1      22.041   1.603  52.142  1.00  0.00    -0.207 N 
HETATM   21  H16 UNL     1      20.070   4.793  52.712  1.00  0.00     0.184 HD
ENDROOT
BRANCH   1  22
HETATM   22  C2  UNL     1      22.576  -0.503  53.360  1.00  0.00     0.007 C 
HETATM   23  C1  UNL     1      21.722  -1.641  53.812  1.00  0.00     0.012 C 
BRANCH  22  24
HETATM   24  C3  UNL     1      23.882  -0.558  54.146  1.00  0.00     0.006 C 
BRANCH  24  25
HETATM   25  C4  UNL     1      25.096  -0.323  53.303  1.00  0.00     0.001 C 
BRANCH  25  26
HETATM   26  C5  UNL     1      26.046   0.694  53.959  1.00  0.00     0.011 C 
BRANCH  26  27
HETATM   27  C6  UNL     1      25.824   2.070  53.381  1.00  0.00     0.085 C 
HETATM   28 BR1  UNL     1      26.451   2.059  51.532  1.00  0.00    -0.097 Br
ENDBRANCH  26  27
ENDBRANCH  25  26
ENDBRANCH  24  25
ENDBRANCH  22  24
ENDBRANCH   1  22
TORSDOF 5
ENDMDL
MODEL 9
REMARK VINA RESULT:      -6.7      4.133      7.032
REMARK  5 active torsions:
REMARK  status: ('A' for Active; 'I' for Inactive)
REMARK    1  A    between atoms: C2_2  and  C3_3 
REMARK    2  A    between atoms: C2_2  and  C7_8 
REMARK    3  A    between atoms: C3_3  and  C4_4 
REMARK    4  A    between atoms: C4_4  and  C5_5 
REMARK    5  A    between atoms: C5_5  and  C6_6 
ROOT
HETATM    1  C7  UNL     1      23.954   4.086  50.523  1.00  0.00     0.126 C 
HETATM    2  C8  UNL     1      24.070   2.940  51.586  1.00  0.00     0.195 C 
HETATM    3  N1  UNL     1      22.726   3.110  52.069  1.00  0.00    -0.105 NA
HETATM    4  C9  UNL     1      21.795   3.509  51.447  1.00  0.00     0.699 C 
HETATM    5  N2  UNL     1      20.930   3.377  52.606  1.00  0.00    -0.184 N 
HETATM    6  C10 UNL     1      19.911   2.301  52.408  1.00  0.00     0.127 A 
HETATM    7  C11 UNL     1      20.469   1.140  52.801  1.00  0.00     0.149 A 
HETATM    8  F1  UNL     1      21.435   1.068  53.705  1.00  0.00    -0.203 F 
HETATM    9  C12 UNL     1      19.823   0.104  52.087  1.00  0.00     0.087 A 
HETATM   10  C13 UNL     1      18.816   0.457  51.174  1.00  0.00     0.128 A 
HETATM   11  F2  UNL     1      18.163  -0.511  50.451  1.00  0.00    -0.205 F 
HETATM   12  C14 UNL     1      18.550   1.806  51.075  1.00  0.00     0.024 A 
HETATM   13  C15 UNL     1      19.000   2.954  51.642  1.00  0.00     0.156 A 
HETATM   14  F3  UNL     1      18.637   4.198  51.552  1.00  0.00    -0.203 F 
HETATM   15  C16 UNL     1      17.805   2.170  49.895  1.00  0.00     0.071 C 
HETATM   16  C17 UNL     1      18.302   3.148  48.921  1.00  0.00     0.172 C 
HETATM   17  O1  UNL     1      19.526   3.075  48.285  1.00  0.00    -0.389 OA
HETATM   18  C18 UNL     1      20.477   3.278  49.194  1.00  0.00     0.188 C 
HETATM   19  C19 UNL     1      21.962   3.423  48.949  1.00  0.00     0.168 C 
HETATM   20  N3  UNL     1      22.549   3.675  50.254  1.00  0.00    -0.207 N 
HETATM   21  H16 UNL     1      20.661   3.668  53.544  1.00  0.00     0.184 HD
ENDROOT
BRANCH   1  22
HETATM   22  C2  UNL     1      24.885   3.980  49.444  1.00  0.00     0.007 C 
HETATM   23  C1  UNL     1      26.186   3.288  49.682  1.00  0.00     0.012 C 
BRANCH  22  24
HETATM   24  C3  UNL     1      25.188   5.368  48.888  1.00  0.00     0.006 C 
BRANCH  24  25
HETATM   25  C4  UNL     1      26.628   5.755  49.000  1.00  0.00     0.001 C 
BRANCH  25  26
HETATM   26  C5  UNL     1      26.970   6.924  48.061  1.00  0.00     0.011 C 
BRANCH  26  27
HETATM   27  C6  UNL     1      28.411   7.336  48.235  1.00  0.00     0.085 C 
HETATM   28 BR1  UNL     1      29.515   5.729  48.145  1.00  0.00    -0.097 Br
ENDBRANCH  26  27
ENDBRANCH  25  26
ENDBRANCH  24  25
ENDBRANCH  22  24
ENDBRANCH   1  22
TORSDOF 5
ENDMDL
