MODEL 1
REMARK VINA RESULT:     -10.0      0.000      0.000
REMARK  3 active torsions:
REMARK  status: ('A' for Active; 'I' for Inactive)
REMARK    1  A    between atoms: O1_2  and  C2_3 
REMARK    2  A    between atoms: C9_10  and  C10_11 
REMARK    3  A    between atoms: N1_20  and  C20_23 
ROOT
HETATM    1  C2  UNL     1      21.801  -0.055  53.200  1.00  0.00     0.080 A 
HETATM    2  C3  UNL     1      20.903   0.885  52.973  1.00  0.00     0.038 A 
HETATM    3  C4  UNL     1      21.019   2.207  52.588  1.00  0.00     0.017 A 
HETATM    4  C5  UNL     1      22.268   2.725  52.386  1.00  0.00     0.004 A 
HETATM    5  C6  UNL     1      22.807   1.528  52.699  1.00  0.00     0.056 A 
HETATM    6  C7  UNL     1      23.244   0.209  53.055  1.00  0.00     0.025 A 
HETATM    7  C8  UNL     1      24.649  -0.095  53.186  1.00  0.00     0.024 C 
HETATM    8  C9  UNL     1      25.352   0.964  53.366  1.00  0.00    -0.046 C 
HETATM    9  C16 UNL     1      25.359   2.496  53.378  1.00  0.00     0.059 C 
HETATM   10  C17 UNL     1      24.180   3.122  52.742  1.00  0.00     0.122 A 
HETATM   11  C18 UNL     1      24.309   3.269  51.180  1.00  0.00     0.398 A 
HETATM   12  N1  UNL     1      25.168   3.290  50.133  1.00  0.00     0.218 N 
HETATM   13  C19 UNL     1      26.471   3.160  50.108  1.00  0.00     0.534 A 
HETATM   14  N2  UNL     1      25.077   3.278  50.340  1.00  0.00     0.218 N 
HETATM   15  C20 UNL     1      24.639   3.201  51.529  1.00  0.00     0.445 A 
HETATM   16  O2  UNL     1      23.354   3.399  52.149  1.00  0.00     0.000 OA
HETATM   17  C21 UNL     1      22.959   3.076  50.213  1.00  0.00     0.066 C 
HETATM   18  C22 UNL     1      22.934   1.781  50.658  1.00  0.00     0.089 C 
HETATM   19  N3  UNL     1      23.802   1.153  51.571  1.00  0.00    -0.365 N 
HETATM   20  H17 UNL     1      24.516   0.860  50.925  1.00  0.00     0.165 HD
ENDROOT
BRANCH   8  21
HETATM   21  C10 UNL     1      26.687   0.339  53.486  1.00  0.00    -0.030 A 
HETATM   22  C11 UNL     1      27.060  -0.874  52.889  1.00  0.00     0.012 A 
HETATM   23  C12 UNL     1      28.349  -1.435  53.053  1.00  0.00     0.001 A 
HETATM   24  C13 UNL     1      29.288  -0.803  53.814  1.00  0.00     0.000 A 
HETATM   25  C14 UNL     1      28.954   0.389  54.414  1.00  0.00     0.001 A 
HETATM   26  C15 UNL     1      27.677   0.881  54.212  1.00  0.00     0.012 A 
ENDBRANCH   8  21
BRANCH   1  27
HETATM   27  O1  UNL     1      21.885  -1.389  53.584  1.00  0.00    -0.355 OA
HETATM   28  C1  UNL     1      21.883  -1.893  54.863  1.00  0.00     0.210 C 
ENDBRANCH   1  27
TORSDOF 3
ENDMDL
MODEL 2
REMARK VINA RESULT:      -9.6      2.276      4.913
REMARK  3 active torsions:
REMARK  status: ('A' for Active; 'I' for Inactive)
REMARK    1  A    between atoms: O1_2  and  C2_3 
REMARK    2  A    between atoms: C9_10  and  C10_11 
REMARK    3  A    between atoms: N1_20  and  C20_23 
ROOT
HETATM    1  C2  UNL     1      26.610   2.592  51.152  1.00  0.00     0.080 A 
HETATM    2  C3  UNL     1      26.708   3.427  50.135  1.00  0.00     0.038 A 
HETATM    3  C4  UNL     1      25.757   4.021  49.326  1.00  0.00     0.017 A 
HETATM    4  C5  UNL     1      24.438   3.744  49.551  1.00  0.00     0.004 A 
HETATM    5  C6  UNL     1      24.790   2.939  50.576  1.00  0.00     0.056 A 
HETATM    6  C7  UNL     1      25.301   2.116  51.633  1.00  0.00     0.025 A 
HETATM    7  C8  UNL     1      24.419   1.284  52.417  1.00  0.00     0.024 C 
HETATM    8  C9  UNL     1      23.309   1.062  51.810  1.00  0.00    -0.046 C 
HETATM    9  C16 UNL     1      22.424   1.418  50.612  1.00  0.00     0.059 C 
HETATM   10  C17 UNL     1      22.815   2.656  49.904  1.00  0.00     0.122 A 
HETATM   11  C18 UNL     1      22.232   3.966  50.552  1.00  0.00     0.398 A 
HETATM   12  N1  UNL     1      21.285   4.470  51.378  1.00  0.00     0.218 N 
HETATM   13  C19 UNL     1      20.342   3.860  52.052  1.00  0.00     0.534 A 
HETATM   14  N2  UNL     1      21.416   4.332  51.255  1.00  0.00     0.218 N 
HETATM   15  C20 UNL     1      22.104   3.499  50.589  1.00  0.00     0.445 A 
HETATM   16  O2  UNL     1      23.146   3.609  49.600  1.00  0.00     0.000 OA
HETATM   17  C21 UNL     1      23.144   5.367  50.559  1.00  0.00     0.066 C 
HETATM   18  C22 UNL     1      24.024   4.686  51.357  1.00  0.00     0.089 C 
HETATM   19  N3  UNL     1      23.945   3.355  51.808  1.00  0.00    -0.365 N 
HETATM   20  H17 UNL     1      23.394   3.507  52.637  1.00  0.00     0.165 HD
ENDROOT
BRANCH   8  21
HETATM   21  C10 UNL     1      22.664   0.194  52.819  1.00  0.00    -0.030 A 
HETATM   22  C11 UNL     1      23.335  -0.451  53.869  1.00  0.00     0.012 A 
HETATM   23  C12 UNL     1      22.668  -1.285  54.796  1.00  0.00     0.001 A 
HETATM   24  C13 UNL     1      21.325  -1.497  54.697  1.00  0.00     0.000 A 
HETATM   25  C14 UNL     1      20.636  -0.881  53.678  1.00  0.00     0.001 A 
HETATM   26  C15 UNL     1      21.350  -0.077  52.806  1.00  0.00     0.012 A 
ENDBRANCH   8  21
BRANCH   1  27
HETATM   27  O1  UNL     1      27.412   1.903  52.056  1.00  0.00    -0.355 OA
HETATM   28  C1  UNL     1      27.937   2.374  53.236  1.00  0.00     0.210 C 
ENDBRANCH   1  27
TORSDOF 3
ENDMDL
MODEL 3
REMARK VINA RESULT:      -9.5      6.208      9.740
REMARK  3 active torsions:
REMARK  status: ('A' for Active; 'I' for Inactive)
REMARK    1  A    between atoms: O1_2  and  C2_3 
REMARK    2  A    between atoms: C9_10  and  C10_11 
REMARK    3  A    between atoms: N1_20  and  C20_23 
ROOT
HETATM    1  C2  UNL     1      31.937   5.504  47.682  1.00  0.00     0.080 A 
HETATM    2  C3  UNL     1      32.672   6.504  47.231  1.00  0.00     0.038 A 
HETATM    3  C4  UNL     1      32.394   7.842  47.027  1.00  0.00     0.017 A 
HETATM    4  C5  UNL     1      31.142   8.304  47.319  1.00  0.00     0.004 A 
HETATM    5  C6  UNL     1      30.782   7.063  47.708  1.00  0.00     0.056 A 
HETATM    6  C7  UNL     1      30.534   5.702  48.086  1.00  0.00     0.025 A 
HETATM    7  C8  UNL     1      29.215   5.273  48.485  1.00  0.00     0.024 C 
HETATM    8  C9  UNL     1      28.305   6.076  48.067  1.00  0.00    -0.046 C 
HETATM    9  C16 UNL     1      28.009   7.424  47.401  1.00  0.00     0.059 C 
HETATM   10  C17 UNL     1      29.157   8.355  47.361  1.00  0.00     0.122 A 
HETATM   11  C18 UNL     1      29.334   9.197  48.680  1.00  0.00     0.398 A 
HETATM   12  N1  UNL     1      28.725   9.639  49.806  1.00  0.00     0.218 N 
HETATM   13  C19 UNL     1      27.504   9.443  50.237  1.00  0.00     0.534 A 
HETATM   14  N2  UNL     1      28.771   9.539  49.608  1.00  0.00     0.218 N 
HETATM   15  C20 UNL     1      28.956   8.952  48.497  1.00  0.00     0.445 A 
HETATM   16  O2  UNL     1      30.023   8.932  47.529  1.00  0.00     0.000 OA
HETATM   17  C21 UNL     1      30.868   9.570  49.229  1.00  0.00     0.066 C 
HETATM   18  C22 UNL     1      31.041   8.221  49.394  1.00  0.00     0.089 C 
HETATM   19  N3  UNL     1      30.133   7.183  49.112  1.00  0.00    -0.365 N 
HETATM   20  H17 UNL     1      29.638   7.172  49.988  1.00  0.00     0.165 HD
ENDROOT
BRANCH   8  21
HETATM   21  C10 UNL     1      27.115   5.373  48.593  1.00  0.00    -0.030 A 
HETATM   22  C11 UNL     1      25.827   5.925  48.672  1.00  0.00     0.012 A 
HETATM   23  C12 UNL     1      24.727   5.209  49.202  1.00  0.00     0.001 A 
HETATM   24  C13 UNL     1      24.886   3.937  49.666  1.00  0.00     0.000 A 
HETATM   25  C14 UNL     1      26.137   3.366  49.604  1.00  0.00     0.001 A 
HETATM   26  C15 UNL     1      27.168   4.121  49.073  1.00  0.00     0.012 A 
ENDBRANCH   8  21
BRANCH   1  27
HETATM   27  O1  UNL     1      32.026   4.141  47.945  1.00  0.00    -0.355 OA
HETATM   28  C1  UNL     1      32.633   3.178  47.176  1.00  0.00     0.210 C 
ENDBRANCH   1  27
TORSDOF 3
ENDMDL
MODEL 4
REMARK VINA RESULT:      -9.1      2.088      5.373
REMARK  3 active torsions:
REMARK  status: ('A' for Active; 'I' for Inactive)
REMARK    1  A    between atoms: O1_2  and  C2_3 
REMARK    2  A    between atoms: C9_10  and  C10_11 
REMARK    3  A    between atoms: N1_20  and  C20_23 
ROOT
HETATM    1  C2  UNL     1      25.067   0.073  53.103  1.00  0.00     0.080 A 
HETATM    2  C3  UNL     1      26.043   0.772  52.553  1.00  0.00     0.038 A 
HETATM    3  C4  UNL     1      26.043   1.805  51.636  1.00  0.00     0.017 A 
HETATM    4  C5  UNL     1      24.846   2.250  51.149  1.00  0.00     0.004 A 
HETATM    5  C6  UNL     1      24.205   1.342  51.915  1.00  0.00     0.056 A 
HETATM    6  C7  UNL     1      23.655   0.334  52.773  1.00  0.00     0.025 A 
HETATM    7  C8  UNL     1      22.238   0.056  52.777  1.00  0.00     0.024 C 
HETATM    8  C9  UNL     1      21.668   0.471  51.703  1.00  0.00    -0.046 C 
HETATM    9  C16 UNL     1      21.827   1.282  50.414  1.00  0.00     0.059 C 
HETATM   10  C17 UNL     1      23.017   2.158  50.380  1.00  0.00     0.122 A 
HETATM   11  C18 UNL     1      22.794   3.555  51.071  1.00  0.00     0.398 A 
HETATM   12  N1  UNL     1      21.870   4.448  51.499  1.00  0.00     0.218 N 
HETATM   13  C19 UNL     1      20.562   4.396  51.453  1.00  0.00     0.534 A 
HETATM   14  N2  UNL     1      21.973   4.266  51.411  1.00  0.00     0.218 N 
HETATM   15  C20 UNL     1      22.484   3.222  50.900  1.00  0.00     0.445 A 
HETATM   16  O2  UNL     1      23.824   2.809  50.571  1.00  0.00     0.000 OA
HETATM   17  C21 UNL     1      24.043   4.271  51.921  1.00  0.00     0.066 C 
HETATM   18  C22 UNL     1      23.961   3.201  52.772  1.00  0.00     0.089 C 
HETATM   19  N3  UNL     1      23.097   2.091  52.700  1.00  0.00    -0.365 N 
HETATM   20  H17 UNL     1      22.311   2.477  53.196  1.00  0.00     0.165 HD
ENDROOT
BRANCH   8  21
HETATM   21  C10 UNL     1      20.286   0.031  51.991  1.00  0.00    -0.030 A 
HETATM   22  C11 UNL     1      19.891  -0.674  53.138  1.00  0.00     0.012 A 
HETATM   23  C12 UNL     1      18.554  -1.085  53.352  1.00  0.00     0.001 A 
HETATM   24  C13 UNL     1      17.587  -0.808  52.432  1.00  0.00     0.000 A 
HETATM   25  C14 UNL     1      17.941  -0.119  51.295  1.00  0.00     0.001 A 
HETATM   26  C15 UNL     1      19.265   0.254  51.148  1.00  0.00     0.012 A 
ENDBRANCH   8  21
BRANCH   1  27
HETATM   27  O1  UNL     1      24.868  -0.967  54.005  1.00  0.00    -0.355 OA
HETATM   28  C1  UNL     1      24.862  -0.894  55.377  1.00  0.00     0.210 C 
ENDBRANCH   1  27
TORSDOF 3
ENDMDL
MODEL 5
REMARK VINA RESULT:      -9.1      2.012      4.278
REMARK  3 active torsions:
REMARK  status: ('A' for Active; 'I' for Inactive)
REMARK    1  A    between atoms: O1_2  and  C2_3 
REMARK    2  A    between atoms: C9_10  and  C10_11 
REMARK    3  A    between atoms: N1_20  and  C20_23 
ROOT
HETATM    1  C2  UNL     1      23.674  -0.228  53.499  1.00  0.00     0.080 A 
HETATM    2  C3  UNL     1      22.534  -0.529  54.090  1.00  0.00     0.038 A 
HETATM    3  C4  UNL     1      21.266   0.013  53.994  1.00  0.00     0.017 A 
HETATM    4  C5  UNL     1      21.067   1.070  53.151  1.00  0.00     0.004 A 
HETATM    5  C6  UNL     1      22.370   1.028  52.802  1.00  0.00     0.056 A 
HETATM    6  C7  UNL     1      23.768   0.873  52.524  1.00  0.00     0.025 A 
HETATM    7  C8  UNL     1      24.460   1.804  51.664  1.00  0.00     0.024 C 
HETATM    8  C9  UNL     1      23.829   2.918  51.562  1.00  0.00    -0.046 C 
HETATM    9  C16 UNL     1      22.536   3.678  51.873  1.00  0.00     0.059 C 
HETATM   10  C17 UNL     1      21.400   2.821  52.276  1.00  0.00     0.122 A 
HETATM   11  C18 UNL     1      20.598   2.223  51.061  1.00  0.00     0.398 A 
HETATM   12  N1  UNL     1      20.330   2.344  49.739  1.00  0.00     0.218 N 
HETATM   13  C19 UNL     1      20.776   3.210  48.864  1.00  0.00     0.534 A 
HETATM   14  N2  UNL     1      20.411   2.373  49.949  1.00  0.00     0.218 N 
HETATM   15  C20 UNL     1      20.903   2.599  51.097  1.00  0.00     0.445 A 
HETATM   16  O2  UNL     1      20.675   2.069  52.418  1.00  0.00     0.000 OA
HETATM   17  C21 UNL     1      19.961   0.681  51.164  1.00  0.00     0.066 C 
HETATM   18  C22 UNL     1      21.257   0.247  51.252  1.00  0.00     0.089 C 
HETATM   19  N3  UNL     1      22.438   1.013  51.252  1.00  0.00    -0.365 N 
HETATM   20  H17 UNL     1      22.581   1.071  50.258  1.00  0.00     0.165 HD
ENDROOT
BRANCH   8  21
HETATM   21  C10 UNL     1      24.770   3.636  50.676  1.00  0.00    -0.030 A 
HETATM   22  C11 UNL     1      25.977   3.109  50.192  1.00  0.00     0.012 A 
HETATM   23  C12 UNL     1      26.848   3.850  49.358  1.00  0.00     0.001 A 
HETATM   24  C13 UNL     1      26.539   5.126  48.993  1.00  0.00     0.000 A 
HETATM   25  C14 UNL     1      25.363   5.674  49.451  1.00  0.00     0.001 A 
HETATM   26  C15 UNL     1      24.557   4.895  50.262  1.00  0.00     0.012 A 
ENDBRANCH   8  21
BRANCH   1  27
HETATM   27  O1  UNL     1      25.005  -0.632  53.464  1.00  0.00    -0.355 OA
HETATM   28  C1  UNL     1      26.011  -0.274  54.330  1.00  0.00     0.210 C 
ENDBRANCH   1  27
TORSDOF 3
ENDMDL
MODEL 6
REMARK VINA RESULT:      -8.8      1.867      4.257
REMARK  3 active torsions:
REMARK  status: ('A' for Active; 'I' for Inactive)
REMARK    1  A    between atoms: O1_2  and  C2_3 
REMARK    2  A    between atoms: C9_10  and  C10_11 
REMARK    3  A    between atoms: N1_20  and  C20_23 
ROOT
HETATM    1  C2  UNL     1      22.391   2.634  51.004  1.00  0.00     0.080 A 
HETATM    2  C3  UNL     1      21.277   1.995  50.704  1.00  0.00     0.038 A 
HETATM    3  C4  UNL     1      20.800   0.745  51.052  1.00  0.00     0.017 A 
HETATM    4  C5  UNL     1      21.568  -0.049  51.856  1.00  0.00     0.004 A 
HETATM    5  C6  UNL     1      22.507   0.919  51.905  1.00  0.00     0.056 A 
HETATM    6  C7  UNL     1      23.418   2.025  51.868  1.00  0.00     0.025 A 
HETATM    7  C8  UNL     1      24.716   1.937  52.494  1.00  0.00     0.024 C 
HETATM    8  C9  UNL     1      25.077   0.717  52.672  1.00  0.00    -0.046 C 
HETATM    9  C16 UNL     1      24.653  -0.753  52.617  1.00  0.00     0.059 C 
HETATM   10  C17 UNL     1      23.193  -0.969  52.531  1.00  0.00     0.122 A 
HETATM   11  C18 UNL     1      22.468  -0.952  53.928  1.00  0.00     0.398 A 
HETATM   12  N1  UNL     1      22.633  -1.067  55.267  1.00  0.00     0.218 N 
HETATM   13  C19 UNL     1      23.719  -1.277  55.968  1.00  0.00     0.534 A 
HETATM   14  N2  UNL     1      22.667  -1.058  55.043  1.00  0.00     0.218 N 
HETATM   15  C20 UNL     1      22.932  -1.015  53.802  1.00  0.00     0.445 A 
HETATM   16  O2  UNL     1      22.141  -0.948  52.600  1.00  0.00     0.000 OA
HETATM   17  C21 UNL     1      20.935  -0.299  54.060  1.00  0.00     0.066 C 
HETATM   18  C22 UNL     1      21.507   0.894  53.707  1.00  0.00     0.089 C 
HETATM   19  N3  UNL     1      22.855   1.158  53.397  1.00  0.00    -0.365 N 
HETATM   20  H17 UNL     1      23.194   1.333  54.328  1.00  0.00     0.165 HD
ENDROOT
BRANCH   8  21
HETATM   21  C10 UNL     1      26.404   0.956  53.280  1.00  0.00    -0.030 A 
HETATM   22  C11 UNL     1      27.220   2.066  53.015  1.00  0.00     0.012 A 
HETATM   23  C12 UNL     1      28.491   2.234  53.615  1.00  0.00     0.001 A 
HETATM   24  C13 UNL     1      28.975   1.303  54.485  1.00  0.00     0.000 A 
HETATM   25  C14 UNL     1      28.200   0.201  54.767  1.00  0.00     0.001 A 
HETATM   26  C15 UNL     1      26.968   0.099  54.146  1.00  0.00     0.012 A 
ENDBRANCH   8  21
BRANCH   1  27
HETATM   27  O1  UNL     1      23.033   3.844  50.761  1.00  0.00    -0.355 OA
HETATM   28  C1  UNL     1      23.657   4.242  49.603  1.00  0.00     0.210 C 
ENDBRANCH   1  27
TORSDOF 3
ENDMDL
MODEL 7
REMARK VINA RESULT:      -8.5      2.755      5.363
REMARK  3 active torsions:
REMARK  status: ('A' for Active; 'I' for Inactive)
REMARK    1  A    between atoms: O1_2  and  C2_3 
REMARK    2  A    between atoms: C9_10  and  C10_11 
REMARK    3  A    between atoms: N1_20  and  C20_23 
ROOT
HETATM    1  C2  UNL     1      25.307   1.740  51.654  1.00  0.00     0.080 A 
HETATM    2  C3  UNL     1      24.141   1.499  52.223  1.00  0.00     0.038 A 
HETATM    3  C4  UNL     1      22.916   2.134  52.136  1.00  0.00     0.017 A 
HETATM    4  C5  UNL     1      22.802   3.233  51.332  1.00  0.00     0.004 A 
HETATM    5  C6  UNL     1      24.103   3.112  50.993  1.00  0.00     0.056 A 
HETATM    6  C7  UNL     1      25.490   2.868  50.723  1.00  0.00     0.025 A 
HETATM    7  C8  UNL     1      26.256   3.779  49.906  1.00  0.00     0.024 C 
HETATM    8  C9  UNL     1      25.707   4.938  49.841  1.00  0.00    -0.046 C 
HETATM    9  C16 UNL     1      24.468   5.776  50.169  1.00  0.00     0.059 C 
HETATM   10  C17 UNL     1      23.270   4.987  50.528  1.00  0.00     0.122 A 
HETATM   11  C18 UNL     1      22.441   4.495  49.284  1.00  0.00     0.398 A 
HETATM   12  N1  UNL     1      22.198   4.684  47.965  1.00  0.00     0.218 N 
HETATM   13  C19 UNL     1      22.715   5.548  47.128  1.00  0.00     0.534 A 
HETATM   14  N2  UNL     1      22.279   4.699  48.177  1.00  0.00     0.218 N 
HETATM   15  C20 UNL     1      22.772   4.846  49.338  1.00  0.00     0.445 A 
HETATM   16  O2  UNL     1      22.492   4.284  50.634  1.00  0.00     0.000 OA
HETATM   17  C21 UNL     1      21.696   2.999  49.322  1.00  0.00     0.066 C 
HETATM   18  C22 UNL     1      22.956   2.470  49.405  1.00  0.00     0.089 C 
HETATM   19  N3  UNL     1      24.188   3.150  49.445  1.00  0.00    -0.365 N 
HETATM   20  H17 UNL     1      24.348   3.235  48.455  1.00  0.00     0.165 HD
ENDROOT
BRANCH   8  21
HETATM   21  C10 UNL     1      26.707   5.620  48.991  1.00  0.00    -0.030 A 
HETATM   22  C11 UNL     1      27.981   5.115  48.690  1.00  0.00     0.012 A 
HETATM   23  C12 UNL     1      28.905   5.821  47.883  1.00  0.00     0.001 A 
HETATM   24  C13 UNL     1      28.583   7.040  47.364  1.00  0.00     0.000 A 
HETATM   25  C14 UNL     1      27.341   7.564  47.641  1.00  0.00     0.001 A 
HETATM   26  C15 UNL     1      26.486   6.821  48.436  1.00  0.00     0.012 A 
ENDBRANCH   8  21
BRANCH   1  27
HETATM   27  O1  UNL     1      26.606   1.244  51.616  1.00  0.00    -0.355 OA
HETATM   28  C1  UNL     1      27.484   1.118  52.666  1.00  0.00     0.210 C 
ENDBRANCH   1  27
TORSDOF 3
ENDMDL
MODEL 8
REMARK VINA RESULT:      -8.4      7.257      9.892
REMARK  3 active torsions:
REMARK  status: ('A' for Active; 'I' for Inactive)
REMARK    1  A    between atoms: O1_2  and  C2_3 
REMARK    2  A    between atoms: C9_10  and  C10_11 
REMARK    3  A    between atoms: N1_20  and  C20_23 
ROOT
HETATM    1  C2  UNL     1      27.746   6.974  48.616  1.00  0.00     0.080 A 
HETATM    2  C3  UNL     1      27.436   8.148  49.132  1.00  0.00     0.038 A 
HETATM    3  C4  UNL     1      28.206   9.243  49.477  1.00  0.00     0.017 A 
HETATM    4  C5  UNL     1      29.557   9.183  49.282  1.00  0.00     0.004 A 
HETATM    5  C6  UNL     1      29.423   7.934  48.788  1.00  0.00     0.056 A 
HETATM    6  C7  UNL     1      29.138   6.620  48.290  1.00  0.00     0.025 A 
HETATM    7  C8  UNL     1      30.205   5.727  47.903  1.00  0.00     0.024 C 
HETATM    8  C9  UNL     1      31.325   6.064  48.434  1.00  0.00    -0.046 C 
HETATM    9  C16 UNL     1      32.080   7.126  49.239  1.00  0.00     0.059 C 
HETATM   10  C17 UNL     1      31.396   8.435  49.324  1.00  0.00     0.122 A 
HETATM   11  C18 UNL     1      31.669   9.371  48.088  1.00  0.00     0.398 A 
HETATM   12  N1  UNL     1      32.486   9.613  47.036  1.00  0.00     0.218 N 
HETATM   13  C19 UNL     1      33.558   8.975  46.636  1.00  0.00     0.534 A 
HETATM   14  N2  UNL     1      32.389   9.525  47.221  1.00  0.00     0.218 N 
HETATM   15  C20 UNL     1      31.903   8.983  48.261  1.00  0.00     0.445 A 
HETATM   16  O2  UNL     1      30.846   9.322  49.179  1.00  0.00     0.000 OA
HETATM   17  C21 UNL     1      30.454  10.368  47.517  1.00  0.00     0.066 C 
HETATM   18  C22 UNL     1      29.773   9.219  47.215  1.00  0.00     0.089 C 
HETATM   19  N3  UNL     1      30.170   7.885  47.430  1.00  0.00    -0.365 N 
HETATM   20  H17 UNL     1      30.685   7.741  46.577  1.00  0.00     0.165 HD
ENDROOT
BRANCH   8  21
HETATM   21  C10 UNL     1      32.174   4.983  47.889  1.00  0.00    -0.030 A 
HETATM   22  C11 UNL     1      33.563   4.890  48.061  1.00  0.00     0.012 A 
HETATM   23  C12 UNL     1      34.328   3.840  47.501  1.00  0.00     0.001 A 
HETATM   24  C13 UNL     1      33.729   2.865  46.759  1.00  0.00     0.000 A 
HETATM   25  C14 UNL     1      32.368   2.926  46.571  1.00  0.00     0.001 A 
HETATM   26  C15 UNL     1      31.680   3.980  47.146  1.00  0.00     0.012 A 
ENDBRANCH   8  21
BRANCH   1  27
HETATM   27  O1  UNL     1      27.144   5.785  48.217  1.00  0.00    -0.355 OA
HETATM   28  C1  UNL     1      26.836   4.699  49.002  1.00  0.00     0.210 C 
ENDBRANCH   1  27
TORSDOF 3
ENDMDL
MODEL 9
REMARK VINA RESULT:      -8.3      2.484      5.186
REMARK  3 active torsions:
REMARK  status: ('A' for Active; 'I' for Inactive)
REMARK    1  A    between atoms: O1_2  and  C2_3 
REMARK    2  A    between atoms: C9_10  and  C10_11 
REMARK    3  A    between atoms: N1_20  and  C20_23 
ROOT
HETATM    1  C2  UNL     1      25.055   5.389  49.073  1.00  0.00     0.080 A 
HETATM    2  C3  UNL     1      24.208   6.010  48.275  1.00  0.00     0.038 A 
HETATM    3  C4  UNL     1      22.854   5.849  48.049  1.00  0.00     0.017 A 
HETATM    4  C5  UNL     1      22.185   4.879  48.741  1.00  0.00     0.004 A 
HETATM    5  C6  UNL     1      23.333   4.544  49.367  1.00  0.00     0.056 A 
HETATM    6  C7  UNL     1      24.616   4.291  49.954  1.00  0.00     0.025 A 
HETATM    7  C8  UNL     1      24.810   3.188  50.865  1.00  0.00     0.024 C 
HETATM    8  C9  UNL     1      23.894   2.298  50.738  1.00  0.00    -0.046 C 
HETATM    9  C16 UNL     1      22.551   1.941  50.094  1.00  0.00     0.059 C 
HETATM   10  C17 UNL     1      21.817   3.092  49.524  1.00  0.00     0.122 A 
HETATM   11  C18 UNL     1      20.950   3.874  50.580  1.00  0.00     0.398 A 
HETATM   12  N1  UNL     1      20.362   3.813  51.798  1.00  0.00     0.218 N 
HETATM   13  C19 UNL     1      20.339   2.843  52.677  1.00  0.00     0.534 A 
HETATM   14  N2  UNL     1      20.477   3.765  51.609  1.00  0.00     0.218 N 
HETATM   15  C20 UNL     1      21.140   3.427  50.581  1.00  0.00     0.445 A 
HETATM   16  O2  UNL     1      21.378   4.021  49.290  1.00  0.00     0.000 OA
HETATM   17  C21 UNL     1      20.800   5.535  50.465  1.00  0.00     0.066 C 
HETATM   18  C22 UNL     1      22.149   5.585  50.696  1.00  0.00     0.089 C 
HETATM   19  N3  UNL     1      23.042   4.514  50.891  1.00  0.00    -0.365 N 
HETATM   20  H17 UNL     1      22.931   4.402  51.885  1.00  0.00     0.165 HD
ENDROOT
BRANCH   8  21
HETATM   21  C10 UNL     1      24.372   1.329  51.747  1.00  0.00    -0.030 A 
HETATM   22  C11 UNL     1      23.552   0.659  52.668  1.00  0.00     0.012 A 
HETATM   23  C12 UNL     1      24.068  -0.247  53.624  1.00  0.00     0.001 A 
HETATM   24  C13 UNL     1      25.405  -0.504  53.685  1.00  0.00     0.000 A 
HETATM   25  C14 UNL     1      26.238   0.136  52.797  1.00  0.00     0.001 A 
HETATM   26  C15 UNL     1      25.668   1.010  51.888  1.00  0.00     0.012 A 
ENDBRANCH   8  21
BRANCH   1  27
HETATM   27  O1  UNL     1      26.400   5.398  49.428  1.00  0.00    -0.355 OA
HETATM   28  C1  UNL     1      27.438   4.763  48.789  1.00  0.00     0.210 C 
ENDBRANCH   1  27
TORSDOF 3
ENDMDL
