MODEL 1
REMARK VINA RESULT:      -7.6      0.000      0.000
REMARK  5 active torsions:
REMARK  status: ('A' for Active; 'I' for Inactive)
REMARK    1  A    between atoms: C5_7  and  O1_8 
REMARK    2  A    between atoms: O1_8  and  C6_9 
REMARK    3  A    between atoms: C6_9  and  C7_10 
REMARK    4  A    between atoms: C9_13  and  N3_14 
REMARK    5  A    between atoms: N3_14  and  C10_15 
ROOT
HETATM    1  N1  UNL     1      27.772  -0.031  54.979  1.00  0.00    -0.192 NA
HETATM    2  C1  UNL     1      27.237   0.589  54.178  1.00  0.00     0.098 C 
HETATM    3  C2  UNL     1      26.548   1.353  53.186  1.00  0.00     0.060 C 
HETATM    4  C3  UNL     1      27.337   2.142  52.436  1.00  0.00     0.108 C 
HETATM    5  N2  UNL     1      26.865   2.995  51.380  1.00  0.00    -0.366 N 
HETATM    6  C4  UNL     1      25.455   3.022  51.085  1.00  0.00     0.033 C 
HETATM    7  C5  UNL     1      24.907   4.077  50.560  1.00  0.00     0.159 C 
HETATM    8  C8  UNL     1      24.810   1.735  51.460  1.00  0.00     0.089 C 
HETATM    9  C9  UNL     1      25.092   1.383  52.893  1.00  0.00     0.132 C 
HETATM   10  H2  UNL     1      27.546   3.597  50.827  1.00  0.00     0.165 HD
ENDROOT
BRANCH   9  11
HETATM   11  N3  UNL     1      24.498   0.138  53.291  1.00  0.00    -0.380 N 
HETATM   12  H11 UNL     1      25.205  -0.622  53.518  1.00  0.00     0.160 HD
BRANCH  11  13
HETATM   13  C10 UNL     1      23.141  -0.219  53.426  1.00  0.00     0.030 A 
HETATM   14  C11 UNL     1      22.689  -0.998  54.481  1.00  0.00     0.032 A 
HETATM   15  C12 UNL     1      21.367  -1.355  54.592  1.00  0.00     0.046 A 
HETATM   16  C13 UNL     1      20.428  -0.962  53.673  1.00  0.00     0.138 A 
HETATM   17  F2  UNL     1      19.152  -1.357  53.860  1.00  0.00    -0.204 F 
HETATM   18  C14 UNL     1      20.827  -0.185  52.607  1.00  0.00     0.074 A 
HETATM   19 CL1  UNL     1      19.647   0.328  51.421  1.00  0.00    -0.081 Cl
HETATM   20  C15 UNL     1      22.162   0.151  52.529  1.00  0.00     0.056 A 
ENDBRANCH  11  13
ENDBRANCH   9  11
BRANCH   7  21
HETATM   21  O1  UNL     1      25.699   5.174  50.289  1.00  0.00    -0.359 OA
BRANCH  21  22
HETATM   22  C6  UNL     1      25.922   5.671  48.985  1.00  0.00     0.205 C 
BRANCH  22  23
HETATM   23  C7  UNL     1      27.387   5.578  48.639  1.00  0.00     0.248 C 
HETATM   24  F1  UNL     1      27.698   4.235  48.502  1.00  0.00    -0.253 F 
ENDBRANCH  22  23
ENDBRANCH  21  22
ENDBRANCH   7  21
TORSDOF 5
ENDMDL
MODEL 2
REMARK VINA RESULT:      -7.6      3.917      5.904
REMARK  5 active torsions:
REMARK  status: ('A' for Active; 'I' for Inactive)
REMARK    1  A    between atoms: C5_7  and  O1_8 
REMARK    2  A    between atoms: O1_8  and  C6_9 
REMARK    3  A    between atoms: C6_9  and  C7_10 
REMARK    4  A    between atoms: C9_13  and  N3_14 
REMARK    5  A    between atoms: N3_14  and  C10_15 
ROOT
HETATM    1  N1  UNL     1      21.753  -1.888  55.061  1.00  0.00    -0.192 NA
HETATM    2  C1  UNL     1      22.009  -1.003  54.381  1.00  0.00     0.098 C 
HETATM    3  C2  UNL     1      22.352   0.095  53.534  1.00  0.00     0.060 C 
HETATM    4  C3  UNL     1      21.312   0.859  53.156  1.00  0.00     0.108 C 
HETATM    5  N2  UNL     1      21.417   2.015  52.308  1.00  0.00    -0.366 N 
HETATM    6  C4  UNL     1      22.716   2.402  51.819  1.00  0.00     0.033 C 
HETATM    7  C5  UNL     1      22.837   3.052  50.700  1.00  0.00     0.159 C 
HETATM    8  C8  UNL     1      23.788   1.958  52.749  1.00  0.00     0.089 C 
HETATM    9  C9  UNL     1      23.692   0.484  53.025  1.00  0.00     0.132 C 
HETATM   10  H2  UNL     1      20.551   2.573  52.045  1.00  0.00     0.165 HD
ENDROOT
BRANCH   9  11
HETATM   11  N3  UNL     1      24.702   0.016  53.932  1.00  0.00    -0.380 N 
HETATM   12  H11 UNL     1      24.325  -0.276  54.881  1.00  0.00     0.160 HD
BRANCH  11  13
HETATM   13  C10 UNL     1      26.094  -0.111  53.753  1.00  0.00     0.030 A 
HETATM   14  C11 UNL     1      26.658  -1.236  53.169  1.00  0.00     0.032 A 
HETATM   15  C12 UNL     1      28.018  -1.358  53.016  1.00  0.00     0.046 A 
HETATM   16  C13 UNL     1      28.887  -0.381  53.429  1.00  0.00     0.138 A 
HETATM   17  F2  UNL     1      30.207  -0.582  53.239  1.00  0.00    -0.204 F 
HETATM   18  C14 UNL     1      28.376   0.757  54.016  1.00  0.00     0.074 A 
HETATM   19 CL1  UNL     1      29.464   2.018  54.552  1.00  0.00    -0.081 Cl
HETATM   20  C15 UNL     1      27.006   0.842  54.153  1.00  0.00     0.056 A 
ENDBRANCH  11  13
ENDBRANCH   9  11
BRANCH   7  21
HETATM   21  O1  UNL     1      21.699   3.368  49.986  1.00  0.00    -0.359 OA
BRANCH  21  22
HETATM   22  C6  UNL     1      21.558   3.131  48.600  1.00  0.00     0.205 C 
BRANCH  22  23
HETATM   23  C7  UNL     1      21.777   1.669  48.299  1.00  0.00     0.248 C 
HETATM   24  F1  UNL     1      22.772   1.587  47.339  1.00  0.00    -0.253 F 
ENDBRANCH  22  23
ENDBRANCH  21  22
ENDBRANCH   7  21
TORSDOF 5
ENDMDL
MODEL 3
REMARK VINA RESULT:      -7.3      2.771      4.291
REMARK  5 active torsions:
REMARK  status: ('A' for Active; 'I' for Inactive)
REMARK    1  A    between atoms: C5_7  and  O1_8 
REMARK    2  A    between atoms: O1_8  and  C6_9 
REMARK    3  A    between atoms: C6_9  and  C7_10 
REMARK    4  A    between atoms: C9_13  and  N3_14 
REMARK    5  A    between atoms: N3_14  and  C10_15 
ROOT
HETATM    1  N1  UNL     1      23.158   3.033  49.166  1.00  0.00    -0.192 NA
HETATM    2  C1  UNL     1      23.880   2.810  50.027  1.00  0.00     0.098 C 
HETATM    3  C2  UNL     1      24.762   2.522  51.114  1.00  0.00     0.060 C 
HETATM    4  C3  UNL     1      26.030   2.931  50.932  1.00  0.00     0.108 C 
HETATM    5  N2  UNL     1      27.087   2.750  51.888  1.00  0.00    -0.366 N 
HETATM    6  C4  UNL     1      26.793   2.091  53.135  1.00  0.00     0.033 C 
HETATM    7  C5  UNL     1      27.718   1.448  53.781  1.00  0.00     0.159 C 
HETATM    8  C8  UNL     1      25.363   2.271  53.506  1.00  0.00     0.089 C 
HETATM    9  C9  UNL     1      24.453   1.833  52.393  1.00  0.00     0.132 C 
HETATM   10  H2  UNL     1      28.071   3.097  51.678  1.00  0.00     0.165 HD
ENDROOT
BRANCH   9  11
HETATM   11  N3  UNL     1      23.063   2.004  52.705  1.00  0.00    -0.380 N 
HETATM   12  H11 UNL     1      22.747   3.019  52.719  1.00  0.00     0.160 HD
BRANCH  11  13
HETATM   13  C10 UNL     1      22.071   1.044  52.991  1.00  0.00     0.030 A 
HETATM   14  C11 UNL     1      22.211   0.133  54.028  1.00  0.00     0.032 A 
HETATM   15  C12 UNL     1      21.246  -0.812  54.285  1.00  0.00     0.046 A 
HETATM   16  C13 UNL     1      20.100  -0.904  53.537  1.00  0.00     0.138 A 
HETATM   17  F2  UNL     1      19.206  -1.860  53.860  1.00  0.00    -0.204 F 
HETATM   18  C14 UNL     1      19.915  -0.020  52.496  1.00  0.00     0.074 A 
HETATM   19 CL1  UNL     1      18.461  -0.118  51.526  1.00  0.00    -0.081 Cl
HETATM   20  C15 UNL     1      20.905   0.912  52.267  1.00  0.00     0.056 A 
ENDBRANCH  11  13
ENDBRANCH   9  11
BRANCH   7  21
HETATM   21  O1  UNL     1      28.993   1.405  53.252  1.00  0.00    -0.359 OA
BRANCH  21  22
HETATM   22  C6  UNL     1      29.846   0.284  53.363  1.00  0.00     0.205 C 
BRANCH  22  23
HETATM   23  C7  UNL     1      29.044  -0.944  53.714  1.00  0.00     0.248 C 
HETATM   24  F1  UNL     1      29.910  -2.025  53.698  1.00  0.00    -0.253 F 
ENDBRANCH  22  23
ENDBRANCH  21  22
ENDBRANCH   7  21
TORSDOF 5
ENDMDL
MODEL 4
REMARK VINA RESULT:      -7.2      3.637      5.689
REMARK  5 active torsions:
REMARK  status: ('A' for Active; 'I' for Inactive)
REMARK    1  A    between atoms: C5_7  and  O1_8 
REMARK    2  A    between atoms: O1_8  and  C6_9 
REMARK    3  A    between atoms: C6_9  and  C7_10 
REMARK    4  A    between atoms: C9_13  and  N3_14 
REMARK    5  A    between atoms: N3_14  and  C10_15 
ROOT
HETATM    1  N1  UNL     1      20.702  -1.030  53.803  1.00  0.00    -0.192 NA
HETATM    2  C1  UNL     1      21.724  -0.526  53.683  1.00  0.00     0.098 C 
HETATM    3  C2  UNL     1      22.987   0.122  53.525  1.00  0.00     0.060 C 
HETATM    4  C3  UNL     1      24.048  -0.615  53.900  1.00  0.00     0.108 C 
HETATM    5  N2  UNL     1      25.413  -0.170  53.828  1.00  0.00    -0.366 N 
HETATM    6  C4  UNL     1      25.689   1.150  53.321  1.00  0.00     0.033 C 
HETATM    7  C5  UNL     1      26.753   1.795  53.695  1.00  0.00     0.159 C 
HETATM    8  C8  UNL     1      24.625   1.590  52.380  1.00  0.00     0.089 C 
HETATM    9  C9  UNL     1      23.265   1.487  53.010  1.00  0.00     0.132 C 
HETATM   10  H2  UNL     1      26.205  -0.806  54.145  1.00  0.00     0.165 HD
ENDROOT
BRANCH   9  11
HETATM   11  N3  UNL     1      22.206   1.891  52.128  1.00  0.00    -0.380 N 
HETATM   12  H11 UNL     1      21.276   2.046  52.617  1.00  0.00     0.160 HD
BRANCH  11  13
HETATM   13  C10 UNL     1      22.218   2.108  50.735  1.00  0.00     0.030 A 
HETATM   14  C11 UNL     1      21.796   1.136  49.839  1.00  0.00     0.032 A 
HETATM   15  C12 UNL     1      21.829   1.352  48.482  1.00  0.00     0.046 A 
HETATM   16  C13 UNL     1      22.276   2.531  47.944  1.00  0.00     0.138 A 
HETATM   17  F2  UNL     1      22.273   2.658  46.601  1.00  0.00    -0.204 F 
HETATM   18  C14 UNL     1      22.706   3.528  48.793  1.00  0.00     0.074 A 
HETATM   19 CL1  UNL     1      23.282   5.042  48.130  1.00  0.00    -0.081 Cl
HETATM   20  C15 UNL     1      22.659   3.274  50.148  1.00  0.00     0.056 A 
ENDBRANCH  11  13
ENDBRANCH   9  11
BRANCH   7  21
HETATM   21  O1  UNL     1      27.618   1.194  54.587  1.00  0.00    -0.359 OA
BRANCH  21  22
HETATM   22  C6  UNL     1      28.962   0.882  54.280  1.00  0.00     0.205 C 
BRANCH  22  23
HETATM   23  C7  UNL     1      29.073  -0.560  53.849  1.00  0.00     0.248 C 
HETATM   24  F1  UNL     1      30.420  -0.885  53.830  1.00  0.00    -0.253 F 
ENDBRANCH  22  23
ENDBRANCH  21  22
ENDBRANCH   7  21
TORSDOF 5
ENDMDL
MODEL 5
REMARK VINA RESULT:      -7.0      3.297      4.877
REMARK  5 active torsions:
REMARK  status: ('A' for Active; 'I' for Inactive)
REMARK    1  A    between atoms: C5_7  and  O1_8 
REMARK    2  A    between atoms: O1_8  and  C6_9 
REMARK    3  A    between atoms: C6_9  and  C7_10 
REMARK    4  A    between atoms: C9_13  and  N3_14 
REMARK    5  A    between atoms: N3_14  and  C10_15 
ROOT
HETATM    1  N1  UNL     1      22.517   4.124  51.431  1.00  0.00    -0.192 NA
HETATM    2  C1  UNL     1      23.121   3.232  51.818  1.00  0.00     0.098 C 
HETATM    3  C2  UNL     1      23.854   2.105  52.303  1.00  0.00     0.060 C 
HETATM    4  C3  UNL     1      25.187   2.275  52.340  1.00  0.00     0.108 C 
HETATM    5  N2  UNL     1      26.122   1.282  52.791  1.00  0.00    -0.366 N 
HETATM    6  C4  UNL     1      25.620   0.009  53.243  1.00  0.00     0.033 C 
HETATM    7  C5  UNL     1      26.354  -1.060  53.164  1.00  0.00     0.159 C 
HETATM    8  C8  UNL     1      24.235   0.141  53.768  1.00  0.00     0.089 C 
HETATM    9  C9  UNL     1      23.331   0.792  52.759  1.00  0.00     0.132 C 
HETATM   10  H2  UNL     1      27.167   1.483  52.791  1.00  0.00     0.165 HD
ENDROOT
BRANCH   9  11
HETATM   11  N3  UNL     1      21.985   0.951  53.233  1.00  0.00    -0.380 N 
HETATM   12  H11 UNL     1      21.913   1.471  54.156  1.00  0.00     0.160 HD
BRANCH  11  13
HETATM   13  C10 UNL     1      20.766   0.529  52.664  1.00  0.00     0.030 A 
HETATM   14  C11 UNL     1      20.317   1.019  51.446  1.00  0.00     0.032 A 
HETATM   15  C12 UNL     1      19.119   0.614  50.909  1.00  0.00     0.046 A 
HETATM   16  C13 UNL     1      18.307  -0.292  51.543  1.00  0.00     0.138 A 
HETATM   17  F2  UNL     1      17.149  -0.635  50.944  1.00  0.00    -0.204 F 
HETATM   18  C14 UNL     1      18.710  -0.809  52.756  1.00  0.00     0.074 A 
HETATM   19 CL1  UNL     1      17.692  -1.967  53.584  1.00  0.00    -0.081 Cl
HETATM   20  C15 UNL     1      19.918  -0.378  53.262  1.00  0.00     0.056 A 
ENDBRANCH  11  13
ENDBRANCH   9  11
BRANCH   7  21
HETATM   21  O1  UNL     1      27.626  -0.958  52.638  1.00  0.00    -0.359 OA
BRANCH  21  22
HETATM   22  C6  UNL     1      28.765  -1.546  53.233  1.00  0.00     0.205 C 
BRANCH  22  23
HETATM   23  C7  UNL     1      29.623  -0.482  53.873  1.00  0.00     0.248 C 
HETATM   24  F1  UNL     1      28.912   0.037  54.943  1.00  0.00    -0.253 F 
ENDBRANCH  22  23
ENDBRANCH  21  22
ENDBRANCH   7  21
TORSDOF 5
ENDMDL
MODEL 6
REMARK VINA RESULT:      -7.0      3.319      7.668
REMARK  5 active torsions:
REMARK  status: ('A' for Active; 'I' for Inactive)
REMARK    1  A    between atoms: C5_7  and  O1_8 
REMARK    2  A    between atoms: O1_8  and  C6_9 
REMARK    3  A    between atoms: C6_9  and  C7_10 
REMARK    4  A    between atoms: C9_13  and  N3_14 
REMARK    5  A    between atoms: N3_14  and  C10_15 
ROOT
HETATM    1  N1  UNL     1      25.647  -0.949  54.672  1.00  0.00    -0.192 NA
HETATM    2  C1  UNL     1      24.547  -0.772  54.411  1.00  0.00     0.098 C 
HETATM    3  C2  UNL     1      23.179  -0.531  54.071  1.00  0.00     0.060 C 
HETATM    4  C3  UNL     1      22.302  -1.375  54.643  1.00  0.00     0.108 C 
HETATM    5  N2  UNL     1      20.879  -1.323  54.448  1.00  0.00    -0.366 N 
HETATM    6  C4  UNL     1      20.331  -0.305  53.588  1.00  0.00     0.033 C 
HETATM    7  C5  UNL     1      19.206  -0.495  52.967  1.00  0.00     0.159 C 
HETATM    8  C8  UNL     1      21.216   0.890  53.551  1.00  0.00     0.089 C 
HETATM    9  C9  UNL     1      22.622   0.515  53.177  1.00  0.00     0.132 C 
HETATM   10  H2  UNL     1      20.241  -2.025  54.930  1.00  0.00     0.165 HD
ENDROOT
BRANCH   9  11
HETATM   11  N3  UNL     1      23.513   1.640  53.143  1.00  0.00    -0.380 N 
HETATM   12  H11 UNL     1      23.545   2.190  54.051  1.00  0.00     0.160 HD
BRANCH  11  13
HETATM   13  C10 UNL     1      24.338   2.114  52.103  1.00  0.00     0.030 A 
HETATM   14  C11 UNL     1      25.690   1.807  52.042  1.00  0.00     0.032 A 
HETATM   15  C12 UNL     1      26.489   2.289  51.034  1.00  0.00     0.046 A 
HETATM   16  C13 UNL     1      25.997   3.094  50.038  1.00  0.00     0.138 A 
HETATM   17  F2  UNL     1      26.852   3.522  49.087  1.00  0.00    -0.204 F 
HETATM   18  C14 UNL     1      24.660   3.427  50.054  1.00  0.00     0.074 A 
HETATM   19 CL1  UNL     1      24.009   4.453  48.795  1.00  0.00    -0.081 Cl
HETATM   20  C15 UNL     1      23.891   2.925  51.082  1.00  0.00     0.056 A 
ENDBRANCH  11  13
ENDBRANCH   9  11
BRANCH   7  21
HETATM   21  O1  UNL     1      18.540  -1.691  53.145  1.00  0.00    -0.359 OA
BRANCH  21  22
HETATM   22  C6  UNL     1      17.132  -1.799  53.201  1.00  0.00     0.205 C 
BRANCH  22  23
HETATM   23  C7  UNL     1      16.726  -3.251  53.238  1.00  0.00     0.248 C 
HETATM   24  F1  UNL     1      15.761  -3.437  52.261  1.00  0.00    -0.253 F 
ENDBRANCH  22  23
ENDBRANCH  21  22
ENDBRANCH   7  21
TORSDOF 5
ENDMDL
MODEL 7
REMARK VINA RESULT:      -7.0      4.393      7.590
REMARK  5 active torsions:
REMARK  status: ('A' for Active; 'I' for Inactive)
REMARK    1  A    between atoms: C5_7  and  O1_8 
REMARK    2  A    between atoms: O1_8  and  C6_9 
REMARK    3  A    between atoms: C6_9  and  C7_10 
REMARK    4  A    between atoms: C9_13  and  N3_14 
REMARK    5  A    between atoms: N3_14  and  C10_15 
ROOT
HETATM    1  N1  UNL     1      22.129   4.509  52.352  1.00  0.00    -0.192 NA
HETATM    2  C1  UNL     1      22.990   3.756  52.313  1.00  0.00     0.098 C 
HETATM    3  C2  UNL     1      24.075   2.828  52.245  1.00  0.00     0.060 C 
HETATM    4  C3  UNL     1      24.004   1.815  53.127  1.00  0.00     0.108 C 
HETATM    5  N2  UNL     1      24.979   0.766  53.240  1.00  0.00    -0.366 N 
HETATM    6  C4  UNL     1      26.118   0.777  52.358  1.00  0.00     0.033 C 
HETATM    7  C5  UNL     1      27.239   0.225  52.715  1.00  0.00     0.159 C 
HETATM    8  C8  UNL     1      25.796   1.473  51.083  1.00  0.00     0.089 C 
HETATM    9  C9  UNL     1      25.251   2.850  51.339  1.00  0.00     0.132 C 
HETATM   10  H2  UNL     1      24.862  -0.005  53.964  1.00  0.00     0.165 HD
ENDROOT
BRANCH   9  11
HETATM   11  N3  UNL     1      24.913   3.552  50.133  1.00  0.00    -0.380 N 
HETATM   12  H11 UNL     1      24.010   3.222  49.683  1.00  0.00     0.160 HD
BRANCH  11  13
HETATM   13  C10 UNL     1      25.590   4.596  49.470  1.00  0.00     0.030 A 
HETATM   14  C11 UNL     1      24.941   5.760  49.084  1.00  0.00     0.032 A 
HETATM   15  C12 UNL     1      25.606   6.764  48.422  1.00  0.00     0.046 A 
HETATM   16  C13 UNL     1      26.938   6.672  48.111  1.00  0.00     0.138 A 
HETATM   17  F2  UNL     1      27.512   7.705  47.460  1.00  0.00    -0.204 F 
HETATM   18  C14 UNL     1      27.628   5.535  48.475  1.00  0.00     0.074 A 
HETATM   19 CL1  UNL     1      29.328   5.394  48.088  1.00  0.00    -0.081 Cl
HETATM   20  C15 UNL     1      26.926   4.549  49.136  1.00  0.00     0.056 A 
ENDBRANCH  11  13
ENDBRANCH   9  11
BRANCH   7  21
HETATM   21  O1  UNL     1      27.322  -0.373  53.955  1.00  0.00    -0.359 OA
BRANCH  21  22
HETATM   22  C6  UNL     1      28.307  -0.046  54.915  1.00  0.00     0.205 C 
BRANCH  22  23
HETATM   23  C7  UNL     1      29.397   0.780  54.277  1.00  0.00     0.248 C 
HETATM   24  F1  UNL     1      30.337  -0.098  53.764  1.00  0.00    -0.253 F 
ENDBRANCH  22  23
ENDBRANCH  21  22
ENDBRANCH   7  21
TORSDOF 5
ENDMDL
MODEL 8
REMARK VINA RESULT:      -6.9      3.857      6.384
REMARK  5 active torsions:
REMARK  status: ('A' for Active; 'I' for Inactive)
REMARK    1  A    between atoms: C5_7  and  O1_8 
REMARK    2  A    between atoms: O1_8  and  C6_9 
REMARK    3  A    between atoms: C6_9  and  C7_10 
REMARK    4  A    between atoms: C9_13  and  N3_14 
REMARK    5  A    between atoms: N3_14  and  C10_15 
ROOT
HETATM    1  N1  UNL     1      20.277  -0.062  52.890  1.00  0.00    -0.192 NA
HETATM    2  C1  UNL     1      21.380   0.232  52.974  1.00  0.00     0.098 C 
HETATM    3  C2  UNL     1      22.752   0.622  53.070  1.00  0.00     0.060 C 
HETATM    4  C3  UNL     1      23.574  -0.328  53.549  1.00  0.00     0.108 C 
HETATM    5  N2  UNL     1      24.990  -0.162  53.731  1.00  0.00    -0.366 N 
HETATM    6  C4  UNL     1      25.593   1.098  53.381  1.00  0.00     0.033 C 
HETATM    7  C5  UNL     1      26.680   1.500  53.969  1.00  0.00     0.159 C 
HETATM    8  C8  UNL     1      24.809   1.785  52.320  1.00  0.00     0.089 C 
HETATM    9  C9  UNL     1      23.366   1.927  52.716  1.00  0.00     0.132 C 
HETATM   10  H2  UNL     1      25.581  -0.957  54.119  1.00  0.00     0.165 HD
ENDROOT
BRANCH   9  11
HETATM   11  N3  UNL     1      22.570   2.574  51.711  1.00  0.00    -0.380 N 
HETATM   12  H11 UNL     1      21.580   2.195  51.638  1.00  0.00     0.160 HD
BRANCH  11  13
HETATM   13  C10 UNL     1      22.900   3.619  50.825  1.00  0.00     0.030 A 
HETATM   14  C11 UNL     1      23.087   3.397  49.468  1.00  0.00     0.032 A 
HETATM   15  C12 UNL     1      23.426   4.419  48.615  1.00  0.00     0.046 A 
HETATM   16  C13 UNL     1      23.597   5.707  49.056  1.00  0.00     0.138 A 
HETATM   17  F2  UNL     1      23.930   6.649  48.150  1.00  0.00    -0.204 F 
HETATM   18  C14 UNL     1      23.422   5.979  50.396  1.00  0.00     0.074 A 
HETATM   19 CL1  UNL     1      23.635   7.614  50.982  1.00  0.00    -0.081 Cl
HETATM   20  C15 UNL     1      23.083   4.926  51.220  1.00  0.00     0.056 A 
ENDBRANCH  11  13
ENDBRANCH   9  11
BRANCH   7  21
HETATM   21  O1  UNL     1      27.250   0.698  54.936  1.00  0.00    -0.359 OA
BRANCH  21  22
HETATM   22  C6  UNL     1      28.461  -0.007  54.751  1.00  0.00     0.205 C 
BRANCH  22  23
HETATM   23  C7  UNL     1      29.341   0.726  53.769  1.00  0.00     0.248 C 
HETATM   24  F1  UNL     1      30.310  -0.164  53.336  1.00  0.00    -0.253 F 
ENDBRANCH  22  23
ENDBRANCH  21  22
ENDBRANCH   7  21
TORSDOF 5
ENDMDL
MODEL 9
REMARK VINA RESULT:      -6.8      3.603      6.997
REMARK  5 active torsions:
REMARK  status: ('A' for Active; 'I' for Inactive)
REMARK    1  A    between atoms: C5_7  and  O1_8 
REMARK    2  A    between atoms: O1_8  and  C6_9 
REMARK    3  A    between atoms: C6_9  and  C7_10 
REMARK    4  A    between atoms: C9_13  and  N3_14 
REMARK    5  A    between atoms: N3_14  and  C10_15 
ROOT
HETATM    1  N1  UNL     1      24.655   5.666  50.698  1.00  0.00    -0.192 NA
HETATM    2  C1  UNL     1      24.234   4.701  51.149  1.00  0.00     0.098 C 
HETATM    3  C2  UNL     1      23.731   3.493  51.723  1.00  0.00     0.060 C 
HETATM    4  C3  UNL     1      22.459   3.203  51.396  1.00  0.00     0.108 C 
HETATM    5  N2  UNL     1      21.746   2.042  51.854  1.00  0.00    -0.366 N 
HETATM    6  C4  UNL     1      22.420   1.109  52.720  1.00  0.00     0.033 C 
HETATM    7  C5  UNL     1      21.748   0.376  53.557  1.00  0.00     0.159 C 
HETATM    8  C8  UNL     1      23.890   1.142  52.496  1.00  0.00     0.089 C 
HETATM    9  C9  UNL     1      24.428   2.540  52.624  1.00  0.00     0.132 C 
HETATM   10  H2  UNL     1      20.738   1.876  51.557  1.00  0.00     0.165 HD
ENDROOT
BRANCH   9  11
HETATM   11  N3  UNL     1      25.844   2.618  52.400  1.00  0.00    -0.380 N 
HETATM   12  H11 UNL     1      26.141   3.460  51.824  1.00  0.00     0.160 HD
BRANCH  11  13
HETATM   13  C10 UNL     1      26.879   1.760  52.824  1.00  0.00     0.030 A 
HETATM   14  C11 UNL     1      28.019   2.242  53.451  1.00  0.00     0.032 A 
HETATM   15  C12 UNL     1      29.030   1.399  53.843  1.00  0.00     0.046 A 
HETATM   16  C13 UNL     1      28.968   0.044  53.640  1.00  0.00     0.138 A 
HETATM   17  F2  UNL     1      30.005  -0.710  54.057  1.00  0.00    -0.204 F 
HETATM   18  C14 UNL     1      27.855  -0.483  53.021  1.00  0.00     0.074 A 
HETATM   19 CL1  UNL     1      27.752  -2.209  52.749  1.00  0.00    -0.081 Cl
HETATM   20  C15 UNL     1      26.862   0.395  52.640  1.00  0.00     0.056 A 
ENDBRANCH  11  13
ENDBRANCH   9  11
BRANCH   7  21
HETATM   21  O1  UNL     1      20.375   0.505  53.602  1.00  0.00    -0.359 OA
BRANCH  21  22
HETATM   22  C6  UNL     1      19.483  -0.575  53.409  1.00  0.00     0.205 C 
BRANCH  22  23
HETATM   23  C7  UNL     1      18.543  -0.273  52.269  1.00  0.00     0.248 C 
HETATM   24  F1  UNL     1      18.713   1.060  51.931  1.00  0.00    -0.253 F 
ENDBRANCH  22  23
ENDBRANCH  21  22
ENDBRANCH   7  21
TORSDOF 5
ENDMDL
