MODEL 1
REMARK VINA RESULT:      -8.4      0.000      0.000
REMARK  2 active torsions:
REMARK  status: ('A' for Active; 'I' for Inactive)
REMARK    1  A    between atoms: C2_2  and  C3_3 
REMARK    2  A    between atoms: C2_2  and  C11_14 
ROOT
HETATM    1  C3  UNL     1      25.009   2.150  52.997  1.00  0.00     0.034 C 
HETATM    2  C4  UNL     1      24.881   0.814  52.698  1.00  0.00     0.034 C 
HETATM    3  C5  UNL     1      25.711  -0.242  53.368  1.00  0.00    -0.054 C 
HETATM    4  C6  UNL     1      26.166  -1.307  52.654  1.00  0.00     0.008 C 
HETATM    5  C7  UNL     1      27.667  -1.393  52.911  1.00  0.00     0.017 C 
HETATM    6  C8  UNL     1      28.163  -0.419  53.747  1.00  0.00     0.013 C 
HETATM    7 BR1  UNL     1      30.075  -0.674  53.687  1.00  0.00    -0.053 Br
HETATM    8  C9  UNL     1      27.456   0.653  54.571  1.00  0.00     0.143 C 
HETATM    9  C10 UNL     1      26.125  -0.072  54.852  1.00  0.00     0.070 C 
HETATM   10  N1  UNL     1      27.370   1.917  54.048  1.00  0.00    -0.326 N 
HETATM   11  N2  UNL     1      26.161   2.602  53.809  1.00  0.00    -0.308 N 
HETATM   12  H11 UNL     1      28.081   2.099  53.309  1.00  0.00     0.181 HD
HETATM   13  H12 UNL     1      25.872   3.565  54.164  1.00  0.00     0.186 HD
ENDROOT
BRANCH   1  14
HETATM   14  C2  UNL     1      23.948   2.921  52.416  1.00  0.00     0.066 C 
HETATM   15  C1  UNL     1      22.857   2.065  51.829  1.00  0.00     0.021 C 
BRANCH  14  16
HETATM   16  C11 UNL     1      24.393   3.918  51.404  1.00  0.00    -0.047 A 
HETATM   17  C12 UNL     1      25.286   3.502  50.419  1.00  0.00     0.008 A 
HETATM   18  C13 UNL     1      25.760   4.360  49.430  1.00  0.00     0.002 A 
HETATM   19  C14 UNL     1      25.285   5.663  49.486  1.00  0.00     0.019 A 
HETATM   20  C15 UNL     1      24.398   6.132  50.440  1.00  0.00     0.011 A 
HETATM   21 BR2  UNL     1      23.759   7.904  50.508  1.00  0.00    -0.051 Br
HETATM   22  C16 UNL     1      23.974   5.221  51.386  1.00  0.00     0.027 A 
ENDBRANCH  14  16
ENDBRANCH   1  14
TORSDOF 2
ENDMDL
MODEL 2
REMARK VINA RESULT:      -8.2      2.677      3.534
REMARK  2 active torsions:
REMARK  status: ('A' for Active; 'I' for Inactive)
REMARK    1  A    between atoms: C2_2  and  C3_3 
REMARK    2  A    between atoms: C2_2  and  C11_14 
ROOT
HETATM    1  C3  UNL     1      25.253   2.072  52.867  1.00  0.00     0.034 C 
HETATM    2  C4  UNL     1      25.164   0.730  52.581  1.00  0.00     0.034 C 
HETATM    3  C5  UNL     1      25.978  -0.302  53.307  1.00  0.00    -0.054 C 
HETATM    4  C6  UNL     1      26.487  -1.368  52.632  1.00  0.00     0.008 C 
HETATM    5  C7  UNL     1      27.974  -1.423  52.965  1.00  0.00     0.017 C 
HETATM    6  C8  UNL     1      28.410  -0.429  53.810  1.00  0.00     0.013 C 
HETATM    7 BR1  UNL     1      30.328  -0.649  53.850  1.00  0.00    -0.053 Br
HETATM    8  C9  UNL     1      27.644   0.642  54.582  1.00  0.00     0.143 C 
HETATM    9  C10 UNL     1      26.314  -0.104  54.807  1.00  0.00     0.070 C 
HETATM   10  N1  UNL     1      27.562   1.896  54.038  1.00  0.00    -0.326 N 
HETATM   11  N2  UNL     1      26.355   2.556  53.729  1.00  0.00    -0.308 N 
HETATM   12  H11 UNL     1      28.306   2.081  53.332  1.00  0.00     0.181 HD
HETATM   13  H12 UNL     1      26.031   3.518  54.055  1.00  0.00     0.186 HD
ENDROOT
BRANCH   1  14
HETATM   14  C2  UNL     1      24.209   2.816  52.223  1.00  0.00     0.066 C 
HETATM   15  C1  UNL     1      23.718   3.973  53.052  1.00  0.00     0.021 C 
BRANCH  14  16
HETATM   16  C11 UNL     1      23.048   1.994  51.785  1.00  0.00    -0.047 A 
HETATM   17  C12 UNL     1      22.789   1.894  50.420  1.00  0.00     0.008 A 
HETATM   18  C13 UNL     1      21.727   1.150  49.913  1.00  0.00     0.002 A 
HETATM   19  C14 UNL     1      20.937   0.509  50.858  1.00  0.00     0.019 A 
HETATM   20  C15 UNL     1      21.146   0.573  52.225  1.00  0.00     0.011 A 
HETATM   21 BR2  UNL     1      20.068  -0.302  53.500  1.00  0.00    -0.051 Br
HETATM   22  C16 UNL     1      22.219   1.329  52.649  1.00  0.00     0.027 A 
ENDBRANCH  14  16
ENDBRANCH   1  14
TORSDOF 2
ENDMDL
MODEL 3
REMARK VINA RESULT:      -8.0      3.386      4.590
REMARK  2 active torsions:
REMARK  status: ('A' for Active; 'I' for Inactive)
REMARK    1  A    between atoms: C2_2  and  C3_3 
REMARK    2  A    between atoms: C2_2  and  C11_14 
ROOT
HETATM    1  C3  UNL     1      24.011   0.002  53.570  1.00  0.00     0.034 C 
HETATM    2  C4  UNL     1      24.656   1.216  53.557  1.00  0.00     0.034 C 
HETATM    3  C5  UNL     1      26.009   1.402  52.936  1.00  0.00    -0.054 C 
HETATM    4  C6  UNL     1      26.923   2.222  53.521  1.00  0.00     0.008 C 
HETATM    5  C7  UNL     1      28.209   1.414  53.655  1.00  0.00     0.017 C 
HETATM    6  C8  UNL     1      28.128   0.123  53.186  1.00  0.00     0.013 C 
HETATM    7 BR1  UNL     1      29.812  -0.672  53.695  1.00  0.00    -0.053 Br
HETATM    8  C9  UNL     1      27.018  -0.604  52.432  1.00  0.00     0.143 C 
HETATM    9  C10 UNL     1      26.397   0.586  51.675  1.00  0.00     0.070 C 
HETATM   10  N1  UNL     1      26.158  -1.392  53.152  1.00  0.00    -0.326 N 
HETATM   11  N2  UNL     1      24.760  -1.218  53.194  1.00  0.00    -0.308 N 
HETATM   12  H11 UNL     1      26.550  -1.683  54.073  1.00  0.00     0.181 HD
HETATM   13  H12 UNL     1      24.002  -1.934  52.972  1.00  0.00     0.186 HD
ENDROOT
BRANCH   1  14
HETATM   14  C2  UNL     1      22.646   0.137  53.992  1.00  0.00     0.066 C 
HETATM   15  C1  UNL     1      22.209  -0.966  54.920  1.00  0.00     0.021 C 
BRANCH  14  16
HETATM   16  C11 UNL     1      21.667   0.263  52.878  1.00  0.00    -0.047 A 
HETATM   17  C12 UNL     1      20.327  -0.005  53.145  1.00  0.00     0.008 A 
HETATM   18  C13 UNL     1      19.337   0.086  52.170  1.00  0.00     0.002 A 
HETATM   19  C14 UNL     1      19.771   0.463  50.906  1.00  0.00     0.019 A 
HETATM   20  C15 UNL     1      21.088   0.741  50.583  1.00  0.00     0.011 A 
HETATM   21 BR2  UNL     1      21.667   1.253  48.864  1.00  0.00    -0.051 Br
HETATM   22  C16 UNL     1      22.009   0.630  51.604  1.00  0.00     0.027 A 
ENDBRANCH  14  16
ENDBRANCH   1  14
TORSDOF 2
ENDMDL
MODEL 4
REMARK VINA RESULT:      -7.5      1.778      6.678
REMARK  2 active torsions:
REMARK  status: ('A' for Active; 'I' for Inactive)
REMARK    1  A    between atoms: C2_2  and  C3_3 
REMARK    2  A    between atoms: C2_2  and  C11_14 
ROOT
HETATM    1  C3  UNL     1      24.707   2.556  51.847  1.00  0.00     0.034 C 
HETATM    2  C4  UNL     1      24.486   2.664  50.494  1.00  0.00     0.034 C 
HETATM    3  C5  UNL     1      24.318   3.989  49.809  1.00  0.00    -0.054 C 
HETATM    4  C6  UNL     1      23.416   4.127  48.801  1.00  0.00     0.008 C 
HETATM    5  C7  UNL     1      22.556   5.338  49.151  1.00  0.00     0.017 C 
HETATM    6  C8  UNL     1      22.883   5.949  50.339  1.00  0.00     0.013 C 
HETATM    7 BR1  UNL     1      21.499   7.272  50.586  1.00  0.00    -0.053 Br
HETATM    8  C9  UNL     1      24.040   5.713  51.307  1.00  0.00     0.143 C 
HETATM    9  C10 UNL     1      25.111   5.222  50.313  1.00  0.00     0.070 C 
HETATM   10  N1  UNL     1      23.812   4.927  52.405  1.00  0.00    -0.326 N 
HETATM   11  N2  UNL     1      24.525   3.748  52.706  1.00  0.00    -0.308 N 
HETATM   12  H11 UNL     1      22.802   4.852  52.647  1.00  0.00     0.181 HD
HETATM   13  H12 UNL     1      25.048   3.509  53.603  1.00  0.00     0.186 HD
ENDROOT
BRANCH   1  14
HETATM   14  C2  UNL     1      25.077   1.220  52.213  1.00  0.00     0.066 C 
HETATM   15  C1  UNL     1      24.142   0.610  53.225  1.00  0.00     0.021 C 
BRANCH  14  16
HETATM   16  C11 UNL     1      26.481   1.078  52.689  1.00  0.00    -0.047 A 
HETATM   17  C12 UNL     1      27.167   2.229  53.069  1.00  0.00     0.008 A 
HETATM   18  C13 UNL     1      28.481   2.199  53.527  1.00  0.00     0.002 A 
HETATM   19  C14 UNL     1      29.070   0.943  53.583  1.00  0.00     0.019 A 
HETATM   20  C15 UNL     1      28.437  -0.234  53.219  1.00  0.00     0.011 A 
HETATM   21 BR2  UNL     1      29.245  -1.935  53.299  1.00  0.00    -0.051 Br
HETATM   22  C16 UNL     1      27.136  -0.121  52.776  1.00  0.00     0.027 A 
ENDBRANCH  14  16
ENDBRANCH   1  14
TORSDOF 2
ENDMDL
MODEL 5
REMARK VINA RESULT:      -7.5      2.469      3.403
REMARK  2 active torsions:
REMARK  status: ('A' for Active; 'I' for Inactive)
REMARK    1  A    between atoms: C2_2  and  C3_3 
REMARK    2  A    between atoms: C2_2  and  C11_14 
ROOT
HETATM    1  C3  UNL     1      25.168   2.512  51.140  1.00  0.00     0.034 C 
HETATM    2  C4  UNL     1      24.849   1.292  51.689  1.00  0.00     0.034 C 
HETATM    3  C5  UNL     1      25.558   0.742  52.892  1.00  0.00    -0.054 C 
HETATM    4  C6  UNL     1      25.833  -0.588  52.973  1.00  0.00     0.008 C 
HETATM    5  C7  UNL     1      27.320  -0.704  53.298  1.00  0.00     0.017 C 
HETATM    6  C8  UNL     1      27.978   0.498  53.411  1.00  0.00     0.013 C 
HETATM    7 BR1  UNL     1      29.835   0.004  53.601  1.00  0.00    -0.053 Br
HETATM    8  C9  UNL     1      27.459   1.933  53.403  1.00  0.00     0.143 C 
HETATM    9  C10 UNL     1      26.056   1.704  54.000  1.00  0.00     0.070 C 
HETATM   10  N1  UNL     1      27.521   2.635  52.228  1.00  0.00    -0.326 N 
HETATM   11  N2  UNL     1      26.406   3.198  51.574  1.00  0.00    -0.308 N 
HETATM   12  H11 UNL     1      28.217   2.243  51.558  1.00  0.00     0.181 HD
HETATM   13  H12 UNL     1      26.265   4.211  51.273  1.00  0.00     0.186 HD
ENDROOT
BRANCH   1  14
HETATM   14  C2  UNL     1      24.196   2.920  50.167  1.00  0.00     0.066 C 
HETATM   15  C1  UNL     1      24.572   4.198  49.465  1.00  0.00     0.021 C 
BRANCH  14  16
HETATM   16  C11 UNL     1      22.808   3.034  50.694  1.00  0.00    -0.047 A 
HETATM   17  C12 UNL     1      22.532   4.048  51.608  1.00  0.00     0.008 A 
HETATM   18  C13 UNL     1      21.267   4.236  52.157  1.00  0.00     0.002 A 
HETATM   19  C14 UNL     1      20.290   3.345  51.733  1.00  0.00     0.019 A 
HETATM   20  C15 UNL     1      20.506   2.320  50.828  1.00  0.00     0.011 A 
HETATM   21 BR2  UNL     1      19.172   1.116  50.258  1.00  0.00    -0.051 Br
HETATM   22  C16 UNL     1      21.786   2.200  50.329  1.00  0.00     0.027 A 
ENDBRANCH  14  16
ENDBRANCH   1  14
TORSDOF 2
ENDMDL
MODEL 6
REMARK VINA RESULT:      -7.5      3.819      5.660
REMARK  2 active torsions:
REMARK  status: ('A' for Active; 'I' for Inactive)
REMARK    1  A    between atoms: C2_2  and  C3_3 
REMARK    2  A    between atoms: C2_2  and  C11_14 
ROOT
HETATM    1  C3  UNL     1      22.604   0.630  53.459  1.00  0.00     0.034 C 
HETATM    2  C4  UNL     1      23.806  -0.036  53.423  1.00  0.00     0.034 C 
HETATM    3  C5  UNL     1      25.108   0.667  53.173  1.00  0.00    -0.054 C 
HETATM    4  C6  UNL     1      26.069   0.074  52.415  1.00  0.00     0.008 C 
HETATM    5  C7  UNL     1      26.474   1.092  51.353  1.00  0.00     0.017 C 
HETATM    6  C8  UNL     1      25.795   2.287  51.415  1.00  0.00     0.013 C 
HETATM    7 BR1  UNL     1      26.372   3.241  49.839  1.00  0.00    -0.053 Br
HETATM    8  C9  UNL     1      24.804   2.828  52.442  1.00  0.00     0.143 C 
HETATM    9  C10 UNL     1      25.320   2.108  53.704  1.00  0.00     0.070 C 
HETATM   10  N1  UNL     1      23.466   2.710  52.170  1.00  0.00    -0.326 N 
HETATM   11  N2  UNL     1      22.540   2.033  52.990  1.00  0.00    -0.308 N 
HETATM   12  H11 UNL     1      23.268   2.577  51.156  1.00  0.00     0.181 HD
HETATM   13  H12 UNL     1      21.634   2.409  53.406  1.00  0.00     0.186 HD
ENDROOT
BRANCH   1  14
HETATM   14  C2  UNL     1      21.553  -0.210  53.957  1.00  0.00     0.066 C 
HETATM   15  C1  UNL     1      22.005  -1.625  54.208  1.00  0.00     0.021 C 
BRANCH  14  16
HETATM   16  C11 UNL     1      20.325  -0.226  53.114  1.00  0.00    -0.047 A 
HETATM   17  C12 UNL     1      19.255  -1.015  53.525  1.00  0.00     0.008 A 
HETATM   18  C13 UNL     1      18.065  -1.096  52.805  1.00  0.00     0.002 A 
HETATM   19  C14 UNL     1      18.012  -0.335  51.645  1.00  0.00     0.019 A 
HETATM   20  C15 UNL     1      19.044   0.467  51.188  1.00  0.00     0.011 A 
HETATM   21 BR2  UNL     1      18.963   1.497  49.612  1.00  0.00    -0.051 Br
HETATM   22  C16 UNL     1      20.189   0.494  51.957  1.00  0.00     0.027 A 
ENDBRANCH  14  16
ENDBRANCH   1  14
TORSDOF 2
ENDMDL
MODEL 7
REMARK VINA RESULT:      -7.5      2.998      4.593
REMARK  2 active torsions:
REMARK  status: ('A' for Active; 'I' for Inactive)
REMARK    1  A    between atoms: C2_2  and  C3_3 
REMARK    2  A    between atoms: C2_2  and  C11_14 
ROOT
HETATM    1  C3  UNL     1      24.249   1.215  52.441  1.00  0.00     0.034 C 
HETATM    2  C4  UNL     1      24.969   0.053  52.293  1.00  0.00     0.034 C 
HETATM    3  C5  UNL     1      26.077  -0.330  53.230  1.00  0.00    -0.054 C 
HETATM    4  C6  UNL     1      27.199  -0.932  52.751  1.00  0.00     0.008 C 
HETATM    5  C7  UNL     1      28.383  -0.133  53.288  1.00  0.00     0.017 C 
HETATM    6  C8  UNL     1      28.040   0.944  54.073  1.00  0.00     0.013 C 
HETATM    7 BR1  UNL     1      29.716   1.845  54.398  1.00  0.00    -0.053 Br
HETATM    8  C9  UNL     1      26.689   1.405  54.612  1.00  0.00     0.143 C 
HETATM    9  C10 UNL     1      25.979   0.041  54.732  1.00  0.00     0.070 C 
HETATM   10  N1  UNL     1      26.022   2.387  53.928  1.00  0.00    -0.326 N 
HETATM   11  N2  UNL     1      24.727   2.247  53.387  1.00  0.00    -0.308 N 
HETATM   12  H11 UNL     1      26.648   2.951  53.315  1.00  0.00     0.181 HD
HETATM   13  H12 UNL     1      23.874   2.862  53.560  1.00  0.00     0.186 HD
ENDROOT
BRANCH   1  14
HETATM   14  C2  UNL     1      23.099   1.231  51.583  1.00  0.00     0.066 C 
HETATM   15  C1  UNL     1      22.795   2.603  51.039  1.00  0.00     0.021 C 
BRANCH  14  16
HETATM   16  C11 UNL     1      21.868   0.657  52.191  1.00  0.00    -0.047 A 
HETATM   17  C12 UNL     1      21.938   0.184  53.499  1.00  0.00     0.008 A 
HETATM   18  C13 UNL     1      20.842  -0.371  54.154  1.00  0.00     0.002 A 
HETATM   19  C14 UNL     1      19.665  -0.423  53.418  1.00  0.00     0.019 A 
HETATM   20  C15 UNL     1      19.537   0.031  52.116  1.00  0.00     0.011 A 
HETATM   21 BR2  UNL     1      17.935  -0.045  51.125  1.00  0.00    -0.051 Br
HETATM   22  C16 UNL     1      20.668   0.567  51.537  1.00  0.00     0.027 A 
ENDBRANCH  14  16
ENDBRANCH   1  14
TORSDOF 2
ENDMDL
MODEL 8
REMARK VINA RESULT:      -7.4      3.019      6.578
REMARK  2 active torsions:
REMARK  status: ('A' for Active; 'I' for Inactive)
REMARK    1  A    between atoms: C2_2  and  C3_3 
REMARK    2  A    between atoms: C2_2  and  C11_14 
ROOT
HETATM    1  C3  UNL     1      24.478   2.264  52.455  1.00  0.00     0.034 C 
HETATM    2  C4  UNL     1      24.334   2.061  51.103  1.00  0.00     0.034 C 
HETATM    3  C5  UNL     1      24.338   3.192  50.115  1.00  0.00    -0.054 C 
HETATM    4  C6  UNL     1      23.503   3.163  49.041  1.00  0.00     0.008 C 
HETATM    5  C7  UNL     1      22.759   4.494  49.035  1.00  0.00     0.017 C 
HETATM    6  C8  UNL     1      23.090   5.342  50.066  1.00  0.00     0.013 C 
HETATM    7 BR1  UNL     1      21.842   6.805  49.896  1.00  0.00    -0.053 Br
HETATM    8  C9  UNL     1      24.169   5.244  51.141  1.00  0.00     0.143 C 
HETATM    9  C10 UNL     1      25.230   4.434  50.369  1.00  0.00     0.070 C 
HETATM   10  N1  UNL     1      23.810   4.769  52.375  1.00  0.00    -0.326 N 
HETATM   11  N2  UNL     1      24.381   3.639  52.994  1.00  0.00    -0.308 N 
HETATM   12  H11 UNL     1      22.786   4.846  52.556  1.00  0.00     0.181 HD
HETATM   13  H12 UNL     1      24.833   3.577  53.957  1.00  0.00     0.186 HD
ENDROOT
BRANCH   1  14
HETATM   14  C2  UNL     1      24.690   1.027  53.151  1.00  0.00     0.066 C 
HETATM   15  C1  UNL     1      25.649   0.111  52.437  1.00  0.00     0.021 C 
BRANCH  14  16
HETATM   16  C11 UNL     1      23.443   0.282  53.476  1.00  0.00    -0.047 A 
HETATM   17  C12 UNL     1      23.498  -0.694  54.468  1.00  0.00     0.008 A 
HETATM   18  C13 UNL     1      22.386  -1.444  54.842  1.00  0.00     0.002 A 
HETATM   19  C14 UNL     1      21.211  -1.156  54.162  1.00  0.00     0.019 A 
HETATM   20  C15 UNL     1      21.097  -0.199  53.168  1.00  0.00     0.011 A 
HETATM   21 BR2  UNL     1      19.495   0.184  52.250  1.00  0.00    -0.051 Br
HETATM   22  C16 UNL     1      22.243   0.502  52.855  1.00  0.00     0.027 A 
ENDBRANCH  14  16
ENDBRANCH   1  14
TORSDOF 2
ENDMDL
MODEL 9
REMARK VINA RESULT:      -7.4      2.999      6.357
REMARK  2 active torsions:
REMARK  status: ('A' for Active; 'I' for Inactive)
REMARK    1  A    between atoms: C2_2  and  C3_3 
REMARK    2  A    between atoms: C2_2  and  C11_14 
ROOT
HETATM    1  C3  UNL     1      24.580   2.737  51.336  1.00  0.00     0.034 C 
HETATM    2  C4  UNL     1      24.036   2.593  50.082  1.00  0.00     0.034 C 
HETATM    3  C5  UNL     1      22.554   2.626  49.840  1.00  0.00    -0.054 C 
HETATM    4  C6  UNL     1      21.994   1.795  48.921  1.00  0.00     0.008 C 
HETATM    5  C7  UNL     1      20.844   1.081  49.625  1.00  0.00     0.017 C 
HETATM    6  C8  UNL     1      20.676   1.429  50.945  1.00  0.00     0.013 C 
HETATM    7 BR1  UNL     1      19.318   0.215  51.584  1.00  0.00    -0.053 Br
HETATM    8  C9  UNL     1      21.350   2.502  51.796  1.00  0.00     0.143 C 
HETATM    9  C10 UNL     1      21.653   3.546  50.703  1.00  0.00     0.070 C 
HETATM   10  N1  UNL     1      22.396   2.127  52.597  1.00  0.00    -0.326 N 
HETATM   11  N2  UNL     1      23.695   2.670  52.521  1.00  0.00    -0.308 N 
HETATM   12  H11 UNL     1      22.405   1.105  52.801  1.00  0.00     0.181 HD
HETATM   13  H12 UNL     1      24.266   3.118  53.302  1.00  0.00     0.186 HD
ENDROOT
BRANCH   1  14
HETATM   14  C2  UNL     1      26.002   2.918  51.273  1.00  0.00     0.066 C 
HETATM   15  C1  UNL     1      26.518   3.008  49.860  1.00  0.00     0.021 C 
BRANCH  14  16
HETATM   16  C11 UNL     1      26.787   1.898  52.021  1.00  0.00    -0.047 A 
HETATM   17  C12 UNL     1      27.799   2.338  52.870  1.00  0.00     0.008 A 
HETATM   18  C13 UNL     1      28.587   1.462  53.611  1.00  0.00     0.002 A 
HETATM   19  C14 UNL     1      28.299   0.113  53.452  1.00  0.00     0.019 A 
HETATM   20  C15 UNL     1      27.306  -0.382  52.624  1.00  0.00     0.011 A 
HETATM   21 BR2  UNL     1      26.923  -2.215  52.414  1.00  0.00    -0.051 Br
HETATM   22  C16 UNL     1      26.569   0.550  51.923  1.00  0.00     0.027 A 
ENDBRANCH  14  16
ENDBRANCH   1  14
TORSDOF 2
ENDMDL
