MODEL 1
REMARK VINA RESULT:      -8.0      0.000      0.000
REMARK  5 active torsions:
REMARK  status: ('A' for Active; 'I' for Inactive)
REMARK    1  A    between atoms: O1_2  and  C2_3 
REMARK    2  A    between atoms: C5_6  and  N1_7 
REMARK    3  A    between atoms: C7_11  and  C8_12 
REMARK    4  A    between atoms: C8_12  and  C9_13 
REMARK    5  A    between atoms: C9_13  and  C10_14 
ROOT
HETATM    1  C2  UNL     1      25.651   5.231  49.595  1.00  0.00     0.105 A 
HETATM    2  C3  UNL     1      25.471   6.563  49.899  1.00  0.00     0.018 A 
HETATM    3  C4  UNL     1      26.157   7.706  49.224  1.00  0.00     0.055 C 
HETATM    4  C5  UNL     1      24.536   6.600  50.937  1.00  0.00     0.115 A 
HETATM    5  N2  UNL     1      24.173   5.332  51.241  1.00  0.00    -0.289 N 
HETATM    6  C6  UNL     1      23.293   4.910  52.182  1.00  0.00     0.216 A 
HETATM    7  N3  UNL     1      23.068   3.582  52.323  1.00  0.00    -0.248 NA
HETATM    8  C7  UNL     1      23.692   2.668  51.562  1.00  0.00     0.038 A 
HETATM    9  C16 UNL     1      24.577   3.132  50.619  1.00  0.00     0.060 A 
HETATM   10  C17 UNL     1      24.845   4.478  50.431  1.00  0.00     0.077 A 
ENDROOT
BRANCH   8  11
HETATM   11  C8  UNL     1      23.417   1.197  51.735  1.00  0.00     0.064 C 
BRANCH  11  12
HETATM   12  C9  UNL     1      23.867   0.870  53.131  1.00  0.00     0.048 C 
BRANCH  12  13
HETATM   13  C10 UNL     1      25.282   0.500  53.254  1.00  0.00    -0.019 A 
HETATM   14  C11 UNL     1      25.727  -0.743  52.852  1.00  0.00     0.011 A 
HETATM   15  C12 UNL     1      27.037  -1.154  52.937  1.00  0.00     0.020 A 
HETATM   16  C13 UNL     1      27.999  -0.313  53.447  1.00  0.00     0.013 A 
HETATM   17 BR1  UNL     1      29.830  -0.817  53.597  1.00  0.00    -0.051 Br
HETATM   18  C14 UNL     1      27.566   0.950  53.860  1.00  0.00     0.061 A 
HETATM   19  C15 UNL     1      26.260   1.338  53.766  1.00  0.00     0.123 A 
HETATM   20  F1  UNL     1      25.878   2.570  54.178  1.00  0.00    -0.206 F 
ENDBRANCH  12  13
ENDBRANCH  11  12
ENDBRANCH   8  11
BRANCH   1  21
HETATM   21  O1  UNL     1      26.480   4.690  48.634  1.00  0.00    -0.353 OA
HETATM   22  C1  UNL     1      27.860   4.872  48.732  1.00  0.00     0.210 C 
ENDBRANCH   1  21
BRANCH   4  23
HETATM   23  N1  UNL     1      24.096   7.839  51.522  1.00  0.00    -0.385 N 
HETATM   24  H7  UNL     1      23.101   8.000  51.844  1.00  0.00     0.157 HD
HETATM   25  H8  UNL     1      24.779   8.639  51.648  1.00  0.00     0.157 HD
ENDBRANCH   4  23
TORSDOF 5
ENDMDL
MODEL 2
REMARK VINA RESULT:      -7.9      4.906      7.057
REMARK  5 active torsions:
REMARK  status: ('A' for Active; 'I' for Inactive)
REMARK    1  A    between atoms: O1_2  and  C2_3 
REMARK    2  A    between atoms: C5_6  and  N1_7 
REMARK    3  A    between atoms: C7_11  and  C8_12 
REMARK    4  A    between atoms: C8_12  and  C9_13 
REMARK    5  A    between atoms: C9_13  and  C10_14 
ROOT
HETATM    1  C2  UNL     1      27.613  -0.759  53.398  1.00  0.00     0.105 A 
HETATM    2  C3  UNL     1      28.802  -0.156  53.749  1.00  0.00     0.018 A 
HETATM    3  C4  UNL     1      30.114  -0.853  53.901  1.00  0.00     0.055 C 
HETATM    4  C5  UNL     1      28.512   1.201  53.918  1.00  0.00     0.115 A 
HETATM    5  N2  UNL     1      27.196   1.399  53.677  1.00  0.00    -0.289 N 
HETATM    6  C6  UNL     1      26.494   2.558  53.726  1.00  0.00     0.216 A 
HETATM    7  N3  UNL     1      25.170   2.538  53.443  1.00  0.00    -0.248 NA
HETATM    8  C7  UNL     1      24.528   1.404  53.118  1.00  0.00     0.038 A 
HETATM    9  C16 UNL     1      25.270   0.249  53.078  1.00  0.00     0.060 A 
HETATM   10  C17 UNL     1      26.626   0.211  53.357  1.00  0.00     0.077 A 
ENDROOT
BRANCH   8  11
HETATM   11  C8  UNL     1      23.055   1.412  52.800  1.00  0.00     0.064 C 
BRANCH  11  12
HETATM   12  C9  UNL     1      22.599  -0.006  52.995  1.00  0.00     0.048 C 
BRANCH  12  13
HETATM   13  C10 UNL     1      21.156  -0.221  52.831  1.00  0.00    -0.019 A 
HETATM   14  C11 UNL     1      20.482   0.294  51.743  1.00  0.00     0.011 A 
HETATM   15  C12 UNL     1      19.134   0.130  51.525  1.00  0.00     0.020 A 
HETATM   16  C13 UNL     1      18.367  -0.582  52.418  1.00  0.00     0.013 A 
HETATM   17 BR1  UNL     1      16.496  -0.848  52.183  1.00  0.00    -0.051 Br
HETATM   18  C14 UNL     1      19.033  -1.112  53.527  1.00  0.00     0.061 A 
HETATM   19  C15 UNL     1      20.373  -0.937  53.723  1.00  0.00     0.123 A 
HETATM   20  F1  UNL     1      20.984  -1.464  54.810  1.00  0.00    -0.206 F 
ENDBRANCH  12  13
ENDBRANCH  11  12
ENDBRANCH   8  11
BRANCH   1  21
HETATM   21  O1  UNL     1      27.392  -2.092  53.126  1.00  0.00    -0.353 OA
HETATM   22  C1  UNL     1      26.712  -2.456  51.963  1.00  0.00     0.210 C 
ENDBRANCH   1  21
BRANCH   4  23
HETATM   23  N1  UNL     1      29.524   2.155  54.291  1.00  0.00    -0.385 N 
HETATM   24  H7  UNL     1      30.351   2.385  53.673  1.00  0.00     0.157 HD
HETATM   25  H8  UNL     1      29.459   2.662  55.219  1.00  0.00     0.157 HD
ENDBRANCH   4  23
TORSDOF 5
ENDMDL
MODEL 3
REMARK VINA RESULT:      -7.7      3.978      7.181
REMARK  5 active torsions:
REMARK  status: ('A' for Active; 'I' for Inactive)
REMARK    1  A    between atoms: O1_2  and  C2_3 
REMARK    2  A    between atoms: C5_6  and  N1_7 
REMARK    3  A    between atoms: C7_11  and  C8_12 
REMARK    4  A    between atoms: C8_12  and  C9_13 
REMARK    5  A    between atoms: C9_13  and  C10_14 
ROOT
HETATM    1  C2  UNL     1      23.073  -0.087  53.135  1.00  0.00     0.105 A 
HETATM    2  C3  UNL     1      22.963  -0.933  54.217  1.00  0.00     0.018 A 
HETATM    3  C4  UNL     1      21.736  -1.691  54.602  1.00  0.00     0.055 C 
HETATM    4  C5  UNL     1      24.213  -0.923  54.843  1.00  0.00     0.115 A 
HETATM    5  N2  UNL     1      25.038  -0.099  54.156  1.00  0.00    -0.289 N 
HETATM    6  C6  UNL     1      26.335   0.202  54.413  1.00  0.00     0.216 A 
HETATM    7  N3  UNL     1      26.987   1.058  53.591  1.00  0.00    -0.248 NA
HETATM    8  C7  UNL     1      26.388   1.621  52.529  1.00  0.00     0.038 A 
HETATM    9  C16 UNL     1      25.074   1.294  52.299  1.00  0.00     0.060 A 
HETATM   10  C17 UNL     1      24.359   0.425  53.106  1.00  0.00     0.077 A 
ENDROOT
BRANCH   8  11
HETATM   11  C8  UNL     1      27.141   2.564  51.626  1.00  0.00     0.064 C 
BRANCH  11  12
HETATM   12  C9  UNL     1      26.392   2.548  50.323  1.00  0.00     0.048 C 
BRANCH  12  13
HETATM   13  C10 UNL     1      26.236   3.859  49.682  1.00  0.00    -0.019 A 
HETATM   14  C11 UNL     1      27.308   4.483  49.076  1.00  0.00     0.011 A 
HETATM   15  C12 UNL     1      27.232   5.709  48.456  1.00  0.00     0.020 A 
HETATM   16  C13 UNL     1      26.040   6.393  48.410  1.00  0.00     0.013 A 
HETATM   17 BR1  UNL     1      25.863   8.094  47.571  1.00  0.00    -0.051 Br
HETATM   18  C14 UNL     1      24.944   5.776  49.019  1.00  0.00     0.061 A 
HETATM   19  C15 UNL     1      25.041   4.558  49.629  1.00  0.00     0.123 A 
HETATM   20  F1  UNL     1      23.957   3.992  50.209  1.00  0.00    -0.206 F 
ENDBRANCH  12  13
ENDBRANCH  11  12
ENDBRANCH   8  11
BRANCH   1  21
HETATM   21  O1  UNL     1      22.099   0.230  52.210  1.00  0.00    -0.353 OA
HETATM   22  C1  UNL     1      21.308   1.363  52.403  1.00  0.00     0.210 C 
ENDBRANCH   1  21
BRANCH   4  23
HETATM   23  N1  UNL     1      24.479  -1.701  56.025  1.00  0.00    -0.385 N 
HETATM   24  H7  UNL     1      25.022  -1.322  56.850  1.00  0.00     0.157 HD
HETATM   25  H8  UNL     1      24.125  -2.697  56.096  1.00  0.00     0.157 HD
ENDBRANCH   4  23
TORSDOF 5
ENDMDL
MODEL 4
REMARK VINA RESULT:      -7.6      4.416      6.542
REMARK  5 active torsions:
REMARK  status: ('A' for Active; 'I' for Inactive)
REMARK    1  A    between atoms: O1_2  and  C2_3 
REMARK    2  A    between atoms: C5_6  and  N1_7 
REMARK    3  A    between atoms: C7_11  and  C8_12 
REMARK    4  A    between atoms: C8_12  and  C9_13 
REMARK    5  A    between atoms: C9_13  and  C10_14 
ROOT
HETATM    1  C2  UNL     1      18.487   0.271  51.018  1.00  0.00     0.105 A 
HETATM    2  C3  UNL     1      17.580  -0.448  51.765  1.00  0.00     0.018 A 
HETATM    3  C4  UNL     1      16.150  -0.679  51.404  1.00  0.00     0.055 C 
HETATM    4  C5  UNL     1      18.277  -0.897  52.891  1.00  0.00     0.115 A 
HETATM    5  N2  UNL     1      19.555  -0.459  52.816  1.00  0.00    -0.289 N 
HETATM    6  C6  UNL     1      20.570  -0.665  53.691  1.00  0.00     0.216 A 
HETATM    7  N3  UNL     1      21.787  -0.136  53.423  1.00  0.00    -0.248 NA
HETATM    8  C7  UNL     1      22.021   0.588  52.317  1.00  0.00     0.038 A 
HETATM    9  C16 UNL     1      20.971   0.776  51.452  1.00  0.00     0.060 A 
HETATM   10  C17 UNL     1      19.705   0.258  51.676  1.00  0.00     0.077 A 
ENDROOT
BRANCH   8  11
HETATM   11  C8  UNL     1      23.388   1.158  52.039  1.00  0.00     0.064 C 
BRANCH  11  12
HETATM   12  C9  UNL     1      24.070   1.224  53.376  1.00  0.00     0.048 C 
BRANCH  12  13
HETATM   13  C10 UNL     1      25.435   0.686  53.403  1.00  0.00    -0.019 A 
HETATM   14  C11 UNL     1      25.682  -0.634  53.086  1.00  0.00     0.011 A 
HETATM   15  C12 UNL     1      26.935  -1.204  53.089  1.00  0.00     0.020 A 
HETATM   16  C13 UNL     1      28.039  -0.454  53.421  1.00  0.00     0.013 A 
HETATM   17 BR1  UNL     1      29.801  -1.176  53.448  1.00  0.00    -0.051 Br
HETATM   18  C14 UNL     1      27.808   0.886  53.745  1.00  0.00     0.061 A 
HETATM   19  C15 UNL     1      26.555   1.431  53.736  1.00  0.00     0.123 A 
HETATM   20  F1  UNL     1      26.370   2.733  54.057  1.00  0.00    -0.206 F 
ENDBRANCH  12  13
ENDBRANCH  11  12
ENDBRANCH   8  11
BRANCH   1  21
HETATM   21  O1  UNL     1      18.270   0.911  49.816  1.00  0.00    -0.353 OA
HETATM   22  C1  UNL     1      17.894   2.255  49.808  1.00  0.00     0.210 C 
ENDBRANCH   1  21
BRANCH   4  23
HETATM   23  N1  UNL     1      17.644  -1.692  53.911  1.00  0.00    -0.385 N 
HETATM   24  H7  UNL     1      16.728  -2.199  53.758  1.00  0.00     0.157 HD
HETATM   25  H8  UNL     1      18.096  -1.790  54.864  1.00  0.00     0.157 HD
ENDBRANCH   4  23
TORSDOF 5
ENDMDL
MODEL 5
REMARK VINA RESULT:      -7.6      3.441      6.753
REMARK  5 active torsions:
REMARK  status: ('A' for Active; 'I' for Inactive)
REMARK    1  A    between atoms: O1_2  and  C2_3 
REMARK    2  A    between atoms: C5_6  and  N1_7 
REMARK    3  A    between atoms: C7_11  and  C8_12 
REMARK    4  A    between atoms: C8_12  and  C9_13 
REMARK    5  A    between atoms: C9_13  and  C10_14 
ROOT
HETATM    1  C2  UNL     1      23.767   0.210  53.340  1.00  0.00     0.105 A 
HETATM    2  C3  UNL     1      22.702  -0.444  53.920  1.00  0.00     0.018 A 
HETATM    3  C4  UNL     1      22.771  -1.293  55.147  1.00  0.00     0.055 C 
HETATM    4  C5  UNL     1      21.587  -0.142  53.132  1.00  0.00     0.115 A 
HETATM    5  N2  UNL     1      21.976   0.665  52.118  1.00  0.00    -0.289 N 
HETATM    6  C6  UNL     1      21.220   1.196  51.125  1.00  0.00     0.216 A 
HETATM    7  N3  UNL     1      21.812   1.989  50.201  1.00  0.00    -0.248 NA
HETATM    8  C7  UNL     1      23.126   2.265  50.235  1.00  0.00     0.038 A 
HETATM    9  C16 UNL     1      23.861   1.710  51.254  1.00  0.00     0.060 A 
HETATM   10  C17 UNL     1      23.308   0.893  52.226  1.00  0.00     0.077 A 
ENDROOT
BRANCH   8  11
HETATM   11  C8  UNL     1      23.757   3.159  49.198  1.00  0.00     0.064 C 
BRANCH  11  12
HETATM   12  C9  UNL     1      24.356   4.300  49.969  1.00  0.00     0.048 C 
BRANCH  12  13
HETATM   13  C10 UNL     1      25.561   4.887  49.370  1.00  0.00    -0.019 A 
HETATM   14  C11 UNL     1      25.559   6.185  48.902  1.00  0.00     0.011 A 
HETATM   15  C12 UNL     1      26.651   6.798  48.332  1.00  0.00     0.020 A 
HETATM   16  C13 UNL     1      27.839   6.118  48.199  1.00  0.00     0.013 A 
HETATM   17 BR1  UNL     1      29.390   6.902  47.418  1.00  0.00    -0.051 Br
HETATM   18  C14 UNL     1      27.860   4.802  48.669  1.00  0.00     0.061 A 
HETATM   19  C15 UNL     1      26.764   4.213  49.231  1.00  0.00     0.123 A 
HETATM   20  F1  UNL     1      26.822   2.935  49.674  1.00  0.00    -0.206 F 
ENDBRANCH  12  13
ENDBRANCH  11  12
ENDBRANCH   8  11
BRANCH   1  21
HETATM   21  O1  UNL     1      25.081   0.216  53.757  1.00  0.00    -0.353 OA
HETATM   22  C1  UNL     1      25.978  -0.712  53.226  1.00  0.00     0.210 C 
ENDBRANCH   1  21
BRANCH   4  23
HETATM   23  N1  UNL     1      20.278  -0.657  53.436  1.00  0.00    -0.385 N 
HETATM   24  H7  UNL     1      19.741  -1.286  52.775  1.00  0.00     0.157 HD
HETATM   25  H8  UNL     1      19.810  -0.412  54.354  1.00  0.00     0.157 HD
ENDBRANCH   4  23
TORSDOF 5
ENDMDL
MODEL 6
REMARK VINA RESULT:      -7.5      4.027      7.409
REMARK  5 active torsions:
REMARK  status: ('A' for Active; 'I' for Inactive)
REMARK    1  A    between atoms: O1_2  and  C2_3 
REMARK    2  A    between atoms: C5_6  and  N1_7 
REMARK    3  A    between atoms: C7_11  and  C8_12 
REMARK    4  A    between atoms: C8_12  and  C9_13 
REMARK    5  A    between atoms: C9_13  and  C10_14 
ROOT
HETATM    1  C2  UNL     1      22.879   0.585  52.904  1.00  0.00     0.105 A 
HETATM    2  C3  UNL     1      23.452  -0.281  53.810  1.00  0.00     0.018 A 
HETATM    3  C4  UNL     1      22.705  -1.156  54.762  1.00  0.00     0.055 C 
HETATM    4  C5  UNL     1      24.834  -0.161  53.639  1.00  0.00     0.115 A 
HETATM    5  N2  UNL     1      25.075   0.747  52.664  1.00  0.00    -0.289 N 
HETATM    6  C6  UNL     1      26.270   1.165  52.178  1.00  0.00     0.216 A 
HETATM    7  N3  UNL     1      26.290   2.089  51.189  1.00  0.00    -0.248 NA
HETATM    8  C7  UNL     1      25.163   2.607  50.673  1.00  0.00     0.038 A 
HETATM    9  C16 UNL     1      23.971   2.160  51.189  1.00  0.00     0.060 A 
HETATM   10  C17 UNL     1      23.891   1.217  52.201  1.00  0.00     0.077 A 
ENDROOT
BRANCH   8  11
HETATM   11  C8  UNL     1      25.214   3.627  49.566  1.00  0.00     0.064 C 
BRANCH  11  12
HETATM   12  C9  UNL     1      26.673   3.930  49.373  1.00  0.00     0.048 C 
BRANCH  12  13
HETATM   13  C10 UNL     1      26.966   5.279  48.873  1.00  0.00    -0.019 A 
HETATM   14  C11 UNL     1      26.046   6.299  49.008  1.00  0.00     0.011 A 
HETATM   15  C12 UNL     1      26.255   7.585  48.565  1.00  0.00     0.020 A 
HETATM   16  C13 UNL     1      27.434   7.924  47.945  1.00  0.00     0.013 A 
HETATM   17 BR1  UNL     1      27.790   9.682  47.305  1.00  0.00    -0.051 Br
HETATM   18  C14 UNL     1      28.378   6.903  47.800  1.00  0.00     0.061 A 
HETATM   19  C15 UNL     1      28.150   5.633  48.247  1.00  0.00     0.123 A 
HETATM   20  F1  UNL     1      29.088   4.669  48.087  1.00  0.00    -0.206 F 
ENDBRANCH  12  13
ENDBRANCH  11  12
ENDBRANCH   8  11
BRANCH   1  21
HETATM   21  O1  UNL     1      21.536   0.820  52.695  1.00  0.00    -0.353 OA
HETATM   22  C1  UNL     1      20.901   0.254  51.589  1.00  0.00     0.210 C 
ENDBRANCH   1  21
BRANCH   4  23
HETATM   23  N1  UNL     1      25.768  -0.924  54.424  1.00  0.00    -0.385 N 
HETATM   24  H7  UNL     1      26.563  -1.474  53.995  1.00  0.00     0.157 HD
HETATM   25  H8  UNL     1      25.677  -0.951  55.479  1.00  0.00     0.157 HD
ENDBRANCH   4  23
TORSDOF 5
ENDMDL
MODEL 7
REMARK VINA RESULT:      -7.4      5.847      8.749
REMARK  5 active torsions:
REMARK  status: ('A' for Active; 'I' for Inactive)
REMARK    1  A    between atoms: O1_2  and  C2_3 
REMARK    2  A    between atoms: C5_6  and  N1_7 
REMARK    3  A    between atoms: C7_11  and  C8_12 
REMARK    4  A    between atoms: C8_12  and  C9_13 
REMARK    5  A    between atoms: C9_13  and  C10_14 
ROOT
HETATM    1  C2  UNL     1      33.116   5.076  45.893  1.00  0.00     0.105 A 
HETATM    2  C3  UNL     1      34.175   4.382  46.437  1.00  0.00     0.018 A 
HETATM    3  C4  UNL     1      35.167   3.573  45.668  1.00  0.00     0.055 C 
HETATM    4  C5  UNL     1      34.114   4.603  47.816  1.00  0.00     0.115 A 
HETATM    5  N2  UNL     1      33.054   5.400  48.083  1.00  0.00    -0.289 N 
HETATM    6  C6  UNL     1      32.628   5.863  49.284  1.00  0.00     0.216 A 
HETATM    7  N3  UNL     1      31.535   6.660  49.332  1.00  0.00    -0.248 NA
HETATM    8  C7  UNL     1      30.857   7.007  48.225  1.00  0.00     0.038 A 
HETATM    9  C16 UNL     1      31.316   6.520  47.026  1.00  0.00     0.060 A 
HETATM   10  C17 UNL     1      32.429   5.702  46.918  1.00  0.00     0.077 A 
ENDROOT
BRANCH   8  11
HETATM   11  C8  UNL     1      29.648   7.903  48.307  1.00  0.00     0.064 C 
BRANCH  11  12
HETATM   12  C9  UNL     1      28.590   7.217  47.489  1.00  0.00     0.048 C 
BRANCH  12  13
HETATM   13  C10 UNL     1      27.652   6.391  48.258  1.00  0.00    -0.019 A 
HETATM   14  C11 UNL     1      26.505   6.937  48.799  1.00  0.00     0.011 A 
HETATM   15  C12 UNL     1      25.583   6.221  49.528  1.00  0.00     0.020 A 
HETATM   16  C13 UNL     1      25.770   4.878  49.759  1.00  0.00     0.013 A 
HETATM   17 BR1  UNL     1      24.538   3.826  50.760  1.00  0.00    -0.051 Br
HETATM   18  C14 UNL     1      26.927   4.308  49.218  1.00  0.00     0.061 A 
HETATM   19  C15 UNL     1      27.829   5.037  48.498  1.00  0.00     0.123 A 
HETATM   20  F1  UNL     1      28.938   4.450  47.990  1.00  0.00    -0.206 F 
ENDBRANCH  12  13
ENDBRANCH  11  12
ENDBRANCH   8  11
BRANCH   1  21
HETATM   21  O1  UNL     1      32.760   5.163  44.563  1.00  0.00    -0.353 OA
HETATM   22  C1  UNL     1      33.191   6.251  43.804  1.00  0.00     0.210 C 
ENDBRANCH   1  21
BRANCH   4  23
HETATM   23  N1  UNL     1      35.072   4.027  48.723  1.00  0.00    -0.385 N 
HETATM   24  H7  UNL     1      35.046   4.194  49.767  1.00  0.00     0.157 HD
HETATM   25  H8  UNL     1      35.846   3.405  48.353  1.00  0.00     0.157 HD
ENDBRANCH   4  23
TORSDOF 5
ENDMDL
MODEL 8
REMARK VINA RESULT:      -7.2      5.426      8.093
REMARK  5 active torsions:
REMARK  status: ('A' for Active; 'I' for Inactive)
REMARK    1  A    between atoms: O1_2  and  C2_3 
REMARK    2  A    between atoms: C5_6  and  N1_7 
REMARK    3  A    between atoms: C7_11  and  C8_12 
REMARK    4  A    between atoms: C8_12  and  C9_13 
REMARK    5  A    between atoms: C9_13  and  C10_14 
ROOT
HETATM    1  C2  UNL     1      32.633   4.961  48.184  1.00  0.00     0.105 A 
HETATM    2  C3  UNL     1      33.956   5.334  48.285  1.00  0.00     0.018 A 
HETATM    3  C4  UNL     1      35.127   4.420  48.128  1.00  0.00     0.055 C 
HETATM    4  C5  UNL     1      33.952   6.706  48.552  1.00  0.00     0.115 A 
HETATM    5  N2  UNL     1      32.670   7.135  48.609  1.00  0.00    -0.289 N 
HETATM    6  C6  UNL     1      32.210   8.389  48.843  1.00  0.00     0.216 A 
HETATM    7  N3  UNL     1      30.874   8.607  48.854  1.00  0.00    -0.248 NA
HETATM    8  C7  UNL     1      29.988   7.620  48.643  1.00  0.00     0.038 A 
HETATM    9  C16 UNL     1      30.489   6.363  48.410  1.00  0.00     0.060 A 
HETATM   10  C17 UNL     1      31.845   6.082  48.386  1.00  0.00     0.077 A 
ENDROOT
BRANCH   8  11
HETATM   11  C8  UNL     1      28.506   7.894  48.653  1.00  0.00     0.064 C 
BRANCH  11  12
HETATM   12  C9  UNL     1      27.900   6.830  47.782  1.00  0.00     0.048 C 
BRANCH  12  13
HETATM   13  C10 UNL     1      26.997   5.903  48.475  1.00  0.00    -0.019 A 
HETATM   14  C11 UNL     1      27.414   4.635  48.825  1.00  0.00     0.011 A 
HETATM   15  C12 UNL     1      26.622   3.718  49.476  1.00  0.00     0.020 A 
HETATM   16  C13 UNL     1      25.328   4.035  49.819  1.00  0.00     0.013 A 
HETATM   17 BR1  UNL     1      24.174   2.815  50.718  1.00  0.00    -0.051 Br
HETATM   18  C14 UNL     1      24.888   5.316  49.472  1.00  0.00     0.061 A 
HETATM   19  C15 UNL     1      25.692   6.211  48.826  1.00  0.00     0.123 A 
HETATM   20  F1  UNL     1      25.230   7.443  48.505  1.00  0.00    -0.206 F 
ENDBRANCH  12  13
ENDBRANCH  11  12
ENDBRANCH   8  11
BRANCH   1  21
HETATM   21  O1  UNL     1      32.128   3.704  47.927  1.00  0.00    -0.353 OA
HETATM   22  C1  UNL     1      31.976   3.278  46.607  1.00  0.00     0.210 C 
ENDBRANCH   1  21
BRANCH   4  23
HETATM   23  N1  UNL     1      35.171   7.451  48.725  1.00  0.00    -0.385 N 
HETATM   24  H7  UNL     1      35.622   7.604  49.670  1.00  0.00     0.157 HD
HETATM   25  H8  UNL     1      35.658   7.875  47.884  1.00  0.00     0.157 HD
ENDBRANCH   4  23
TORSDOF 5
ENDMDL
MODEL 9
REMARK VINA RESULT:      -7.1      3.690      5.896
REMARK  5 active torsions:
REMARK  status: ('A' for Active; 'I' for Inactive)
REMARK    1  A    between atoms: O1_2  and  C2_3 
REMARK    2  A    between atoms: C5_6  and  N1_7 
REMARK    3  A    between atoms: C7_11  and  C8_12 
REMARK    4  A    between atoms: C8_12  and  C9_13 
REMARK    5  A    between atoms: C9_13  and  C10_14 
ROOT
HETATM    1  C2  UNL     1      19.908   0.118  52.012  1.00  0.00     0.105 A 
HETATM    2  C3  UNL     1      18.722   0.143  51.311  1.00  0.00     0.018 A 
HETATM    3  C4  UNL     1      17.460  -0.541  51.720  1.00  0.00     0.055 C 
HETATM    4  C5  UNL     1      18.961   0.926  50.177  1.00  0.00     0.115 A 
HETATM    5  N2  UNL     1      20.245   1.351  50.204  1.00  0.00    -0.289 N 
HETATM    6  C6  UNL     1      20.893   2.132  49.304  1.00  0.00     0.216 A 
HETATM    7  N3  UNL     1      22.192   2.447  49.523  1.00  0.00    -0.248 NA
HETATM    8  C7  UNL     1      22.860   2.009  50.603  1.00  0.00     0.038 A 
HETATM    9  C16 UNL     1      22.172   1.221  51.492  1.00  0.00     0.060 A 
HETATM   10  C17 UNL     1      20.844   0.868  51.320  1.00  0.00     0.077 A 
ENDROOT
BRANCH   8  11
HETATM   11  C8  UNL     1      24.302   2.383  50.825  1.00  0.00     0.064 C 
BRANCH  11  12
HETATM   12  C9  UNL     1      24.543   2.179  52.294  1.00  0.00     0.048 C 
BRANCH  12  13
HETATM   13  C10 UNL     1      25.762   1.430  52.624  1.00  0.00    -0.019 A 
HETATM   14  C11 UNL     1      26.985   2.064  52.698  1.00  0.00     0.011 A 
HETATM   15  C12 UNL     1      28.165   1.425  53.003  1.00  0.00     0.020 A 
HETATM   16  C13 UNL     1      28.178   0.073  53.258  1.00  0.00     0.013 A 
HETATM   17 BR1  UNL     1      29.773  -0.877  53.684  1.00  0.00    -0.051 Br
HETATM   18  C14 UNL     1      26.947  -0.586  53.188  1.00  0.00     0.061 A 
HETATM   19  C15 UNL     1      25.788   0.068  52.883  1.00  0.00     0.123 A 
HETATM   20  F1  UNL     1      24.614  -0.604  52.823  1.00  0.00    -0.206 F 
ENDBRANCH  12  13
ENDBRANCH  11  12
ENDBRANCH   8  11
BRANCH   1  21
HETATM   21  O1  UNL     1      20.170  -0.527  53.203  1.00  0.00    -0.353 OA
HETATM   22  C1  UNL     1      20.562   0.215  54.318  1.00  0.00     0.210 C 
ENDBRANCH   1  21
BRANCH   4  23
HETATM   23  N1  UNL     1      17.937   1.178  49.197  1.00  0.00    -0.385 N 
HETATM   24  H7  UNL     1      16.911   0.994  49.378  1.00  0.00     0.157 HD
HETATM   25  H8  UNL     1      18.197   1.566  48.246  1.00  0.00     0.157 HD
ENDBRANCH   4  23
TORSDOF 5
ENDMDL
