MODEL 1
REMARK VINA RESULT:     -10.6      0.000      0.000
REMARK  7 active torsions:
REMARK  status: ('A' for Active; 'I' for Inactive)
REMARK    1  A    between atoms: C8_9  and  C9_10 
REMARK    2  A    between atoms: C9_10  and  C10_11 
REMARK    3  A    between atoms: C10_11  and  C11_12 
REMARK    4  A    between atoms: C11_12  and  O2_14 
REMARK    5  A    between atoms: C13_16  and  C14_17 
REMARK    6  A    between atoms: C16_19  and  C19_22 
REMARK    7  A    between atoms: C18_21  and  C19_22 
ROOT
HETATM    1  C1  UNL     1      21.243   3.241  50.331  1.00  0.00     0.045 C 
HETATM    2  C2  UNL     1      22.616   3.449  50.835  1.00  0.00    -0.061 C 
HETATM    3  C3  UNL     1      22.604   2.711  51.931  1.00  0.00     0.011 C 
HETATM    4  C4  UNL     1      23.986   2.870  52.547  1.00  0.00     0.059 C 
HETATM    5  C5  UNL     1      24.559   1.714  51.802  1.00  0.00     0.038 C 
HETATM    6  C6  UNL     1      25.941   1.597  52.292  1.00  0.00     0.141 C 
HETATM    7  N1  UNL     1      26.630   2.454  51.531  1.00  0.00    -0.295 NA
HETATM    8  C7  UNL     1      26.076   3.472  50.887  1.00  0.00     0.089 C 
HETATM    9  C8  UNL     1      25.042   4.395  50.406  1.00  0.00     0.030 C 
HETATM   10  C12 UNL     1      23.662   4.203  50.127  1.00  0.00     0.045 C 
HETATM   11  C13 UNL     1      25.865   0.243  52.718  1.00  0.00    -0.028 C 
HETATM   12  C21 UNL     1      24.678  -0.386  53.053  1.00  0.00     0.011 C 
HETATM   13  C22 UNL     1      23.275  -0.447  53.242  1.00  0.00     0.018 C 
HETATM   14  C23 UNL     1      22.438   0.518  53.052  1.00  0.00     0.088 C 
HETATM   15  N3  UNL     1      21.858   1.808  52.734  1.00  0.00    -0.369 N 
HETATM   16  H27 UNL     1      21.184   2.533  52.732  1.00  0.00     0.165 HD
ENDROOT
BRANCH  11  17
HETATM   17  C14 UNL     1      27.045  -0.587  52.938  1.00  0.00    -0.032 A 
HETATM   18  C15 UNL     1      28.025  -1.274  53.107  1.00  0.00     0.027 A 
HETATM   19  C16 UNL     1      29.531  -1.394  53.506  1.00  0.00     0.034 A 
HETATM   20  C20 UNL     1      27.269  -2.634  52.645  1.00  0.00     0.131 A 
HETATM   21  C18 UNL     1      28.919  -0.094  53.528  1.00  0.00     0.061 A 
HETATM   22  C19 UNL     1      28.227  -1.438  53.138  1.00  0.00     0.048 A 
HETATM   23  C17 UNL     1      30.222  -0.139  53.883  1.00  0.00    -0.012 A 
HETATM   24  N2  UNL     1      28.480  -3.095  52.965  1.00  0.00    -0.408 N 
HETATM   25  H21 UNL     1      29.325  -3.437  53.186  1.00  0.00     0.154 HD
ENDBRANCH  11  17
BRANCH   9  26
HETATM   26  C9  UNL     1      25.680   4.886  49.078  1.00  0.00     0.020 C 
BRANCH  26  27
HETATM   27  C10 UNL     1      27.089   4.615  48.850  1.00  0.00     0.110 C 
BRANCH  27  28
HETATM   28  C11 UNL     1      27.945   5.723  48.422  1.00  0.00     0.139 C 
HETATM   29  O1  UNL     1      28.269   6.824  47.850  1.00  0.00    -0.650 OA
BRANCH  28  30
HETATM   30  O2  UNL     1      29.212   5.457  48.939  1.00  0.00    -0.776 OA
HETATM   31  H15 UNL     1      29.830   6.142  49.308  1.00  0.00     0.167 HD
ENDBRANCH  28  30
ENDBRANCH  27  28
ENDBRANCH  26  27
ENDBRANCH   9  26
TORSDOF 7
ENDMDL
MODEL 2
REMARK VINA RESULT:     -10.0      3.003      6.701
REMARK  7 active torsions:
REMARK  status: ('A' for Active; 'I' for Inactive)
REMARK    1  A    between atoms: C8_9  and  C9_10 
REMARK    2  A    between atoms: C9_10  and  C10_11 
REMARK    3  A    between atoms: C10_11  and  C11_12 
REMARK    4  A    between atoms: C11_12  and  O2_14 
REMARK    5  A    between atoms: C13_16  and  C14_17 
REMARK    6  A    between atoms: C16_19  and  C19_22 
REMARK    7  A    between atoms: C18_21  and  C19_22 
ROOT
HETATM    1  C1  UNL     1      26.477   3.402  49.765  1.00  0.00     0.045 C 
HETATM    2  C2  UNL     1      26.037   2.697  50.987  1.00  0.00    -0.061 C 
HETATM    3  C3  UNL     1      24.894   3.308  51.240  1.00  0.00     0.011 C 
HETATM    4  C4  UNL     1      24.357   2.660  52.508  1.00  0.00     0.059 C 
HETATM    5  C5  UNL     1      23.605   1.607  51.770  1.00  0.00     0.038 C 
HETATM    6  C6  UNL     1      22.899   0.846  52.812  1.00  0.00     0.141 C 
HETATM    7  N1  UNL     1      23.798  -0.055  53.222  1.00  0.00    -0.295 NA
HETATM    8  C7  UNL     1      25.107   0.087  53.060  1.00  0.00     0.089 C 
HETATM    9  C8  UNL     1      26.384   0.689  52.663  1.00  0.00     0.030 C 
HETATM   10  C12 UNL     1      26.730   1.543  51.582  1.00  0.00     0.045 C 
HETATM   11  C13 UNL     1      21.586   1.004  52.291  1.00  0.00    -0.028 C 
HETATM   12  C21 UNL     1      21.217   2.045  51.456  1.00  0.00     0.011 C 
HETATM   13  C22 UNL     1      21.450   3.230  50.714  1.00  0.00     0.018 C 
HETATM   14  C23 UNL     1      22.569   3.870  50.631  1.00  0.00     0.088 C 
HETATM   15  N3  UNL     1      23.951   4.272  50.797  1.00  0.00    -0.369 N 
HETATM   16  H27 UNL     1      24.735   4.877  50.793  1.00  0.00     0.165 HD
ENDROOT
BRANCH  11  17
HETATM   17  C14 UNL     1      20.473   0.138  52.666  1.00  0.00    -0.032 A 
HETATM   18  C15 UNL     1      19.549  -0.570  52.987  1.00  0.00     0.027 A 
HETATM   19  C16 UNL     1      18.055  -0.994  52.813  1.00  0.00     0.034 A 
HETATM   20  C20 UNL     1      20.409  -1.338  54.130  1.00  0.00     0.131 A 
HETATM   21  C18 UNL     1      18.564   0.070  51.993  1.00  0.00     0.061 A 
HETATM   22  C19 UNL     1      19.359  -0.732  53.071  1.00  0.00     0.048 A 
HETATM   23  C17 UNL     1      17.268  -0.255  51.798  1.00  0.00    -0.012 A 
HETATM   24  N2  UNL     1      19.236  -1.970  54.207  1.00  0.00    -0.408 N 
HETATM   25  H21 UNL     1      18.419  -2.425  54.275  1.00  0.00     0.154 HD
ENDBRANCH  11  17
BRANCH   9  26
HETATM   26  C9  UNL     1      27.269  -0.577  52.504  1.00  0.00     0.020 C 
BRANCH  26  27
HETATM   27  C10 UNL     1      28.338  -0.796  53.464  1.00  0.00     0.110 C 
BRANCH  27  28
HETATM   28  C11 UNL     1      28.933   0.374  54.112  1.00  0.00     0.139 C 
HETATM   29  O1  UNL     1      29.042   1.352  54.934  1.00  0.00    -0.650 OA
BRANCH  28  30
HETATM   30  O2  UNL     1      30.142   0.608  53.457  1.00  0.00    -0.776 OA
HETATM   31  H15 UNL     1      30.754  -0.101  53.125  1.00  0.00     0.167 HD
ENDBRANCH  28  30
ENDBRANCH  27  28
ENDBRANCH  26  27
ENDBRANCH   9  26
TORSDOF 7
ENDMDL
MODEL 3
REMARK VINA RESULT:      -9.9      3.325      4.138
REMARK  7 active torsions:
REMARK  status: ('A' for Active; 'I' for Inactive)
REMARK    1  A    between atoms: C8_9  and  C9_10 
REMARK    2  A    between atoms: C9_10  and  C10_11 
REMARK    3  A    between atoms: C10_11  and  C11_12 
REMARK    4  A    between atoms: C11_12  and  O2_14 
REMARK    5  A    between atoms: C13_16  and  C14_17 
REMARK    6  A    between atoms: C16_19  and  C19_22 
REMARK    7  A    between atoms: C18_21  and  C19_22 
ROOT
HETATM    1  C1  UNL     1      18.419  -0.435  51.750  1.00  0.00     0.045 C 
HETATM    2  C2  UNL     1      19.568   0.479  51.581  1.00  0.00    -0.061 C 
HETATM    3  C3  UNL     1      20.103   0.446  52.789  1.00  0.00     0.011 C 
HETATM    4  C4  UNL     1      21.303   1.380  52.729  1.00  0.00     0.059 C 
HETATM    5  C5  UNL     1      22.244   0.305  52.308  1.00  0.00     0.038 C 
HETATM    6  C6  UNL     1      23.560   0.959  52.244  1.00  0.00     0.141 C 
HETATM    7  N1  UNL     1      23.597   1.498  51.021  1.00  0.00    -0.295 NA
HETATM    8  C7  UNL     1      22.514   1.773  50.307  1.00  0.00     0.089 C 
HETATM    9  C8  UNL     1      21.095   1.882  49.950  1.00  0.00     0.030 C 
HETATM   10  C12 UNL     1      19.969   1.092  50.305  1.00  0.00     0.045 C 
HETATM   11  C13 UNL     1      24.238   0.083  53.134  1.00  0.00    -0.028 C 
HETATM   12  C21 UNL     1      23.594  -0.672  54.100  1.00  0.00     0.011 C 
HETATM   13  C22 UNL     1      22.460  -1.131  54.814  1.00  0.00     0.018 C 
HETATM   14  C23 UNL     1      21.235  -0.772  54.613  1.00  0.00     0.088 C 
HETATM   15  N3  UNL     1      20.049  -0.129  54.085  1.00  0.00    -0.369 N 
HETATM   16  H27 UNL     1      19.113   0.196  54.071  1.00  0.00     0.165 HD
ENDROOT
BRANCH  11  17
HETATM   17  C14 UNL     1      25.693  -0.032  53.182  1.00  0.00    -0.032 A 
HETATM   18  C15 UNL     1      26.896  -0.129  53.235  1.00  0.00     0.027 A 
HETATM   19  C16 UNL     1      28.182  -1.006  53.100  1.00  0.00     0.034 A 
HETATM   20  C20 UNL     1      27.097   1.419  53.680  1.00  0.00     0.131 A 
HETATM   21  C18 UNL     1      26.906  -1.623  52.868  1.00  0.00     0.061 A 
HETATM   22  C19 UNL     1      27.158  -0.131  53.252  1.00  0.00     0.048 A 
HETATM   23  C17 UNL     1      27.983  -2.428  52.736  1.00  0.00    -0.012 A 
HETATM   24  N2  UNL     1      28.360   0.996  53.604  1.00  0.00    -0.408 N 
HETATM   25  H21 UNL     1      29.254   0.715  53.555  1.00  0.00     0.154 HD
ENDBRANCH  11  17
BRANCH   9  26
HETATM   26  C9  UNL     1      21.177   1.830  48.400  1.00  0.00     0.020 C 
BRANCH  26  27
HETATM   27  C10 UNL     1      22.226   2.590  47.741  1.00  0.00     0.110 C 
BRANCH  27  28
HETATM   28  C11 UNL     1      21.929   3.190  46.438  1.00  0.00     0.139 C 
HETATM   29  O1  UNL     1      22.136   3.595  45.239  1.00  0.00    -0.650 OA
BRANCH  28  30
HETATM   30  O2  UNL     1      20.590   3.578  46.487  1.00  0.00    -0.776 OA
HETATM   31  H15 UNL     1      19.823   3.008  46.215  1.00  0.00     0.167 HD
ENDBRANCH  28  30
ENDBRANCH  27  28
ENDBRANCH  26  27
ENDBRANCH   9  26
TORSDOF 7
ENDMDL
MODEL 4
REMARK VINA RESULT:      -9.8      3.250      3.996
REMARK  7 active torsions:
REMARK  status: ('A' for Active; 'I' for Inactive)
REMARK    1  A    between atoms: C8_9  and  C9_10 
REMARK    2  A    between atoms: C9_10  and  C10_11 
REMARK    3  A    between atoms: C10_11  and  C11_12 
REMARK    4  A    between atoms: C11_12  and  O2_14 
REMARK    5  A    between atoms: C13_16  and  C14_17 
REMARK    6  A    between atoms: C16_19  and  C19_22 
REMARK    7  A    between atoms: C18_21  and  C19_22 
ROOT
HETATM    1  C1  UNL     1      18.450  -0.432  51.758  1.00  0.00     0.045 C 
HETATM    2  C2  UNL     1      19.592   0.490  51.583  1.00  0.00    -0.061 C 
HETATM    3  C3  UNL     1      20.126   0.473  52.792  1.00  0.00     0.011 C 
HETATM    4  C4  UNL     1      21.317   1.416  52.726  1.00  0.00     0.059 C 
HETATM    5  C5  UNL     1      22.268   0.345  52.316  1.00  0.00     0.038 C 
HETATM    6  C6  UNL     1      23.579   1.009  52.249  1.00  0.00     0.141 C 
HETATM    7  N1  UNL     1      23.613   1.537  51.020  1.00  0.00    -0.295 NA
HETATM    8  C7  UNL     1      22.529   1.797  50.302  1.00  0.00     0.089 C 
HETATM    9  C8  UNL     1      21.110   1.890  49.942  1.00  0.00     0.030 C 
HETATM   10  C12 UNL     1      19.990   1.095  50.302  1.00  0.00     0.045 C 
HETATM   11  C13 UNL     1      24.263   0.147  53.147  1.00  0.00    -0.028 C 
HETATM   12  C21 UNL     1      23.623  -0.605  54.119  1.00  0.00     0.011 C 
HETATM   13  C22 UNL     1      22.491  -1.067  54.836  1.00  0.00     0.018 C 
HETATM   14  C23 UNL     1      21.264  -0.720  54.629  1.00  0.00     0.088 C 
HETATM   15  N3  UNL     1      20.073  -0.091  54.094  1.00  0.00    -0.369 N 
HETATM   16  H27 UNL     1      19.135   0.225  54.075  1.00  0.00     0.165 HD
ENDROOT
BRANCH  11  17
HETATM   17  C14 UNL     1      25.718   0.044  53.199  1.00  0.00    -0.032 A 
HETATM   18  C15 UNL     1      26.923  -0.040  53.227  1.00  0.00     0.027 A 
HETATM   19  C16 UNL     1      28.317   0.653  53.362  1.00  0.00     0.034 A 
HETATM   20  C20 UNL     1      26.912  -1.643  52.972  1.00  0.00     0.131 A 
HETATM   21  C18 UNL     1      27.137   1.471  53.427  1.00  0.00     0.061 A 
HETATM   22  C19 UNL     1      27.183  -0.077  53.230  1.00  0.00     0.048 A 
HETATM   23  C17 UNL     1      28.314   2.122  53.551  1.00  0.00    -0.012 A 
HETATM   24  N2  UNL     1      28.218  -1.399  53.097  1.00  0.00    -0.408 N 
HETATM   25  H21 UNL     1      29.140  -1.247  53.183  1.00  0.00     0.154 HD
ENDBRANCH  11  17
BRANCH   9  26
HETATM   26  C9  UNL     1      21.196   1.825  48.392  1.00  0.00     0.020 C 
BRANCH  26  27
HETATM   27  C10 UNL     1      22.231   2.598  47.727  1.00  0.00     0.110 C 
BRANCH  27  28
HETATM   28  C11 UNL     1      21.919   3.197  46.428  1.00  0.00     0.139 C 
HETATM   29  O1  UNL     1      22.114   3.610  45.230  1.00  0.00    -0.650 OA
BRANCH  28  30
HETATM   30  O2  UNL     1      20.573   3.557  46.481  1.00  0.00    -0.776 OA
HETATM   31  H15 UNL     1      19.934   3.266  47.184  1.00  0.00     0.167 HD
ENDBRANCH  28  30
ENDBRANCH  27  28
ENDBRANCH  26  27
ENDBRANCH   9  26
TORSDOF 7
ENDMDL
MODEL 5
REMARK VINA RESULT:      -9.8      3.988      5.639
REMARK  7 active torsions:
REMARK  status: ('A' for Active; 'I' for Inactive)
REMARK    1  A    between atoms: C8_9  and  C9_10 
REMARK    2  A    between atoms: C9_10  and  C10_11 
REMARK    3  A    between atoms: C10_11  and  C11_12 
REMARK    4  A    between atoms: C11_12  and  O2_14 
REMARK    5  A    between atoms: C13_16  and  C14_17 
REMARK    6  A    between atoms: C16_19  and  C19_22 
REMARK    7  A    between atoms: C18_21  and  C19_22 
ROOT
HETATM    1  C1  UNL     1      21.862   5.078  51.238  1.00  0.00     0.045 C 
HETATM    2  C2  UNL     1      22.034   3.611  51.287  1.00  0.00    -0.061 C 
HETATM    3  C3  UNL     1      23.137   3.456  50.576  1.00  0.00     0.011 C 
HETATM    4  C4  UNL     1      23.399   1.958  50.548  1.00  0.00     0.059 C 
HETATM    5  C5  UNL     1      24.227   1.980  51.786  1.00  0.00     0.038 C 
HETATM    6  C6  UNL     1      24.692   0.594  51.953  1.00  0.00     0.141 C 
HETATM    7  N1  UNL     1      23.692  -0.007  52.609  1.00  0.00    -0.295 NA
HETATM    8  C7  UNL     1      22.445   0.442  52.616  1.00  0.00     0.089 C 
HETATM    9  C8  UNL     1      21.292   1.300  52.322  1.00  0.00     0.030 C 
HETATM   10  C12 UNL     1      21.192   2.695  52.073  1.00  0.00     0.045 C 
HETATM   11  C13 UNL     1      26.084   0.875  51.990  1.00  0.00    -0.028 C 
HETATM   12  C21 UNL     1      26.648   2.009  51.429  1.00  0.00     0.011 C 
HETATM   13  C22 UNL     1      26.612   3.238  50.725  1.00  0.00     0.018 C 
HETATM   14  C23 UNL     1      25.557   3.811  50.246  1.00  0.00     0.088 C 
HETATM   15  N3  UNL     1      24.187   4.107  49.877  1.00  0.00    -0.369 N 
HETATM   16  H27 UNL     1      23.445   4.533  49.378  1.00  0.00     0.165 HD
ENDROOT
BRANCH  11  17
HETATM   17  C14 UNL     1      27.068  -0.054  52.537  1.00  0.00    -0.032 A 
HETATM   18  C15 UNL     1      27.888  -0.824  52.976  1.00  0.00     0.027 A 
HETATM   19  C16 UNL     1      29.273  -1.072  53.656  1.00  0.00     0.034 A 
HETATM   20  C20 UNL     1      27.011  -2.132  52.582  1.00  0.00     0.131 A 
HETATM   21  C18 UNL     1      28.878   0.282  53.382  1.00  0.00     0.061 A 
HETATM   22  C19 UNL     1      28.054  -1.007  53.066  1.00  0.00     0.048 A 
HETATM   23  C17 UNL     1      30.083   0.127  53.971  1.00  0.00    -0.012 A 
HETATM   24  N2  UNL     1      28.067  -2.688  53.178  1.00  0.00    -0.408 N 
HETATM   25  H21 UNL     1      28.802  -3.095  53.595  1.00  0.00     0.154 HD
ENDBRANCH  11  17
BRANCH   9  26
HETATM   26  C9  UNL     1      20.397   1.025  53.561  1.00  0.00     0.020 C 
BRANCH  26  27
HETATM   27  C10 UNL     1      19.903  -0.326  53.768  1.00  0.00     0.110 C 
BRANCH  27  28
HETATM   28  C11 UNL     1      18.663  -0.718  53.094  1.00  0.00     0.139 C 
HETATM   29  O1  UNL     1      17.839  -0.899  52.128  1.00  0.00    -0.650 OA
BRANCH  28  30
HETATM   30  O2  UNL     1      17.819  -1.209  54.090  1.00  0.00    -0.776 OA
HETATM   31  H15 UNL     1      17.116  -0.679  54.551  1.00  0.00     0.167 HD
ENDBRANCH  28  30
ENDBRANCH  27  28
ENDBRANCH  26  27
ENDBRANCH   9  26
TORSDOF 7
ENDMDL
MODEL 6
REMARK VINA RESULT:      -9.7      2.968      6.584
REMARK  7 active torsions:
REMARK  status: ('A' for Active; 'I' for Inactive)
REMARK    1  A    between atoms: C8_9  and  C9_10 
REMARK    2  A    between atoms: C9_10  and  C10_11 
REMARK    3  A    between atoms: C10_11  and  C11_12 
REMARK    4  A    between atoms: C11_12  and  O2_14 
REMARK    5  A    between atoms: C13_16  and  C14_17 
REMARK    6  A    between atoms: C16_19  and  C19_22 
REMARK    7  A    between atoms: C18_21  and  C19_22 
ROOT
HETATM    1  C1  UNL     1      20.888  -0.051  54.627  1.00  0.00     0.045 C 
HETATM    2  C2  UNL     1      21.989   0.072  53.648  1.00  0.00    -0.061 C 
HETATM    3  C3  UNL     1      21.433   0.841  52.729  1.00  0.00     0.011 C 
HETATM    4  C4  UNL     1      22.491   1.019  51.650  1.00  0.00     0.059 C 
HETATM    5  C5  UNL     1      23.073   2.235  52.283  1.00  0.00     0.038 C 
HETATM    6  C6  UNL     1      24.126   2.676  51.355  1.00  0.00     0.141 C 
HETATM    7  N1  UNL     1      25.195   1.955  51.711  1.00  0.00    -0.295 NA
HETATM    8  C7  UNL     1      25.121   0.811  52.376  1.00  0.00     0.089 C 
HETATM    9  C8  UNL     1      24.531  -0.338  53.071  1.00  0.00     0.030 C 
HETATM   10  C12 UNL     1      23.344  -0.468  53.841  1.00  0.00     0.045 C 
HETATM   11  C13 UNL     1      23.647   3.999  51.157  1.00  0.00    -0.028 C 
HETATM   12  C21 UNL     1      22.326   4.368  51.345  1.00  0.00     0.011 C 
HETATM   13  C22 UNL     1      20.968   4.129  51.672  1.00  0.00     0.018 C 
HETATM   14  C23 UNL     1      20.457   2.995  52.023  1.00  0.00     0.088 C 
HETATM   15  N3  UNL     1      20.288   1.596  52.361  1.00  0.00    -0.369 N 
HETATM   16  H27 UNL     1      19.811   0.741  52.510  1.00  0.00     0.165 HD
ENDROOT
BRANCH  11  17
HETATM   17  C14 UNL     1      24.483   5.078  50.640  1.00  0.00    -0.032 A 
HETATM   18  C15 UNL     1      25.183   5.970  50.224  1.00  0.00     0.027 A 
HETATM   19  C16 UNL     1      26.395   6.435  49.353  1.00  0.00     0.034 A 
HETATM   20  C20 UNL     1      24.387   7.113  51.058  1.00  0.00     0.131 A 
HETATM   21  C18 UNL     1      26.084   5.033  49.401  1.00  0.00     0.061 A 
HETATM   22  C19 UNL     1      25.325   6.176  50.144  1.00  0.00     0.048 A 
HETATM   23  C17 UNL     1      27.140   5.377  48.631  1.00  0.00    -0.012 A 
HETATM   24  N2  UNL     1      25.290   7.842  50.398  1.00  0.00    -0.408 N 
HETATM   25  H21 UNL     1      25.917   8.370  49.942  1.00  0.00     0.154 HD
ENDBRANCH  11  17
BRANCH   9  26
HETATM   26  C9  UNL     1      25.696  -0.741  54.016  1.00  0.00     0.020 C 
BRANCH  26  27
HETATM   27  C10 UNL     1      26.322   0.297  54.817  1.00  0.00     0.110 C 
BRANCH  27  28
HETATM   28  C11 UNL     1      27.783   0.397  54.798  1.00  0.00     0.139 C 
HETATM   29  O1  UNL     1      28.943   0.907  54.989  1.00  0.00    -0.650 OA
BRANCH  28  30
HETATM   30  O2  UNL     1      28.244  -0.784  54.216  1.00  0.00    -0.776 OA
HETATM   31  H15 UNL     1      27.795  -1.667  54.290  1.00  0.00     0.167 HD
ENDBRANCH  28  30
ENDBRANCH  27  28
ENDBRANCH  26  27
ENDBRANCH   9  26
TORSDOF 7
ENDMDL
MODEL 7
REMARK VINA RESULT:      -9.4      3.152      7.067
REMARK  7 active torsions:
REMARK  status: ('A' for Active; 'I' for Inactive)
REMARK    1  A    between atoms: C8_9  and  C9_10 
REMARK    2  A    between atoms: C9_10  and  C10_11 
REMARK    3  A    between atoms: C10_11  and  C11_12 
REMARK    4  A    between atoms: C11_12  and  O2_14 
REMARK    5  A    between atoms: C13_16  and  C14_17 
REMARK    6  A    between atoms: C16_19  and  C19_22 
REMARK    7  A    between atoms: C18_21  and  C19_22 
ROOT
HETATM    1  C1  UNL     1      22.778  -0.980  54.469  1.00  0.00     0.045 C 
HETATM    2  C2  UNL     1      23.419  -0.255  53.352  1.00  0.00    -0.061 C 
HETATM    3  C3  UNL     1      22.371   0.289  52.761  1.00  0.00     0.011 C 
HETATM    4  C4  UNL     1      22.925   1.056  51.570  1.00  0.00     0.059 C 
HETATM    5  C5  UNL     1      23.115   2.315  52.343  1.00  0.00     0.038 C 
HETATM    6  C6  UNL     1      23.599   3.293  51.357  1.00  0.00     0.141 C 
HETATM    7  N1  UNL     1      24.921   3.093  51.323  1.00  0.00    -0.295 NA
HETATM    8  C7  UNL     1      25.503   1.965  51.706  1.00  0.00     0.089 C 
HETATM    9  C8  UNL     1      25.644   0.596  52.218  1.00  0.00     0.030 C 
HETATM   10  C12 UNL     1      24.873  -0.147  53.151  1.00  0.00     0.045 C 
HETATM   11  C13 UNL     1      22.592   4.273  51.567  1.00  0.00    -0.028 C 
HETATM   12  C21 UNL     1      21.341   3.982  52.085  1.00  0.00     0.011 C 
HETATM   13  C22 UNL     1      20.344   3.119  52.604  1.00  0.00     0.018 C 
HETATM   14  C23 UNL     1      20.453   1.843  52.775  1.00  0.00     0.088 C 
HETATM   15  N3  UNL     1      20.966   0.488  52.806  1.00  0.00    -0.369 N 
HETATM   16  H27 UNL     1      20.936  -0.501  52.842  1.00  0.00     0.165 HD
ENDROOT
BRANCH  11  17
HETATM   17  C14 UNL     1      22.742   5.667  51.162  1.00  0.00    -0.032 A 
HETATM   18  C15 UNL     1      22.871   6.817  50.815  1.00  0.00     0.027 A 
HETATM   19  C16 UNL     1      22.251   8.119  50.212  1.00  0.00     0.034 A 
HETATM   20  C20 UNL     1      24.452   6.851  51.184  1.00  0.00     0.131 A 
HETATM   21  C18 UNL     1      21.408   6.965  50.363  1.00  0.00     0.061 A 
HETATM   22  C19 UNL     1      22.919   7.066  50.744  1.00  0.00     0.048 A 
HETATM   23  C17 UNL     1      20.818   8.062  49.839  1.00  0.00    -0.012 A 
HETATM   24  N2  UNL     1      24.247   8.102  50.766  1.00  0.00    -0.408 N 
HETATM   25  H21 UNL     1      24.121   8.985  50.477  1.00  0.00     0.154 HD
ENDBRANCH  11  17
BRANCH   9  26
HETATM   26  C9  UNL     1      27.083   0.647  52.800  1.00  0.00     0.020 C 
BRANCH  26  27
HETATM   27  C10 UNL     1      27.640   1.945  53.146  1.00  0.00     0.110 C 
BRANCH  27  28
HETATM   28  C11 UNL     1      28.843   1.979  53.980  1.00  0.00     0.139 C 
HETATM   29  O1  UNL     1      29.624   2.348  54.927  1.00  0.00    -0.650 OA
BRANCH  28  30
HETATM   30  O2  UNL     1      29.711   1.027  53.447  1.00  0.00    -0.776 OA
HETATM   31  H15 UNL     1      30.316   1.180  52.673  1.00  0.00     0.167 HD
ENDBRANCH  28  30
ENDBRANCH  27  28
ENDBRANCH  26  27
ENDBRANCH   9  26
TORSDOF 7
ENDMDL
MODEL 8
REMARK VINA RESULT:      -9.4      2.556      6.266
REMARK  7 active torsions:
REMARK  status: ('A' for Active; 'I' for Inactive)
REMARK    1  A    between atoms: C8_9  and  C9_10 
REMARK    2  A    between atoms: C9_10  and  C10_11 
REMARK    3  A    between atoms: C10_11  and  C11_12 
REMARK    4  A    between atoms: C11_12  and  O2_14 
REMARK    5  A    between atoms: C13_16  and  C14_17 
REMARK    6  A    between atoms: C16_19  and  C19_22 
REMARK    7  A    between atoms: C18_21  and  C19_22 
ROOT
HETATM    1  C1  UNL     1      27.384   1.227  54.807  1.00  0.00     0.045 C 
HETATM    2  C2  UNL     1      26.534   1.077  53.608  1.00  0.00    -0.061 C 
HETATM    3  C3  UNL     1      25.882  -0.037  53.891  1.00  0.00     0.011 C 
HETATM    4  C4  UNL     1      24.977  -0.296  52.696  1.00  0.00     0.059 C 
HETATM    5  C5  UNL     1      23.841   0.486  53.261  1.00  0.00     0.038 C 
HETATM    6  C6  UNL     1      22.753   0.330  52.284  1.00  0.00     0.141 C 
HETATM    7  N1  UNL     1      22.988   1.287  51.380  1.00  0.00    -0.295 NA
HETATM    8  C7  UNL     1      24.175   1.847  51.196  1.00  0.00     0.089 C 
HETATM    9  C8  UNL     1      25.604   2.129  51.374  1.00  0.00     0.030 C 
HETATM   10  C12 UNL     1      26.444   2.061  52.518  1.00  0.00     0.045 C 
HETATM   11  C13 UNL     1      21.780  -0.189  53.181  1.00  0.00    -0.028 C 
HETATM   12  C21 UNL     1      22.101  -0.836  54.363  1.00  0.00     0.011 C 
HETATM   13  C22 UNL     1      22.995  -1.356  55.331  1.00  0.00     0.018 C 
HETATM   14  C23 UNL     1      24.285  -1.306  55.282  1.00  0.00     0.088 C 
HETATM   15  N3  UNL     1      25.647  -1.050  54.858  1.00  0.00    -0.369 N 
HETATM   16  H27 UNL     1      26.631  -1.161  54.821  1.00  0.00     0.165 HD
ENDROOT
BRANCH  11  17
HETATM   17  C14 UNL     1      20.349  -0.178  52.895  1.00  0.00    -0.032 A 
HETATM   18  C15 UNL     1      19.167  -0.175  52.646  1.00  0.00     0.027 A 
HETATM   19  C16 UNL     1      17.766  -0.856  52.763  1.00  0.00     0.034 A 
HETATM   20  C20 UNL     1      19.256   1.197  51.782  1.00  0.00     0.131 A 
HETATM   21  C18 UNL     1      18.892  -1.497  53.382  1.00  0.00     0.061 A 
HETATM   22  C19 UNL     1      18.913  -0.157  52.581  1.00  0.00     0.048 A 
HETATM   23  C17 UNL     1      17.706  -2.130  53.517  1.00  0.00    -0.012 A 
HETATM   24  N2  UNL     1      17.949   0.930  51.729  1.00  0.00    -0.408 N 
HETATM   25  H21 UNL     1      17.028   0.759  51.682  1.00  0.00     0.154 HD
ENDBRANCH  11  17
BRANCH   9  26
HETATM   26  C9  UNL     1      25.678   3.600  50.880  1.00  0.00     0.020 C 
BRANCH  26  27
HETATM   27  C10 UNL     1      25.883   3.840  49.462  1.00  0.00     0.110 C 
BRANCH  27  28
HETATM   28  C11 UNL     1      27.119   4.505  49.046  1.00  0.00     0.139 C 
HETATM   29  O1  UNL     1      28.275   4.639  48.507  1.00  0.00    -0.650 OA
BRANCH  28  30
HETATM   30  O2  UNL     1      27.024   5.820  49.500  1.00  0.00    -0.776 OA
HETATM   31  H15 UNL     1      26.236   6.203  49.969  1.00  0.00     0.167 HD
ENDBRANCH  28  30
ENDBRANCH  27  28
ENDBRANCH  26  27
ENDBRANCH   9  26
TORSDOF 7
ENDMDL
MODEL 9
REMARK VINA RESULT:      -9.3      3.114      6.845
REMARK  7 active torsions:
REMARK  status: ('A' for Active; 'I' for Inactive)
REMARK    1  A    between atoms: C8_9  and  C9_10 
REMARK    2  A    between atoms: C9_10  and  C10_11 
REMARK    3  A    between atoms: C10_11  and  C11_12 
REMARK    4  A    between atoms: C11_12  and  O2_14 
REMARK    5  A    between atoms: C13_16  and  C14_17 
REMARK    6  A    between atoms: C16_19  and  C19_22 
REMARK    7  A    between atoms: C18_21  and  C19_22 
ROOT
HETATM    1  C1  UNL     1      21.549   3.037  52.230  1.00  0.00     0.045 C 
HETATM    2  C2  UNL     1      22.830   2.656  51.599  1.00  0.00    -0.061 C 
HETATM    3  C3  UNL     1      22.735   3.268  50.432  1.00  0.00     0.011 C 
HETATM    4  C4  UNL     1      24.015   2.922  49.684  1.00  0.00     0.059 C 
HETATM    5  C5  UNL     1      24.760   4.098  50.215  1.00  0.00     0.038 C 
HETATM    6  C6  UNL     1      26.074   4.040  49.558  1.00  0.00     0.141 C 
HETATM    7  N1  UNL     1      26.788   3.214  50.331  1.00  0.00    -0.295 NA
HETATM    8  C7  UNL     1      26.245   2.324  51.151  1.00  0.00     0.089 C 
HETATM    9  C8  UNL     1      25.214   1.554  51.855  1.00  0.00     0.030 C 
HETATM   10  C12 UNL     1      23.898   1.894  52.267  1.00  0.00     0.045 C 
HETATM   11  C13 UNL     1      26.047   5.340  48.987  1.00  0.00    -0.028 C 
HETATM   12  C21 UNL     1      24.877   6.031  48.719  1.00  0.00     0.011 C 
HETATM   13  C22 UNL     1      23.469   6.193  48.686  1.00  0.00     0.018 C 
HETATM   14  C23 UNL     1      22.593   5.332  49.085  1.00  0.00     0.088 C 
HETATM   15  N3  UNL     1      21.965   4.140  49.620  1.00  0.00    -0.369 N 
HETATM   16  H27 UNL     1      21.244   3.482  49.785  1.00  0.00     0.165 HD
ENDROOT
BRANCH  11  17
HETATM   17  C14 UNL     1      27.248   6.035  48.534  1.00  0.00    -0.032 A 
HETATM   18  C15 UNL     1      28.245   6.613  48.173  1.00  0.00     0.027 A 
HETATM   19  C16 UNL     1      29.757   6.572  47.779  1.00  0.00     0.034 A 
HETATM   20  C20 UNL     1      27.518   8.065  48.173  1.00  0.00     0.131 A 
HETATM   21  C18 UNL     1      29.114   5.344  48.157  1.00  0.00     0.061 A 
HETATM   22  C19 UNL     1      28.452   6.756  48.095  1.00  0.00     0.048 A 
HETATM   23  C17 UNL     1      30.420   5.248  47.825  1.00  0.00    -0.012 A 
HETATM   24  N2  UNL     1      28.742   8.378  47.743  1.00  0.00    -0.408 N 
HETATM   25  H21 UNL     1      29.597   8.615  47.438  1.00  0.00     0.154 HD
ENDBRANCH  11  17
BRANCH   9  26
HETATM   26  C9  UNL     1      25.974   1.156  53.149  1.00  0.00     0.020 C 
BRANCH  26  27
HETATM   27  C10 UNL     1      27.382   0.812  53.041  1.00  0.00     0.110 C 
BRANCH  27  28
HETATM   28  C11 UNL     1      28.199   0.860  54.256  1.00  0.00     0.139 C 
HETATM   29  O1  UNL     1      29.070   1.299  55.088  1.00  0.00    -0.650 OA
BRANCH  28  30
HETATM   30  O2  UNL     1      27.830  -0.250  55.015  1.00  0.00    -0.776 OA
HETATM   31  H15 UNL     1      27.750  -0.260  56.006  1.00  0.00     0.167 HD
ENDBRANCH  28  30
ENDBRANCH  27  28
ENDBRANCH  26  27
ENDBRANCH   9  26
TORSDOF 7
ENDMDL
