MODEL 1
REMARK VINA RESULT:      -8.8      0.000      0.000
REMARK  9 active torsions:
REMARK  status: ('A' for Active; 'I' for Inactive)
REMARK    1  A    between atoms: C1_2  and  C2_3 
REMARK       I    between atoms: C1_2  and  N1_12 
REMARK    2  A    between atoms: C3_4  and  C4_5 
REMARK    3  A    between atoms: C4_5  and  C5_6 
REMARK    4  A    between atoms: C5_6  and  C6_7 
REMARK    5  A    between atoms: N1_12  and  C10_13 
REMARK    6  A    between atoms: C11_14  and  C12_15 
REMARK    7  A    between atoms: C13_16  and  N2_17 
REMARK    8  A    between atoms: N2_17  and  C14_18 
REMARK    9  A    between atoms: C21_29  and  C22_30 
ROOT
HETATM    1  C12 UNL     1      21.998   0.119  52.341  1.00  0.00     0.042 A 
HETATM    2  C13 UNL     1      23.198  -0.045  53.044  1.00  0.00     0.142 A 
HETATM    3  N3  UNL     1      23.191  -0.562  54.284  1.00  0.00    -0.224 NA
HETATM    4  C20 UNL     1      22.008  -0.930  54.865  1.00  0.00     0.236 A 
HETATM    5  N4  UNL     1      20.851  -0.779  54.208  1.00  0.00    -0.239 NA
HETATM    6  C21 UNL     1      20.839  -0.262  52.964  1.00  0.00     0.098 A 
ENDROOT
BRANCH   1   7
HETATM    7  C11 UNL     1      21.946   0.688  51.027  1.00  0.00     0.035 C 
HETATM    8  C10 UNL     1      22.453   1.589  50.250  1.00  0.00     0.093 C 
BRANCH   8   9
HETATM    9  N1  UNL     1      23.413   2.633  50.172  1.00  0.00    -0.326 N 
HETATM   10  C1  UNL     1      24.173   3.558  50.918  1.00  0.00     0.300 C 
HETATM   11  O1  UNL     1      23.975   3.490  52.151  1.00  0.00    -0.258 OA
HETATM   12  H12 UNL     1      23.504   2.619  49.104  1.00  0.00     0.169 HD
BRANCH  10  13
HETATM   13  C2  UNL     1      25.046   4.429  50.183  1.00  0.00    -0.005 C 
HETATM   14  C3  UNL     1      25.765   5.157  49.567  1.00  0.00    -0.096 C 
BRANCH  14  15
HETATM   15  C4  UNL     1      26.621   6.059  48.810  1.00  0.00     0.095 C 
BRANCH  15  16
HETATM   16  C5  UNL     1      27.890   5.378  48.461  1.00  0.00     0.019 C 
BRANCH  16  17
HETATM   17  C6  UNL     1      28.983   6.243  47.922  1.00  0.00     0.012 C 
HETATM   18  C7  UNL     1      30.287   5.726  48.487  1.00  0.00     0.033 C 
HETATM   19  C8  UNL     1      31.087   7.005  48.586  1.00  0.00     0.168 C 
HETATM   20  O2  UNL     1      30.176   8.004  48.875  1.00  0.00    -0.391 OA
HETATM   21  C9  UNL     1      28.960   7.661  48.359  1.00  0.00     0.172 C 
ENDBRANCH  16  17
ENDBRANCH  15  16
ENDBRANCH  14  15
ENDBRANCH  10  13
ENDBRANCH   8   9
ENDBRANCH   1   7
BRANCH   2  22
HETATM   22  N2  UNL     1      24.367   0.371  52.356  1.00  0.00    -0.340 N 
HETATM   23  H15 UNL     1      24.058   0.864  51.505  1.00  0.00     0.167 HD
BRANCH  22  24
HETATM   24  C14 UNL     1      25.735   0.191  52.696  1.00  0.00     0.035 A 
HETATM   25  C15 UNL     1      26.308  -1.058  52.703  1.00  0.00     0.032 A 
HETATM   26  C16 UNL     1      27.670  -1.171  53.031  1.00  0.00     0.046 A 
HETATM   27  C17 UNL     1      28.451  -0.080  53.346  1.00  0.00     0.138 A 
HETATM   28  F1  UNL     1      29.765  -0.195  53.660  1.00  0.00    -0.204 F 
HETATM   29  C18 UNL     1      27.800   1.134  53.316  1.00  0.00     0.074 A 
HETATM   30 CL1  UNL     1      28.727   2.583  53.702  1.00  0.00    -0.081 Cl
HETATM   31  C19 UNL     1      26.467   1.326  53.003  1.00  0.00     0.056 A 
ENDBRANCH  22  24
ENDBRANCH   2  22
BRANCH   6  32
HETATM   32  C22 UNL     1      19.451  -0.156  52.472  1.00  0.00     0.078 A 
HETATM   33  N5  UNL     1      18.246  -0.290  52.096  1.00  0.00    -0.284 NA
HETATM   34  C23 UNL     1      18.663   1.018  51.947  1.00  0.00     0.210 A 
ENDBRANCH   6  32
TORSDOF 9
ENDMDL
MODEL 2
REMARK VINA RESULT:      -8.6      0.952      1.263
REMARK  9 active torsions:
REMARK  status: ('A' for Active; 'I' for Inactive)
REMARK    1  A    between atoms: C1_2  and  C2_3 
REMARK       I    between atoms: C1_2  and  N1_12 
REMARK    2  A    between atoms: C3_4  and  C4_5 
REMARK    3  A    between atoms: C4_5  and  C5_6 
REMARK    4  A    between atoms: C5_6  and  C6_7 
REMARK    5  A    between atoms: N1_12  and  C10_13 
REMARK    6  A    between atoms: C11_14  and  C12_15 
REMARK    7  A    between atoms: C13_16  and  N2_17 
REMARK    8  A    between atoms: N2_17  and  C14_18 
REMARK    9  A    between atoms: C21_29  and  C22_30 
ROOT
HETATM    1  C12 UNL     1      22.016   0.154  52.302  1.00  0.00     0.042 A 
HETATM    2  C13 UNL     1      23.190   0.001  53.051  1.00  0.00     0.142 A 
HETATM    3  N3  UNL     1      23.135  -0.474  54.307  1.00  0.00    -0.224 NA
HETATM    4  C20 UNL     1      21.929  -0.810  54.859  1.00  0.00     0.236 A 
HETATM    5  N4  UNL     1      20.796  -0.669  54.157  1.00  0.00    -0.239 NA
HETATM    6  C21 UNL     1      20.833  -0.194  52.898  1.00  0.00     0.098 A 
ENDROOT
BRANCH   1   7
HETATM    7  C11 UNL     1      22.016   0.680  50.970  1.00  0.00     0.035 C 
HETATM    8  C10 UNL     1      22.541   1.568  50.188  1.00  0.00     0.093 C 
BRANCH   8   9
HETATM    9  N1  UNL     1      23.480   2.630  50.122  1.00  0.00    -0.326 N 
HETATM   10  C1  UNL     1      24.209   3.572  50.877  1.00  0.00     0.300 C 
HETATM   11  O1  UNL     1      23.995   3.503  52.108  1.00  0.00    -0.258 OA
HETATM   12  H12 UNL     1      23.587   2.616  49.056  1.00  0.00     0.169 HD
BRANCH  10  13
HETATM   13  C2  UNL     1      25.076   4.460  50.153  1.00  0.00    -0.005 C 
HETATM   14  C3  UNL     1      25.788   5.203  49.549  1.00  0.00    -0.096 C 
BRANCH  14  15
HETATM   15  C4  UNL     1      26.640   6.128  48.814  1.00  0.00     0.095 C 
BRANCH  15  16
HETATM   16  C5  UNL     1      27.905   5.457  48.433  1.00  0.00     0.019 C 
BRANCH  16  17
HETATM   17  C6  UNL     1      28.986   6.334  47.889  1.00  0.00     0.012 C 
HETATM   18  C7  UNL     1      30.308   5.694  48.248  1.00  0.00     0.033 C 
HETATM   19  C8  UNL     1      31.185   6.914  48.416  1.00  0.00     0.168 C 
HETATM   20  O2  UNL     1      30.365   7.908  48.917  1.00  0.00    -0.391 OA
HETATM   21  C9  UNL     1      29.086   7.685  48.494  1.00  0.00     0.172 C 
ENDBRANCH  16  17
ENDBRANCH  15  16
ENDBRANCH  14  15
ENDBRANCH  10  13
ENDBRANCH   8   9
ENDBRANCH   1   7
BRANCH   2  22
HETATM   22  N2  UNL     1      24.386   0.382  52.391  1.00  0.00    -0.340 N 
HETATM   23  H15 UNL     1      24.115   0.787  51.482  1.00  0.00     0.167 HD
BRANCH  22  24
HETATM   24  C14 UNL     1      25.737   0.270  52.819  1.00  0.00     0.035 A 
HETATM   25  C15 UNL     1      26.396   1.336  53.381  1.00  0.00     0.032 A 
HETATM   26  C16 UNL     1      27.726   1.159  53.800  1.00  0.00     0.046 A 
HETATM   27  C17 UNL     1      28.393  -0.039  53.669  1.00  0.00     0.138 A 
HETATM   28  F1  UNL     1      29.676  -0.204  54.077  1.00  0.00    -0.204 F 
HETATM   29  C18 UNL     1      27.661  -1.057  53.096  1.00  0.00     0.074 A 
HETATM   30 CL1  UNL     1      28.437  -2.627  52.894  1.00  0.00    -0.081 Cl
HETATM   31  C19 UNL     1      26.352  -0.960  52.660  1.00  0.00     0.056 A 
ENDBRANCH  22  24
ENDBRANCH   2  22
BRANCH   6  32
HETATM   32  C22 UNL     1      19.464  -0.089  52.354  1.00  0.00     0.078 A 
HETATM   33  N5  UNL     1      18.282  -0.230  51.913  1.00  0.00    -0.284 NA
HETATM   34  C23 UNL     1      18.654   1.100  51.904  1.00  0.00     0.210 A 
ENDBRANCH   6  32
TORSDOF 9
ENDMDL
MODEL 3
REMARK VINA RESULT:      -8.6      5.378     10.002
REMARK  9 active torsions:
REMARK  status: ('A' for Active; 'I' for Inactive)
REMARK    1  A    between atoms: C1_2  and  C2_3 
REMARK       I    between atoms: C1_2  and  N1_12 
REMARK    2  A    between atoms: C3_4  and  C4_5 
REMARK    3  A    between atoms: C4_5  and  C5_6 
REMARK    4  A    between atoms: C5_6  and  C6_7 
REMARK    5  A    between atoms: N1_12  and  C10_13 
REMARK    6  A    between atoms: C11_14  and  C12_15 
REMARK    7  A    between atoms: C13_16  and  N2_17 
REMARK    8  A    between atoms: N2_17  and  C14_18 
REMARK    9  A    between atoms: C21_29  and  C22_30 
ROOT
HETATM    1  C12 UNL     1      29.792   7.405  48.500  1.00  0.00     0.042 A 
HETATM    2  C13 UNL     1      31.052   6.806  48.374  1.00  0.00     0.142 A 
HETATM    3  N3  UNL     1      32.139   7.401  48.893  1.00  0.00    -0.224 NA
HETATM    4  C20 UNL     1      32.018   8.597  49.546  1.00  0.00     0.236 A 
HETATM    5  N4  UNL     1      30.821   9.184  49.674  1.00  0.00    -0.239 NA
HETATM    6  C21 UNL     1      29.721   8.603  49.161  1.00  0.00     0.098 A 
ENDROOT
BRANCH   1   7
HETATM    7  C11 UNL     1      28.605   6.826  47.944  1.00  0.00     0.035 C 
HETATM    8  C10 UNL     1      27.672   5.951  48.134  1.00  0.00     0.093 C 
BRANCH   8   9
HETATM    9  N1  UNL     1      27.188   4.963  49.030  1.00  0.00    -0.326 N 
HETATM   10  C1  UNL     1      26.033   4.325  49.529  1.00  0.00     0.300 C 
HETATM   11  O1  UNL     1      24.969   4.747  49.023  1.00  0.00    -0.258 OA
HETATM   12  H12 UNL     1      28.149   4.678  49.409  1.00  0.00     0.169 HD
BRANCH  10  13
HETATM   13  C2  UNL     1      26.226   3.305  50.522  1.00  0.00    -0.005 C 
HETATM   14  C3  UNL     1      26.394   2.455  51.342  1.00  0.00    -0.096 C 
BRANCH  14  15
HETATM   15  C4  UNL     1      26.623   1.415  52.336  1.00  0.00     0.095 C 
BRANCH  15  16
HETATM   16  C5  UNL     1      27.941   1.617  52.984  1.00  0.00     0.019 C 
BRANCH  16  17
HETATM   17  C6  UNL     1      28.423   0.513  53.868  1.00  0.00     0.012 C 
HETATM   18  C7  UNL     1      29.848   0.205  53.467  1.00  0.00     0.033 C 
HETATM   19  C8  UNL     1      29.917  -1.277  53.757  1.00  0.00     0.168 C 
HETATM   20  O2  UNL     1      28.655  -1.777  53.498  1.00  0.00    -0.391 OA
HETATM   21  C9  UNL     1      27.734  -0.791  53.707  1.00  0.00     0.172 C 
ENDBRANCH  16  17
ENDBRANCH  15  16
ENDBRANCH  14  15
ENDBRANCH  10  13
ENDBRANCH   8   9
ENDBRANCH   1   7
BRANCH   2  22
HETATM   22  N2  UNL     1      31.072   5.572  47.676  1.00  0.00    -0.340 N 
HETATM   23  H15 UNL     1      30.093   5.260  47.585  1.00  0.00     0.167 HD
BRANCH  22  24
HETATM   24  C14 UNL     1      32.173   4.833  47.163  1.00  0.00     0.035 A 
HETATM   25  C15 UNL     1      32.660   3.732  47.824  1.00  0.00     0.032 A 
HETATM   26  C16 UNL     1      33.740   3.033  47.259  1.00  0.00     0.046 A 
HETATM   27  C17 UNL     1      34.328   3.409  46.070  1.00  0.00     0.138 A 
HETATM   28  F1  UNL     1      35.369   2.728  45.529  1.00  0.00    -0.204 F 
HETATM   29  C18 UNL     1      33.780   4.522  45.472  1.00  0.00     0.074 A 
HETATM   30 CL1  UNL     1      34.469   5.070  43.945  1.00  0.00    -0.081 Cl
HETATM   31  C19 UNL     1      32.720   5.261  45.965  1.00  0.00     0.056 A 
ENDBRANCH  22  24
ENDBRANCH   2  22
BRANCH   6  32
HETATM   32  C22 UNL     1      28.539   9.458  49.391  1.00  0.00     0.078 A 
HETATM   33  N5  UNL     1      27.624  10.336  49.437  1.00  0.00    -0.284 NA
HETATM   34  C23 UNL     1      27.323   9.271  50.262  1.00  0.00     0.210 A 
ENDBRANCH   6  32
TORSDOF 9
ENDMDL
MODEL 4
REMARK VINA RESULT:      -8.4      2.018      2.641
REMARK  9 active torsions:
REMARK  status: ('A' for Active; 'I' for Inactive)
REMARK    1  A    between atoms: C1_2  and  C2_3 
REMARK       I    between atoms: C1_2  and  N1_12 
REMARK    2  A    between atoms: C3_4  and  C4_5 
REMARK    3  A    between atoms: C4_5  and  C5_6 
REMARK    4  A    between atoms: C5_6  and  C6_7 
REMARK    5  A    between atoms: N1_12  and  C10_13 
REMARK    6  A    between atoms: C11_14  and  C12_15 
REMARK    7  A    between atoms: C13_16  and  N2_17 
REMARK    8  A    between atoms: N2_17  and  C14_18 
REMARK    9  A    between atoms: C21_29  and  C22_30 
ROOT
HETATM    1  C12 UNL     1      23.193   2.095  52.660  1.00  0.00     0.042 A 
HETATM    2  C13 UNL     1      24.218   1.186  52.957  1.00  0.00     0.142 A 
HETATM    3  N3  UNL     1      23.934  -0.111  53.160  1.00  0.00    -0.224 NA
HETATM    4  C20 UNL     1      22.640  -0.549  53.080  1.00  0.00     0.236 A 
HETATM    5  N4  UNL     1      21.648   0.307  52.800  1.00  0.00    -0.239 NA
HETATM    6  C21 UNL     1      21.914   1.610  52.593  1.00  0.00     0.098 A 
ENDROOT
BRANCH   1   7
HETATM    7  C11 UNL     1      23.438   3.492  52.460  1.00  0.00     0.035 C 
HETATM    8  C10 UNL     1      24.166   4.354  51.826  1.00  0.00     0.093 C 
BRANCH   8   9
HETATM    9  N1  UNL     1      25.226   4.498  50.893  1.00  0.00    -0.326 N 
HETATM   10  C1  UNL     1      26.132   3.806  50.062  1.00  0.00     0.300 C 
HETATM   11  O1  UNL     1      26.011   2.562  50.114  1.00  0.00    -0.258 OA
HETATM   12  H12 UNL     1      25.257   5.568  50.926  1.00  0.00     0.169 HD
BRANCH  10  13
HETATM   13  C2  UNL     1      27.046   4.599  49.289  1.00  0.00    -0.005 C 
HETATM   14  C3  UNL     1      27.811   5.251  48.645  1.00  0.00    -0.096 C 
BRANCH  14  15
HETATM   15  C4  UNL     1      28.753   6.025  47.848  1.00  0.00     0.095 C 
BRANCH  15  16
HETATM   16  C5  UNL     1      30.093   5.394  47.895  1.00  0.00     0.019 C 
BRANCH  16  17
HETATM   17  C6  UNL     1      31.266   6.315  47.794  1.00  0.00     0.012 C 
HETATM   18  C7  UNL     1      30.734   7.685  47.440  1.00  0.00     0.033 C 
HETATM   19  C8  UNL     1      31.873   8.234  46.613  1.00  0.00     0.168 C 
HETATM   20  O2  UNL     1      32.421   7.152  45.950  1.00  0.00    -0.391 OA
HETATM   21  C9  UNL     1      32.221   6.026  46.695  1.00  0.00     0.172 C 
ENDBRANCH  16  17
ENDBRANCH  15  16
ENDBRANCH  14  15
ENDBRANCH  10  13
ENDBRANCH   8   9
ENDBRANCH   1   7
BRANCH   2  22
HETATM   22  N2  UNL     1      25.522   1.740  53.022  1.00  0.00    -0.340 N 
HETATM   23  H15 UNL     1      25.423   2.761  52.908  1.00  0.00     0.167 HD
BRANCH  22  24
HETATM   24  C14 UNL     1      26.776   1.097  53.207  1.00  0.00     0.035 A 
HETATM   25  C15 UNL     1      27.875   1.796  53.643  1.00  0.00     0.032 A 
HETATM   26  C16 UNL     1      29.084   1.102  53.823  1.00  0.00     0.046 A 
HETATM   27  C17 UNL     1      29.209  -0.249  53.579  1.00  0.00     0.138 A 
HETATM   28  F1  UNL     1      30.378  -0.913  53.756  1.00  0.00    -0.204 F 
HETATM   29  C18 UNL     1      28.060  -0.874  53.144  1.00  0.00     0.074 A 
HETATM   30 CL1  UNL     1      28.130  -2.603  52.812  1.00  0.00    -0.081 Cl
HETATM   31  C19 UNL     1      26.837  -0.261  52.944  1.00  0.00     0.056 A 
ENDBRANCH  22  24
ENDBRANCH   2  22
BRANCH   6  32
HETATM   32  C22 UNL     1      20.661   2.352  52.346  1.00  0.00     0.078 A 
HETATM   33  N5  UNL     1      19.577   3.011  52.365  1.00  0.00    -0.284 NA
HETATM   34  C23 UNL     1      19.942   2.706  51.069  1.00  0.00     0.210 A 
ENDBRANCH   6  32
TORSDOF 9
ENDMDL
MODEL 5
REMARK VINA RESULT:      -8.4      2.253      2.606
REMARK  9 active torsions:
REMARK  status: ('A' for Active; 'I' for Inactive)
REMARK    1  A    between atoms: C1_2  and  C2_3 
REMARK       I    between atoms: C1_2  and  N1_12 
REMARK    2  A    between atoms: C3_4  and  C4_5 
REMARK    3  A    between atoms: C4_5  and  C5_6 
REMARK    4  A    between atoms: C5_6  and  C6_7 
REMARK    5  A    between atoms: N1_12  and  C10_13 
REMARK    6  A    between atoms: C11_14  and  C12_15 
REMARK    7  A    between atoms: C13_16  and  N2_17 
REMARK    8  A    between atoms: N2_17  and  C14_18 
REMARK    9  A    between atoms: C21_29  and  C22_30 
ROOT
HETATM    1  C12 UNL     1      22.472  -0.121  52.984  1.00  0.00     0.042 A 
HETATM    2  C13 UNL     1      23.749  -0.252  53.544  1.00  0.00     0.142 A 
HETATM    3  N3  UNL     1      23.913  -0.889  54.715  1.00  0.00    -0.224 NA
HETATM    4  C20 UNL     1      22.829  -1.412  55.367  1.00  0.00     0.236 A 
HETATM    5  N4  UNL     1      21.600  -1.294  54.846  1.00  0.00    -0.239 NA
HETATM    6  C21 UNL     1      21.418  -0.658  53.673  1.00  0.00     0.098 A 
ENDROOT
BRANCH   1   7
HETATM    7  C11 UNL     1      22.239   0.571  51.752  1.00  0.00     0.035 C 
HETATM    8  C10 UNL     1      22.380   1.700  51.135  1.00  0.00     0.093 C 
BRANCH   8   9
HETATM    9  N1  UNL     1      22.864   3.028  51.264  1.00  0.00    -0.326 N 
HETATM   10  C1  UNL     1      23.611   3.909  52.073  1.00  0.00     0.300 C 
HETATM   11  O1  UNL     1      24.061   3.376  53.112  1.00  0.00    -0.258 OA
HETATM   12  H12 UNL     1      22.427   3.393  50.356  1.00  0.00     0.169 HD
BRANCH  10  13
HETATM   13  C2  UNL     1      23.752   5.262  51.611  1.00  0.00    -0.005 C 
HETATM   14  C3  UNL     1      23.859   6.387  51.228  1.00  0.00    -0.096 C 
BRANCH  14  15
HETATM   15  C4  UNL     1      23.969   7.766  50.773  1.00  0.00     0.095 C 
BRANCH  15  16
HETATM   16  C5  UNL     1      24.262   7.798  49.321  1.00  0.00     0.019 C 
BRANCH  16  17
HETATM   17  C6  UNL     1      25.554   8.430  48.917  1.00  0.00     0.012 C 
HETATM   18  C7  UNL     1      26.561   8.132  50.004  1.00  0.00     0.033 C 
HETATM   19  C8  UNL     1      27.427   9.370  49.945  1.00  0.00     0.168 C 
HETATM   20  O2  UNL     1      26.587  10.409  49.592  1.00  0.00    -0.391 OA
HETATM   21  C9  UNL     1      25.554   9.913  48.850  1.00  0.00     0.172 C 
ENDBRANCH  16  17
ENDBRANCH  15  16
ENDBRANCH  14  15
ENDBRANCH  10  13
ENDBRANCH   8   9
ENDBRANCH   1   7
BRANCH   2  22
HETATM   22  N2  UNL     1      24.805   0.328  52.794  1.00  0.00    -0.340 N 
HETATM   23  H15 UNL     1      24.375   0.821  51.997  1.00  0.00     0.167 HD
BRANCH  22  24
HETATM   24  C14 UNL     1      26.208   0.292  53.019  1.00  0.00     0.035 A 
HETATM   25  C15 UNL     1      26.910   1.436  53.312  1.00  0.00     0.032 A 
HETATM   26  C16 UNL     1      28.293   1.335  53.541  1.00  0.00     0.046 A 
HETATM   27  C17 UNL     1      28.970   0.136  53.483  1.00  0.00     0.138 A 
HETATM   28  F1  UNL     1      30.304   0.045  53.707  1.00  0.00    -0.204 F 
HETATM   29  C18 UNL     1      28.193  -0.961  53.183  1.00  0.00     0.074 A 
HETATM   30 CL1  UNL     1      28.978  -2.537  53.093  1.00  0.00    -0.081 Cl
HETATM   31  C19 UNL     1      26.830  -0.943  52.946  1.00  0.00     0.056 A 
ENDBRANCH  22  24
ENDBRANCH   2  22
BRANCH   6  32
HETATM   32  C22 UNL     1      19.981  -0.620  53.334  1.00  0.00     0.078 A 
HETATM   33  N5  UNL     1      18.799  -0.387  52.938  1.00  0.00    -0.284 NA
HETATM   34  C23 UNL     1      18.858  -1.582  53.628  1.00  0.00     0.210 A 
ENDBRANCH   6  32
TORSDOF 9
ENDMDL
MODEL 6
REMARK VINA RESULT:      -8.3      3.507      8.697
REMARK  9 active torsions:
REMARK  status: ('A' for Active; 'I' for Inactive)
REMARK    1  A    between atoms: C1_2  and  C2_3 
REMARK       I    between atoms: C1_2  and  N1_12 
REMARK    2  A    between atoms: C3_4  and  C4_5 
REMARK    3  A    between atoms: C4_5  and  C5_6 
REMARK    4  A    between atoms: C5_6  and  C6_7 
REMARK    5  A    between atoms: N1_12  and  C10_13 
REMARK    6  A    between atoms: C11_14  and  C12_15 
REMARK    7  A    between atoms: C13_16  and  N2_17 
REMARK    8  A    between atoms: N2_17  and  C14_18 
REMARK    9  A    between atoms: C21_29  and  C22_30 
ROOT
HETATM    1  C12 UNL     1      25.602   5.737  49.662  1.00  0.00     0.042 A 
HETATM    2  C13 UNL     1      25.969   6.973  49.114  1.00  0.00     0.142 A 
HETATM    3  N3  UNL     1      25.325   8.094  49.481  1.00  0.00    -0.224 NA
HETATM    4  C20 UNL     1      24.306   8.031  50.392  1.00  0.00     0.236 A 
HETATM    5  N4  UNL     1      23.941   6.857  50.924  1.00  0.00    -0.239 NA
HETATM    6  C21 UNL     1      24.575   5.724  50.568  1.00  0.00     0.098 A 
ENDROOT
BRANCH   1   7
HETATM    7  C11 UNL     1      26.237   4.509  49.286  1.00  0.00     0.035 C 
HETATM    8  C10 UNL     1      26.526   3.311  49.678  1.00  0.00     0.093 C 
BRANCH   8   9
HETATM    9  N1  UNL     1      26.409   2.394  50.755  1.00  0.00    -0.326 N 
HETATM   10  C1  UNL     1      26.995   1.948  51.959  1.00  0.00     0.300 C 
HETATM   11  O1  UNL     1      28.042   2.562  52.264  1.00  0.00    -0.258 OA
HETATM   12  H12 UNL     1      25.514   1.923  50.402  1.00  0.00     0.169 HD
BRANCH  10  13
HETATM   13  C2  UNL     1      26.331   0.880  52.652  1.00  0.00    -0.005 C 
HETATM   14  C3  UNL     1      25.778  -0.002  53.236  1.00  0.00    -0.096 C 
BRANCH  14  15
HETATM   15  C4  UNL     1      25.090  -1.061  53.962  1.00  0.00     0.095 C 
BRANCH  15  16
HETATM   16  C5  UNL     1      23.753  -0.591  54.395  1.00  0.00     0.019 C 
BRANCH  16  17
HETATM   17  C6  UNL     1      22.605  -0.936  53.502  1.00  0.00     0.012 C 
HETATM   18  C7  UNL     1      22.063   0.360  52.943  1.00  0.00     0.033 C 
HETATM   19  C8  UNL     1      20.596   0.025  52.801  1.00  0.00     0.168 C 
HETATM   20  O2  UNL     1      20.300  -0.841  53.838  1.00  0.00    -0.391 OA
HETATM   21  C9  UNL     1      21.425  -1.538  54.171  1.00  0.00     0.172 C 
ENDBRANCH  16  17
ENDBRANCH  15  16
ENDBRANCH  14  15
ENDBRANCH  10  13
ENDBRANCH   8   9
ENDBRANCH   1   7
BRANCH   2  22
HETATM   22  N2  UNL     1      27.033   6.931  48.177  1.00  0.00    -0.340 N 
HETATM   23  H15 UNL     1      26.618   6.718  47.257  1.00  0.00     0.167 HD
BRANCH  22  24
HETATM   24  C14 UNL     1      28.426   7.133  48.372  1.00  0.00     0.035 A 
HETATM   25  C15 UNL     1      29.332   6.132  48.115  1.00  0.00     0.032 A 
HETATM   26  C16 UNL     1      30.698   6.397  48.310  1.00  0.00     0.046 A 
HETATM   27  C17 UNL     1      31.163   7.617  48.749  1.00  0.00     0.138 A 
HETATM   28  F1  UNL     1      32.483   7.866  48.934  1.00  0.00    -0.204 F 
HETATM   29  C18 UNL     1      30.191   8.565  48.983  1.00  0.00     0.074 A 
HETATM   30 CL1  UNL     1      30.699  10.157  49.543  1.00  0.00    -0.081 Cl
HETATM   31  C19 UNL     1      28.831   8.381  48.814  1.00  0.00     0.056 A 
ENDBRANCH  22  24
ENDBRANCH   2  22
BRANCH   6  32
HETATM   32  C22 UNL     1      23.967   4.564  51.252  1.00  0.00     0.078 A 
HETATM   33  N5  UNL     1      23.581   3.629  52.016  1.00  0.00    -0.284 NA
HETATM   34  C23 UNL     1      22.921   3.574  50.805  1.00  0.00     0.210 A 
ENDBRANCH   6  32
TORSDOF 9
ENDMDL
MODEL 7
REMARK VINA RESULT:      -8.3      1.817      2.838
REMARK  9 active torsions:
REMARK  status: ('A' for Active; 'I' for Inactive)
REMARK    1  A    between atoms: C1_2  and  C2_3 
REMARK       I    between atoms: C1_2  and  N1_12 
REMARK    2  A    between atoms: C3_4  and  C4_5 
REMARK    3  A    between atoms: C4_5  and  C5_6 
REMARK    4  A    between atoms: C5_6  and  C6_7 
REMARK    5  A    between atoms: N1_12  and  C10_13 
REMARK    6  A    between atoms: C11_14  and  C12_15 
REMARK    7  A    between atoms: C13_16  and  N2_17 
REMARK    8  A    between atoms: N2_17  and  C14_18 
REMARK    9  A    between atoms: C21_29  and  C22_30 
ROOT
HETATM    1  C12 UNL     1      22.442   2.483  51.811  1.00  0.00     0.042 A 
HETATM    2  C13 UNL     1      22.743   1.273  52.450  1.00  0.00     0.142 A 
HETATM    3  N3  UNL     1      22.063   0.156  52.141  1.00  0.00    -0.224 NA
HETATM    4  C20 UNL     1      21.071   0.198  51.200  1.00  0.00     0.236 A 
HETATM    5  N4  UNL     1      20.768   1.346  50.581  1.00  0.00    -0.239 NA
HETATM    6  C21 UNL     1      21.439   2.475  50.878  1.00  0.00     0.098 A 
ENDROOT
BRANCH   1   7
HETATM    7  C11 UNL     1      23.118   3.707  52.121  1.00  0.00     0.035 C 
HETATM    8  C10 UNL     1      24.078   4.498  51.766  1.00  0.00     0.093 C 
BRANCH   8   9
HETATM    9  N1  UNL     1      25.121   4.689  50.823  1.00  0.00    -0.326 N 
HETATM   10  C1  UNL     1      25.990   4.044  49.918  1.00  0.00     0.300 C 
HETATM   11  O1  UNL     1      25.836   2.802  49.874  1.00  0.00    -0.258 OA
HETATM   12  H12 UNL     1      25.182   5.752  50.940  1.00  0.00     0.169 HD
BRANCH  10  13
HETATM   13  C2  UNL     1      26.908   4.873  49.188  1.00  0.00    -0.005 C 
HETATM   14  C3  UNL     1      27.668   5.558  48.574  1.00  0.00    -0.096 C 
BRANCH  14  15
HETATM   15  C4  UNL     1      28.580   6.391  47.803  1.00  0.00     0.095 C 
BRANCH  15  16
HETATM   16  C5  UNL     1      29.954   5.842  47.881  1.00  0.00     0.019 C 
BRANCH  16  17
HETATM   17  C6  UNL     1      30.944   6.633  48.674  1.00  0.00     0.012 C 
HETATM   18  C7  UNL     1      31.783   7.418  47.692  1.00  0.00     0.033 C 
HETATM   19  C8  UNL     1      33.108   7.468  48.417  1.00  0.00     0.168 C 
HETATM   20  O2  UNL     1      33.205   6.281  49.119  1.00  0.00    -0.391 OA
HETATM   21  C9  UNL     1      31.950   5.841  49.425  1.00  0.00     0.172 C 
ENDBRANCH  16  17
ENDBRANCH  15  16
ENDBRANCH  14  15
ENDBRANCH  10  13
ENDBRANCH   8   9
ENDBRANCH   1   7
BRANCH   2  22
HETATM   22  N2  UNL     1      23.784   1.336  53.412  1.00  0.00    -0.340 N 
HETATM   23  H15 UNL     1      23.395   1.795  54.249  1.00  0.00     0.167 HD
BRANCH  22  24
HETATM   24  C14 UNL     1      25.128   0.882  53.329  1.00  0.00     0.035 A 
HETATM   25  C15 UNL     1      25.419  -0.437  53.081  1.00  0.00     0.032 A 
HETATM   26  C16 UNL     1      26.768  -0.823  52.994  1.00  0.00     0.046 A 
HETATM   27  C17 UNL     1      27.807   0.069  53.149  1.00  0.00     0.138 A 
HETATM   28  F1  UNL     1      29.106  -0.310  53.062  1.00  0.00    -0.204 F 
HETATM   29  C18 UNL     1      27.429   1.371  53.396  1.00  0.00     0.074 A 
HETATM   30 CL1  UNL     1      28.697   2.578  53.603  1.00  0.00    -0.081 Cl
HETATM   31  C19 UNL     1      26.128   1.826  53.494  1.00  0.00     0.056 A 
ENDBRANCH  22  24
ENDBRANCH   2  22
BRANCH   6  32
HETATM   32  C22 UNL     1      20.897   3.608  50.101  1.00  0.00     0.078 A 
HETATM   33  N5  UNL     1      20.258   4.577  49.588  1.00  0.00    -0.284 NA
HETATM   34  C23 UNL     1      21.417   4.325  48.881  1.00  0.00     0.210 A 
ENDBRANCH   6  32
TORSDOF 9
ENDMDL
MODEL 8
REMARK VINA RESULT:      -8.2      4.663      9.069
REMARK  9 active torsions:
REMARK  status: ('A' for Active; 'I' for Inactive)
REMARK    1  A    between atoms: C1_2  and  C2_3 
REMARK       I    between atoms: C1_2  and  N1_12 
REMARK    2  A    between atoms: C3_4  and  C4_5 
REMARK    3  A    between atoms: C4_5  and  C5_6 
REMARK    4  A    between atoms: C5_6  and  C6_7 
REMARK    5  A    between atoms: N1_12  and  C10_13 
REMARK    6  A    between atoms: C11_14  and  C12_15 
REMARK    7  A    between atoms: C13_16  and  N2_17 
REMARK    8  A    between atoms: N2_17  and  C14_18 
REMARK    9  A    between atoms: C21_29  and  C22_30 
ROOT
HETATM    1  C12 UNL     1      28.289   7.232  48.684  1.00  0.00     0.042 A 
HETATM    2  C13 UNL     1      29.483   7.871  48.324  1.00  0.00     0.142 A 
HETATM    3  N3  UNL     1      29.736   9.122  48.746  1.00  0.00    -0.224 NA
HETATM    4  C20 UNL     1      28.824   9.777  49.528  1.00  0.00     0.236 A 
HETATM    5  N4  UNL     1      27.677   9.181  49.880  1.00  0.00    -0.239 NA
HETATM    6  C21 UNL     1      27.407   7.929  49.467  1.00  0.00     0.098 A 
ENDROOT
BRANCH   1   7
HETATM    7  C11 UNL     1      27.959   5.911  48.241  1.00  0.00     0.035 C 
HETATM    8  C10 UNL     1      27.440   4.780  48.596  1.00  0.00     0.093 C 
BRANCH   8   9
HETATM    9  N1  UNL     1      26.842   4.078  49.675  1.00  0.00    -0.326 N 
HETATM   10  C1  UNL     1      25.625   3.602  50.207  1.00  0.00     0.300 C 
HETATM   11  O1  UNL     1      24.630   3.866  49.497  1.00  0.00    -0.258 OA
HETATM   12  H12 UNL     1      27.752   3.911  50.216  1.00  0.00     0.169 HD
BRANCH  10  13
HETATM   13  C2  UNL     1      25.690   2.898  51.458  1.00  0.00    -0.005 C 
HETATM   14  C3  UNL     1      25.752   2.318  52.499  1.00  0.00    -0.096 C 
BRANCH  14  15
HETATM   15  C4  UNL     1      25.841   1.629  53.779  1.00  0.00     0.095 C 
BRANCH  15  16
HETATM   16  C5  UNL     1      26.306   0.237  53.573  1.00  0.00     0.019 C 
BRANCH  16  17
HETATM   17  C6  UNL     1      27.672   0.072  52.988  1.00  0.00     0.012 C 
HETATM   18  C7  UNL     1      28.081  -1.368  53.198  1.00  0.00     0.033 C 
HETATM   19  C8  UNL     1      29.577  -1.224  53.357  1.00  0.00     0.168 C 
HETATM   20  O2  UNL     1      29.781  -0.006  53.978  1.00  0.00    -0.391 OA
HETATM   21  C9  UNL     1      28.756   0.836  53.654  1.00  0.00     0.172 C 
ENDBRANCH  16  17
ENDBRANCH  15  16
ENDBRANCH  14  15
ENDBRANCH  10  13
ENDBRANCH   8   9
ENDBRANCH   1   7
BRANCH   2  22
HETATM   22  N2  UNL     1      30.358   7.110  47.508  1.00  0.00    -0.340 N 
HETATM   23  H15 UNL     1      29.917   7.034  46.579  1.00  0.00     0.167 HD
BRANCH  22  24
HETATM   24  C14 UNL     1      31.616   6.526  47.819  1.00  0.00     0.035 A 
HETATM   25  C15 UNL     1      32.663   7.292  48.271  1.00  0.00     0.032 A 
HETATM   26  C16 UNL     1      33.878   6.655  48.579  1.00  0.00     0.046 A 
HETATM   27  C17 UNL     1      34.058   5.296  48.444  1.00  0.00     0.138 A 
HETATM   28  F1  UNL     1      35.233   4.687  48.744  1.00  0.00    -0.204 F 
HETATM   29  C18 UNL     1      32.960   4.602  47.985  1.00  0.00     0.074 A 
HETATM   30 CL1  UNL     1      33.104   2.856  47.788  1.00  0.00    -0.081 Cl
HETATM   31  C19 UNL     1      31.735   5.155  47.663  1.00  0.00     0.056 A 
ENDBRANCH  22  24
ENDBRANCH   2  22
BRANCH   6  32
HETATM   32  C22 UNL     1      26.073   7.512  49.945  1.00  0.00     0.078 A 
HETATM   33  N5  UNL     1      25.034   7.120  50.558  1.00  0.00    -0.284 NA
HETATM   34  C23 UNL     1      24.740   7.435  49.246  1.00  0.00     0.210 A 
ENDBRANCH   6  32
TORSDOF 9
ENDMDL
MODEL 9
REMARK VINA RESULT:      -8.2      4.791      9.450
REMARK  9 active torsions:
REMARK  status: ('A' for Active; 'I' for Inactive)
REMARK    1  A    between atoms: C1_2  and  C2_3 
REMARK       I    between atoms: C1_2  and  N1_12 
REMARK    2  A    between atoms: C3_4  and  C4_5 
REMARK    3  A    between atoms: C4_5  and  C5_6 
REMARK    4  A    between atoms: C5_6  and  C6_7 
REMARK    5  A    between atoms: N1_12  and  C10_13 
REMARK    6  A    between atoms: C11_14  and  C12_15 
REMARK    7  A    between atoms: C13_16  and  N2_17 
REMARK    8  A    between atoms: N2_17  and  C14_18 
REMARK    9  A    between atoms: C21_29  and  C22_30 
ROOT
HETATM    1  C12 UNL     1      25.696   1.112  52.633  1.00  0.00     0.042 A 
HETATM    2  C13 UNL     1      24.875   1.636  51.625  1.00  0.00     0.142 A 
HETATM    3  N3  UNL     1      25.348   2.572  50.785  1.00  0.00    -0.224 NA
HETATM    4  C20 UNL     1      26.634   3.020  50.914  1.00  0.00     0.236 A 
HETATM    5  N4  UNL     1      27.432   2.531  51.873  1.00  0.00    -0.239 NA
HETATM    6  C21 UNL     1      26.975   1.592  52.723  1.00  0.00     0.098 A 
ENDROOT
BRANCH   1   7
HETATM    7  C11 UNL     1      25.234   0.132  53.570  1.00  0.00     0.035 C 
HETATM    8  C10 UNL     1      24.193  -0.499  54.006  1.00  0.00     0.093 C 
BRANCH   8   9
HETATM    9  N1  UNL     1      22.790  -0.648  53.851  1.00  0.00    -0.326 N 
HETATM   10  C1  UNL     1      21.641  -1.312  54.328  1.00  0.00     0.300 C 
HETATM   11  O1  UNL     1      21.875  -2.106  55.267  1.00  0.00    -0.258 OA
HETATM   12  H12 UNL     1      22.695   0.046  53.040  1.00  0.00     0.169 HD
BRANCH  10  13
HETATM   13  C2  UNL     1      20.392  -1.000  53.691  1.00  0.00    -0.005 C 
HETATM   14  C3  UNL     1      19.357  -0.746  53.155  1.00  0.00    -0.096 C 
BRANCH  14  15
HETATM   15  C4  UNL     1      18.094  -0.458  52.488  1.00  0.00     0.095 C 
BRANCH  15  16
HETATM   16  C5  UNL     1      18.344  -0.059  51.083  1.00  0.00     0.019 C 
BRANCH  16  17
HETATM   17  C6  UNL     1      17.179   0.501  50.334  1.00  0.00     0.012 C 
HETATM   18  C7  UNL     1      16.389   1.355  51.300  1.00  0.00     0.033 C 
HETATM   19  C8  UNL     1      14.985   1.167  50.773  1.00  0.00     0.168 C 
HETATM   20  O2  UNL     1      14.932  -0.121  50.275  1.00  0.00    -0.391 OA
HETATM   21  C9  UNL     1      16.180  -0.489  49.859  1.00  0.00     0.172 C 
ENDBRANCH  16  17
ENDBRANCH  15  16
ENDBRANCH  14  15
ENDBRANCH  10  13
ENDBRANCH   8   9
ENDBRANCH   1   7
BRANCH   2  22
HETATM   22  N2  UNL     1      23.558   1.111  51.579  1.00  0.00    -0.340 N 
HETATM   23  H15 UNL     1      23.631   0.096  51.749  1.00  0.00     0.167 HD
BRANCH  22  24
HETATM   24  C14 UNL     1      22.322   1.773  51.351  1.00  0.00     0.035 A 
HETATM   25  C15 UNL     1      21.621   2.345  52.385  1.00  0.00     0.032 A 
HETATM   26  C16 UNL     1      20.412   3.001  52.096  1.00  0.00     0.046 A 
HETATM   27  C17 UNL     1      19.904   3.091  50.818  1.00  0.00     0.138 A 
HETATM   28  F1  UNL     1      18.737   3.727  50.545  1.00  0.00    -0.204 F 
HETATM   29  C18 UNL     1      20.667   2.491  49.840  1.00  0.00     0.074 A 
HETATM   30 CL1  UNL     1      20.091   2.563  48.176  1.00  0.00    -0.081 Cl
HETATM   31  C19 UNL     1      21.863   1.829  50.046  1.00  0.00     0.056 A 
ENDBRANCH  22  24
ENDBRANCH   2  22
BRANCH   6  32
HETATM   32  C22 UNL     1      28.019   1.249  53.710  1.00  0.00     0.078 A 
HETATM   33  N5  UNL     1      28.856   1.154  54.658  1.00  0.00    -0.284 NA
HETATM   34  C23 UNL     1      28.939   0.060  53.820  1.00  0.00     0.210 A 
ENDBRANCH   6  32
TORSDOF 9
ENDMDL
