MODEL 1
REMARK VINA RESULT:      -7.4      0.000      0.000
REMARK  4 active torsions:
REMARK  status: ('A' for Active; 'I' for Inactive)
REMARK    1  A    between atoms: N1_2  and  C2_3 
REMARK    2  A    between atoms: C5_7  and  O1_8 
REMARK    3  A    between atoms: O1_8  and  C6_9 
REMARK    4  A    between atoms: C12_16  and  N3_17 
ROOT
HETATM    1  C6  UNL     1      24.958   1.805  53.113  1.00  0.00     0.244 C 
HETATM    2  N2  UNL     1      24.371   0.596  53.118  1.00  0.00    -0.249 NA
HETATM    3  C7  UNL     1      24.923  -0.659  53.399  1.00  0.00     0.160 A 
HETATM    4  C8  UNL     1      25.146  -0.779  54.897  1.00  0.00    -0.032 A 
HETATM    5  C9  UNL     1      26.196   0.094  54.669  1.00  0.00    -0.001 A 
HETATM    6  C10 UNL     1      26.047   0.202  53.197  1.00  0.00     0.050 A 
HETATM    7  C11 UNL     1      26.328   0.700  52.008  1.00  0.00     0.053 C 
HETATM    8  C12 UNL     1      27.362   1.779  52.382  1.00  0.00     0.326 C 
HETATM    9  N4  UNL     1      26.355   2.473  53.351  1.00  0.00    -0.324 N 
HETATM   10  H14 UNL     1      26.456   3.214  54.045  1.00  0.00     0.165 HD
ENDROOT
BRANCH   1  11
HETATM   11  O1  UNL     1      24.096   2.872  52.795  1.00  0.00    -0.275 OA
BRANCH  11  12
HETATM   12  C5  UNL     1      23.671   2.856  51.428  1.00  0.00     0.122 A 
HETATM   13  C2  UNL     1      24.481   3.476  50.506  1.00  0.00     0.127 A 
HETATM   14  S1  UNL     1      23.623   3.233  49.025  1.00  0.00    -0.072 SA
HETATM   15  C3  UNL     1      22.228   2.324  49.664  1.00  0.00    -0.006 A 
HETATM   16  C4  UNL     1      22.524   2.264  51.018  1.00  0.00    -0.008 A 
HETATM   17  C17 UNL     1      21.056   1.779  48.948  1.00  0.00     0.047 C 
HETATM   18  C14 UNL     1      21.520   1.518  51.813  1.00  0.00     0.042 C 
HETATM   19  C15 UNL     1      21.060   0.346  50.963  1.00  0.00     0.005 C 
HETATM   20  C16 UNL     1      20.186   0.949  49.866  1.00  0.00     0.005 C 
BRANCH  13  21
HETATM   21  N1  UNL     1      25.729   4.160  50.466  1.00  0.00    -0.278 NA
HETATM   22  C1  UNL     1      26.490   3.775  49.447  1.00  0.00     0.172 C 
ENDBRANCH  13  21
ENDBRANCH  11  12
ENDBRANCH   1  11
BRANCH   8  23
HETATM   23  N3  UNL     1      28.400   1.289  53.172  1.00  0.00     0.102 N 
HETATM   24  C13 UNL     1      29.021   2.389  53.911  1.00  0.00     0.309 C 
HETATM   25  H10 UNL     1      29.169   0.806  52.652  1.00  0.00     0.318 HD
ENDBRANCH   8  23
TORSDOF 4
ENDMDL
MODEL 2
REMARK VINA RESULT:      -7.2      2.176      5.072
REMARK  4 active torsions:
REMARK  status: ('A' for Active; 'I' for Inactive)
REMARK    1  A    between atoms: N1_2  and  C2_3 
REMARK    2  A    between atoms: C5_7  and  O1_8 
REMARK    3  A    between atoms: O1_8  and  C6_9 
REMARK    4  A    between atoms: C12_16  and  N3_17 
ROOT
HETATM    1  C6  UNL     1      24.644   3.827  51.313  1.00  0.00     0.244 C 
HETATM    2  N2  UNL     1      25.729   3.203  50.823  1.00  0.00    -0.249 NA
HETATM    3  C7  UNL     1      26.236   3.194  49.519  1.00  0.00     0.160 A 
HETATM    4  C8  UNL     1      26.898   4.532  49.235  1.00  0.00    -0.032 A 
HETATM    5  C9  UNL     1      25.597   5.002  49.170  1.00  0.00    -0.001 A 
HETATM    6  C10 UNL     1      24.908   3.708  49.395  1.00  0.00     0.050 A 
HETATM    7  C11 UNL     1      23.852   2.947  49.605  1.00  0.00     0.053 C 
HETATM    8  C12 UNL     1      22.738   4.008  49.686  1.00  0.00     0.326 C 
HETATM    9  N4  UNL     1      23.467   4.750  50.849  1.00  0.00    -0.324 N 
HETATM   10  H14 UNL     1      23.312   5.650  51.305  1.00  0.00     0.165 HD
ENDROOT
BRANCH   1  11
HETATM   11  O1  UNL     1      24.429   3.630  52.691  1.00  0.00    -0.275 OA
BRANCH  11  12
HETATM   12  C5  UNL     1      24.495   2.252  53.073  1.00  0.00     0.122 A 
HETATM   13  C2  UNL     1      25.693   1.789  53.566  1.00  0.00     0.127 A 
HETATM   14  S1  UNL     1      25.348   0.127  53.893  1.00  0.00    -0.072 SA
HETATM   15  C3  UNL     1      23.644   0.094  53.373  1.00  0.00    -0.006 A 
HETATM   16  C4  UNL     1      23.444   1.405  52.970  1.00  0.00    -0.008 A 
HETATM   17  C17 UNL     1      22.688  -1.033  53.363  1.00  0.00     0.047 C 
HETATM   18  C14 UNL     1      22.064   1.680  52.504  1.00  0.00     0.042 C 
HETATM   19  C15 UNL     1      21.125   0.883  53.393  1.00  0.00     0.005 C 
HETATM   20  C16 UNL     1      21.299  -0.575  52.976  1.00  0.00     0.005 C 
BRANCH  13  21
HETATM   21  N1  UNL     1      26.989   2.290  53.874  1.00  0.00    -0.278 NA
HETATM   22  C1  UNL     1      27.953   1.648  53.223  1.00  0.00     0.172 C 
ENDBRANCH  13  21
ENDBRANCH  11  12
ENDBRANCH   1  11
BRANCH   8  23
HETATM   23  N3  UNL     1      22.736   4.880  48.599  1.00  0.00     0.102 N 
HETATM   24  C13 UNL     1      21.983   6.089  48.935  1.00  0.00     0.309 C 
HETATM   25  H10 UNL     1      22.314   4.499  47.721  1.00  0.00     0.318 HD
ENDBRANCH   8  23
TORSDOF 4
ENDMDL
MODEL 3
REMARK VINA RESULT:      -7.1      3.042      5.433
REMARK  4 active torsions:
REMARK  status: ('A' for Active; 'I' for Inactive)
REMARK    1  A    between atoms: N1_2  and  C2_3 
REMARK    2  A    between atoms: C5_7  and  O1_8 
REMARK    3  A    between atoms: O1_8  and  C6_9 
REMARK    4  A    between atoms: C12_16  and  N3_17 
ROOT
HETATM    1  C6  UNL     1      23.175   4.921  51.408  1.00  0.00     0.244 C 
HETATM    2  N2  UNL     1      22.982   4.265  50.251  1.00  0.00    -0.249 NA
HETATM    3  C7  UNL     1      23.767   4.258  49.092  1.00  0.00     0.160 A 
HETATM    4  C8  UNL     1      25.012   3.422  49.341  1.00  0.00    -0.032 A 
HETATM    5  C9  UNL     1      25.414   4.503  50.107  1.00  0.00    -0.001 A 
HETATM    6  C10 UNL     1      24.240   5.374  49.852  1.00  0.00     0.050 A 
HETATM    7  C11 UNL     1      23.497   6.447  50.035  1.00  0.00     0.053 C 
HETATM    8  C12 UNL     1      24.285   7.161  51.150  1.00  0.00     0.326 C 
HETATM    9  N4  UNL     1      24.180   5.914  52.083  1.00  0.00    -0.324 N 
HETATM   10  H14 UNL     1      24.622   5.671  52.971  1.00  0.00     0.165 HD
ENDROOT
BRANCH   1  11
HETATM   11  O1  UNL     1      22.185   4.690  52.382  1.00  0.00    -0.275 OA
BRANCH  11  12
HETATM   12  C5  UNL     1      21.803   3.313  52.472  1.00  0.00     0.122 A 
HETATM   13  C2  UNL     1      20.478   3.008  52.263  1.00  0.00     0.127 A 
HETATM   14  S1  UNL     1      20.450   1.291  52.460  1.00  0.00    -0.072 SA
HETATM   15  C3  UNL     1      22.178   1.028  52.811  1.00  0.00    -0.006 A 
HETATM   16  C4  UNL     1      22.680   2.320  52.750  1.00  0.00    -0.008 A 
HETATM   17  C17 UNL     1      22.895  -0.231  53.100  1.00  0.00     0.047 C 
HETATM   18  C14 UNL     1      24.142   2.399  52.979  1.00  0.00     0.042 C 
HETATM   19  C15 UNL     1      24.766   1.184  52.315  1.00  0.00     0.005 C 
HETATM   20  C16 UNL     1      24.388  -0.006  53.194  1.00  0.00     0.005 C 
BRANCH  13  21
HETATM   21  N1  UNL     1      19.267   3.676  51.925  1.00  0.00    -0.278 NA
HETATM   22  C1  UNL     1      19.205   4.003  50.639  1.00  0.00     0.172 C 
ENDBRANCH  13  21
ENDBRANCH  11  12
ENDBRANCH   1  11
BRANCH   8  23
HETATM   23  N3  UNL     1      25.636   7.318  50.848  1.00  0.00     0.102 N 
HETATM   24  C13 UNL     1      25.835   8.562  50.103  1.00  0.00     0.309 C 
HETATM   25  H10 UNL     1      26.058   6.553  50.274  1.00  0.00     0.318 HD
ENDBRANCH   8  23
TORSDOF 4
ENDMDL
MODEL 4
REMARK VINA RESULT:      -7.0      2.700      5.109
REMARK  4 active torsions:
REMARK  status: ('A' for Active; 'I' for Inactive)
REMARK    1  A    between atoms: N1_2  and  C2_3 
REMARK    2  A    between atoms: C5_7  and  O1_8 
REMARK    3  A    between atoms: O1_8  and  C6_9 
REMARK    4  A    between atoms: C12_16  and  N3_17 
ROOT
HETATM    1  C6  UNL     1      22.578   3.082  50.906  1.00  0.00     0.244 C 
HETATM    2  N2  UNL     1      21.282   3.074  51.264  1.00  0.00    -0.249 NA
HETATM    3  C7  UNL     1      20.454   4.143  51.626  1.00  0.00     0.160 A 
HETATM    4  C8  UNL     1      20.088   4.931  50.379  1.00  0.00    -0.032 A 
HETATM    5  C9  UNL     1      21.397   5.379  50.448  1.00  0.00    -0.001 A 
HETATM    6  C10 UNL     1      21.783   4.667  51.692  1.00  0.00     0.050 A 
HETATM    7  C11 UNL     1      22.637   4.266  52.613  1.00  0.00     0.053 C 
HETATM    8  C12 UNL     1      23.955   4.839  52.059  1.00  0.00     0.326 C 
HETATM    9  N4  UNL     1      23.774   4.074  50.711  1.00  0.00    -0.324 N 
HETATM   10  H14 UNL     1      24.261   4.118  49.815  1.00  0.00     0.165 HD
ENDROOT
BRANCH   1  11
HETATM   11  O1  UNL     1      23.104   1.814  50.590  1.00  0.00    -0.275 OA
BRANCH  11  12
HETATM   12  C5  UNL     1      23.674   1.150  51.722  1.00  0.00     0.122 A 
HETATM   13  C2  UNL     1      25.030   1.277  51.914  1.00  0.00     0.127 A 
HETATM   14  S1  UNL     1      25.297   0.347  53.346  1.00  0.00    -0.072 SA
HETATM   15  C3  UNL     1      23.621  -0.179  53.648  1.00  0.00    -0.006 A 
HETATM   16  C4  UNL     1      22.943   0.415  52.594  1.00  0.00    -0.008 A 
HETATM   17  C17 UNL     1      23.085  -1.031  54.730  1.00  0.00     0.047 C 
HETATM   18  C14 UNL     1      21.482   0.163  52.610  1.00  0.00     0.042 C 
HETATM   19  C15 UNL     1      21.041   0.190  54.063  1.00  0.00     0.005 C 
HETATM   20  C16 UNL     1      21.575  -1.100  54.681  1.00  0.00     0.005 C 
BRANCH  13  21
HETATM   21  N1  UNL     1      26.138   1.941  51.315  1.00  0.00    -0.278 NA
HETATM   22  C1  UNL     1      27.132   2.151  52.172  1.00  0.00     0.172 C 
ENDBRANCH  13  21
ENDBRANCH  11  12
ENDBRANCH   1  11
BRANCH   8  23
HETATM   23  N3  UNL     1      23.875   6.198  51.758  1.00  0.00     0.102 N 
HETATM   24  C13 UNL     1      24.885   6.544  50.758  1.00  0.00     0.309 C 
HETATM   25  H10 UNL     1      24.020   6.844  52.568  1.00  0.00     0.318 HD
ENDBRANCH   8  23
TORSDOF 4
ENDMDL
MODEL 5
REMARK VINA RESULT:      -6.9      2.147      4.770
REMARK  4 active torsions:
REMARK  status: ('A' for Active; 'I' for Inactive)
REMARK    1  A    between atoms: N1_2  and  C2_3 
REMARK    2  A    between atoms: C5_7  and  O1_8 
REMARK    3  A    between atoms: O1_8  and  C6_9 
REMARK    4  A    between atoms: C12_16  and  N3_17 
ROOT
HETATM    1  C6  UNL     1      23.555   3.542  51.339  1.00  0.00     0.244 C 
HETATM    2  N2  UNL     1      22.327   3.458  50.797  1.00  0.00    -0.249 NA
HETATM    3  C7  UNL     1      21.927   3.651  49.470  1.00  0.00     0.160 A 
HETATM    4  C8  UNL     1      22.357   2.450  48.642  1.00  0.00    -0.032 A 
HETATM    5  C9  UNL     1      23.625   2.991  48.775  1.00  0.00    -0.001 A 
HETATM    6  C10 UNL     1      23.244   4.203  49.542  1.00  0.00     0.050 A 
HETATM    7  C11 UNL     1      23.495   5.299  50.230  1.00  0.00     0.053 C 
HETATM    8  C12 UNL     1      25.035   5.271  50.273  1.00  0.00     0.326 C 
HETATM    9  N4  UNL     1      25.035   3.859  50.938  1.00  0.00    -0.324 N 
HETATM   10  H14 UNL     1      25.774   3.181  51.129  1.00  0.00     0.165 HD
ENDROOT
BRANCH   1  11
HETATM   11  O1  UNL     1      23.604   3.271  52.720  1.00  0.00    -0.275 OA
BRANCH  11  12
HETATM   12  C5  UNL     1      23.804   1.883  53.008  1.00  0.00     0.122 A 
HETATM   13  C2  UNL     1      25.102   1.433  53.082  1.00  0.00     0.127 A 
HETATM   14  S1  UNL     1      24.899  -0.246  53.435  1.00  0.00    -0.072 SA
HETATM   15  C3  UNL     1      23.118  -0.304  53.475  1.00  0.00    -0.006 A 
HETATM   16  C4  UNL     1      22.784   1.015  53.207  1.00  0.00    -0.008 A 
HETATM   17  C17 UNL     1      22.222  -1.453  53.722  1.00  0.00     0.047 C 
HETATM   18  C14 UNL     1      21.324   1.271  53.208  1.00  0.00     0.042 C 
HETATM   19  C15 UNL     1      20.724   0.423  54.316  1.00  0.00     0.005 C 
HETATM   20  C16 UNL     1      20.776  -1.016  53.808  1.00  0.00     0.005 C 
BRANCH  13  21
HETATM   21  N1  UNL     1      26.423   1.956  52.987  1.00  0.00    -0.278 NA
HETATM   22  C1  UNL     1      27.320   1.024  52.686  1.00  0.00     0.172 C 
ENDBRANCH  13  21
ENDBRANCH  11  12
ENDBRANCH   1  11
BRANCH   8  23
HETATM   23  N3  UNL     1      25.612   5.117  49.014  1.00  0.00     0.102 N 
HETATM   24  C13 UNL     1      26.950   4.539  49.150  1.00  0.00     0.309 C 
HETATM   25  H10 UNL     1      25.722   5.999  48.461  1.00  0.00     0.318 HD
ENDBRANCH   8  23
TORSDOF 4
ENDMDL
MODEL 6
REMARK VINA RESULT:      -6.9      2.170      5.721
REMARK  4 active torsions:
REMARK  status: ('A' for Active; 'I' for Inactive)
REMARK    1  A    between atoms: N1_2  and  C2_3 
REMARK    2  A    between atoms: C5_7  and  O1_8 
REMARK    3  A    between atoms: O1_8  and  C6_9 
REMARK    4  A    between atoms: C12_16  and  N3_17 
ROOT
HETATM    1  C6  UNL     1      21.786   1.996  51.594  1.00  0.00     0.244 C 
HETATM    2  N2  UNL     1      22.193   1.725  50.342  1.00  0.00    -0.249 NA
HETATM    3  C7  UNL     1      21.511   1.077  49.306  1.00  0.00     0.160 A 
HETATM    4  C8  UNL     1      20.458   2.015  48.742  1.00  0.00    -0.032 A 
HETATM    5  C9  UNL     1      19.783   1.739  49.919  1.00  0.00    -0.001 A 
HETATM    6  C10 UNL     1      20.761   0.778  50.486  1.00  0.00     0.050 A 
HETATM    7  C11 UNL     1      21.245  -0.004  51.431  1.00  0.00     0.053 C 
HETATM    8  C12 UNL     1      20.248   0.267  52.574  1.00  0.00     0.326 C 
HETATM    9  N4  UNL     1      20.548   1.798  52.533  1.00  0.00    -0.324 N 
HETATM   10  H14 UNL     1      20.107   2.605  52.975  1.00  0.00     0.165 HD
ENDROOT
BRANCH   1  11
HETATM   11  O1  UNL     1      22.731   2.682  52.380  1.00  0.00    -0.275 OA
BRANCH  11  12
HETATM   12  C5  UNL     1      24.083   2.364  52.029  1.00  0.00     0.122 A 
HETATM   13  C2  UNL     1      24.771   3.280  51.269  1.00  0.00     0.127 A 
HETATM   14  S1  UNL     1      26.314   2.526  51.075  1.00  0.00    -0.072 SA
HETATM   15  C3  UNL     1      26.006   1.033  51.997  1.00  0.00    -0.006 A 
HETATM   16  C4  UNL     1      24.695   1.217  52.409  1.00  0.00    -0.008 A 
HETATM   17  C17 UNL     1      26.904  -0.113  52.255  1.00  0.00     0.047 C 
HETATM   18  C14 UNL     1      24.173   0.110  53.244  1.00  0.00     0.042 C 
HETATM   19  C15 UNL     1      25.313  -0.355  54.132  1.00  0.00     0.005 C 
HETATM   20  C16 UNL     1      26.276  -1.101  53.212  1.00  0.00     0.005 C 
BRANCH  13  21
HETATM   21  N1  UNL     1      24.565   4.568  50.698  1.00  0.00    -0.278 NA
HETATM   22  C1  UNL     1      24.499   4.535  49.372  1.00  0.00     0.172 C 
ENDBRANCH  13  21
ENDBRANCH  11  12
ENDBRANCH   1  11
BRANCH   8  23
HETATM   23  N3  UNL     1      18.919   0.112  52.186  1.00  0.00     0.102 N 
HETATM   24  C13 UNL     1      18.300  -0.967  52.956  1.00  0.00     0.309 C 
HETATM   25  H10 UNL     1      18.771  -0.118  51.176  1.00  0.00     0.318 HD
ENDBRANCH   8  23
TORSDOF 4
ENDMDL
MODEL 7
REMARK VINA RESULT:      -6.8      2.138      5.946
REMARK  4 active torsions:
REMARK  status: ('A' for Active; 'I' for Inactive)
REMARK    1  A    between atoms: N1_2  and  C2_3 
REMARK    2  A    between atoms: C5_7  and  O1_8 
REMARK    3  A    between atoms: O1_8  and  C6_9 
REMARK    4  A    between atoms: C12_16  and  N3_17 
ROOT
HETATM    1  C6  UNL     1      24.224   4.054  51.159  1.00  0.00     0.244 C 
HETATM    2  N2  UNL     1      25.446   3.734  50.697  1.00  0.00    -0.249 NA
HETATM    3  C7  UNL     1      25.976   3.885  49.411  1.00  0.00     0.160 A 
HETATM    4  C8  UNL     1      26.290   5.353  49.174  1.00  0.00    -0.032 A 
HETATM    5  C9  UNL     1      24.915   5.485  49.072  1.00  0.00    -0.001 A 
HETATM    6  C10 UNL     1      24.566   4.054  49.250  1.00  0.00     0.050 A 
HETATM    7  C11 UNL     1      23.729   3.048  49.410  1.00  0.00     0.053 C 
HETATM    8  C12 UNL     1      22.383   3.795  49.470  1.00  0.00     0.326 C 
HETATM    9  N4  UNL     1      22.868   4.665  50.671  1.00  0.00    -0.324 N 
HETATM   10  H14 UNL     1      22.479   5.486  51.136  1.00  0.00     0.165 HD
ENDROOT
BRANCH   1  11
HETATM   11  O1  UNL     1      24.025   3.775  52.525  1.00  0.00    -0.275 OA
BRANCH  11  12
HETATM   12  C5  UNL     1      23.913   2.373  52.796  1.00  0.00     0.122 A 
HETATM   13  C2  UNL     1      22.665   1.806  52.687  1.00  0.00     0.127 A 
HETATM   14  S1  UNL     1      22.966   0.152  53.089  1.00  0.00    -0.072 SA
HETATM   15  C3  UNL     1      24.720   0.258  53.386  1.00  0.00    -0.006 A 
HETATM   16  C4  UNL     1      24.968   1.602  53.148  1.00  0.00    -0.008 A 
HETATM   17  C17 UNL     1      25.669  -0.801  53.788  1.00  0.00     0.047 C 
HETATM   18  C14 UNL     1      26.394   1.978  53.297  1.00  0.00     0.042 C 
HETATM   19  C15 UNL     1      27.219   0.824  52.753  1.00  0.00     0.005 C 
HETATM   20  C16 UNL     1      27.095  -0.294  53.784  1.00  0.00     0.005 C 
BRANCH  13  21
HETATM   21  N1  UNL     1      21.341   2.191  52.330  1.00  0.00    -0.278 NA
HETATM   22  C1  UNL     1      20.705   1.252  51.639  1.00  0.00     0.172 C 
ENDBRANCH  13  21
ENDBRANCH  11  12
ENDBRANCH   1  11
BRANCH   8  23
HETATM   23  N3  UNL     1      22.194   4.666  48.399  1.00  0.00     0.102 N 
HETATM   24  C13 UNL     1      21.162   5.647  48.734  1.00  0.00     0.309 C 
HETATM   25  H10 UNL     1      21.899   4.215  47.502  1.00  0.00     0.318 HD
ENDBRANCH   8  23
TORSDOF 4
ENDMDL
MODEL 8
REMARK VINA RESULT:      -6.7      2.553      5.703
REMARK  4 active torsions:
REMARK  status: ('A' for Active; 'I' for Inactive)
REMARK    1  A    between atoms: N1_2  and  C2_3 
REMARK    2  A    between atoms: C5_7  and  O1_8 
REMARK    3  A    between atoms: O1_8  and  C6_9 
REMARK    4  A    between atoms: C12_16  and  N3_17 
ROOT
HETATM    1  C6  UNL     1      23.283   3.690  51.612  1.00  0.00     0.244 C 
HETATM    2  N2  UNL     1      22.323   3.249  50.780  1.00  0.00    -0.249 NA
HETATM    3  C7  UNL     1      22.133   3.520  49.420  1.00  0.00     0.160 A 
HETATM    4  C8  UNL     1      23.164   2.749  48.612  1.00  0.00    -0.032 A 
HETATM    5  C9  UNL     1      24.049   3.694  49.103  1.00  0.00    -0.001 A 
HETATM    6  C10 UNL     1      23.069   4.506  49.865  1.00  0.00     0.050 A 
HETATM    7  C11 UNL     1      22.714   5.466  50.696  1.00  0.00     0.053 C 
HETATM    8  C12 UNL     1      24.092   6.015  51.112  1.00  0.00     0.326 C 
HETATM    9  N4  UNL     1      24.549   4.612  51.619  1.00  0.00    -0.324 N 
HETATM   10  H14 UNL     1      25.451   4.240  51.919  1.00  0.00     0.165 HD
ENDROOT
BRANCH   1  11
HETATM   11  O1  UNL     1      23.180   3.205  52.930  1.00  0.00    -0.275 OA
BRANCH  11  12
HETATM   12  C5  UNL     1      23.401   1.793  53.023  1.00  0.00     0.122 A 
HETATM   13  C2  UNL     1      22.298   0.991  53.201  1.00  0.00     0.127 A 
HETATM   14  S1  UNL     1      22.989  -0.592  53.263  1.00  0.00    -0.072 SA
HETATM   15  C3  UNL     1      24.703  -0.150  53.052  1.00  0.00    -0.006 A 
HETATM   16  C4  UNL     1      24.630   1.230  52.943  1.00  0.00    -0.008 A 
HETATM   17  C17 UNL     1      25.898  -1.019  53.010  1.00  0.00     0.047 C 
HETATM   18  C14 UNL     1      25.944   1.880  52.725  1.00  0.00     0.042 C 
HETATM   19  C15 UNL     1      26.745   0.970  51.810  1.00  0.00     0.005 C 
HETATM   20  C16 UNL     1      27.142  -0.231  52.666  1.00  0.00     0.005 C 
BRANCH  13  21
HETATM   21  N1  UNL     1      20.884   1.122  53.299  1.00  0.00    -0.278 NA
HETATM   22  C1  UNL     1      20.267  -0.051  53.398  1.00  0.00     0.172 C 
ENDBRANCH  13  21
ENDBRANCH  11  12
ENDBRANCH   1  11
BRANCH   8  23
HETATM   23  N3  UNL     1      24.905   6.329  50.025  1.00  0.00     0.102 N 
HETATM   24  C13 UNL     1      25.441   7.682  50.181  1.00  0.00     0.309 C 
HETATM   25  H10 UNL     1      24.435   6.299  49.091  1.00  0.00     0.318 HD
ENDBRANCH   8  23
TORSDOF 4
ENDMDL
MODEL 9
REMARK VINA RESULT:      -6.6      2.376      4.905
REMARK  4 active torsions:
REMARK  status: ('A' for Active; 'I' for Inactive)
REMARK    1  A    between atoms: N1_2  and  C2_3 
REMARK    2  A    between atoms: C5_7  and  O1_8 
REMARK    3  A    between atoms: O1_8  and  C6_9 
REMARK    4  A    between atoms: C12_16  and  N3_17 
ROOT
HETATM    1  C6  UNL     1      24.553   2.272  51.243  1.00  0.00     0.244 C 
HETATM    2  N2  UNL     1      25.794   2.612  51.634  1.00  0.00    -0.249 NA
HETATM    3  C7  UNL     1      26.602   2.037  52.621  1.00  0.00     0.160 A 
HETATM    4  C8  UNL     1      27.143   0.712  52.110  1.00  0.00    -0.032 A 
HETATM    5  C9  UNL     1      25.850   0.263  52.321  1.00  0.00    -0.001 A 
HETATM    6  C10 UNL     1      25.292   1.523  52.872  1.00  0.00     0.050 A 
HETATM    7  C11 UNL     1      24.319   2.299  53.308  1.00  0.00     0.053 C 
HETATM    8  C12 UNL     1      23.098   1.386  53.090  1.00  0.00     0.326 C 
HETATM    9  N4  UNL     1      23.421   1.241  51.571  1.00  0.00    -0.324 N 
HETATM   10  H14 UNL     1      23.049   0.639  50.835  1.00  0.00     0.165 HD
ENDROOT
BRANCH   1  11
HETATM   11  O1  UNL     1      24.032   3.063  50.201  1.00  0.00    -0.275 OA
BRANCH  11  12
HETATM   12  C5  UNL     1      24.349   4.453  50.345  1.00  0.00     0.122 A 
HETATM   13  C2  UNL     1      23.580   5.191  51.213  1.00  0.00     0.127 A 
HETATM   14  S1  UNL     1      24.277   6.768  51.088  1.00  0.00    -0.072 SA
HETATM   15  C3  UNL     1      25.556   6.407  49.900  1.00  0.00    -0.006 A 
HETATM   16  C4  UNL     1      25.358   5.054  49.671  1.00  0.00    -0.008 A 
HETATM   17  C17 UNL     1      26.564   7.308  49.304  1.00  0.00     0.047 C 
HETATM   18  C14 UNL     1      26.329   4.464  48.719  1.00  0.00     0.042 C 
HETATM   19  C15 UNL     1      27.673   5.121  48.987  1.00  0.00     0.005 C 
HETATM   20  C16 UNL     1      27.551   6.544  48.449  1.00  0.00     0.005 C 
BRANCH  13  21
HETATM   21  N1  UNL     1      22.497   4.994  52.116  1.00  0.00    -0.278 NA
HETATM   22  C1  UNL     1      21.362   4.690  51.495  1.00  0.00     0.172 C 
ENDBRANCH  13  21
ENDBRANCH  11  12
ENDBRANCH   1  11
BRANCH   8  23
HETATM   23  N3  UNL     1      23.255   0.121  53.653  1.00  0.00     0.102 N 
HETATM   24  C13 UNL     1      22.269  -0.799  53.085  1.00  0.00     0.309 C 
HETATM   25  H10 UNL     1      23.144   0.077  54.692  1.00  0.00     0.318 HD
ENDBRANCH   8  23
TORSDOF 4
ENDMDL
