MODEL 1
REMARK VINA RESULT:      -7.9      0.000      0.000
REMARK  5 active torsions:
REMARK  status: ('A' for Active; 'I' for Inactive)
REMARK    1  A    between atoms: C3_3  and  N1_4 
REMARK    2  A    between atoms: N1_4  and  C4_5 
REMARK    3  A    between atoms: C5_7  and  S1_8 
REMARK    4  A    between atoms: N4_14  and  C10_15 
REMARK    5  A    between atoms: C10_15  and  C11_16 
ROOT
HETATM    1  C4  UNL     1      25.590   0.013  53.477  1.00  0.00     0.144 A 
HETATM    2  N2  UNL     1      24.319  -0.354  53.816  1.00  0.00    -0.204 NA
HETATM    3  C5  UNL     1      23.263   0.186  53.179  1.00  0.00     0.189 A 
HETATM    4  N3  UNL     1      23.415   1.107  52.186  1.00  0.00    -0.204 NA
HETATM    5  C6  UNL     1      24.637   1.518  51.799  1.00  0.00     0.147 A 
HETATM    6  C7  UNL     1      25.722   0.947  52.471  1.00  0.00     0.057 A 
HETATM    7  C8  UNL     1      26.816   1.542  51.877  1.00  0.00     0.036 A 
HETATM    8  C9  UNL     1      26.443   2.439  50.886  1.00  0.00     0.094 A 
HETATM    9  N4  UNL     1      25.089   2.387  50.877  1.00  0.00    -0.337 N 
ENDROOT
BRANCH   9  10
HETATM   10  C10 UNL     1      24.263   3.178  49.979  1.00  0.00     0.168 C 
BRANCH  10  11
HETATM   11  C11 UNL     1      24.778   4.569  50.009  1.00  0.00    -0.038 A 
HETATM   12  C12 UNL     1      24.263   5.517  50.869  1.00  0.00     0.010 A 
HETATM   13  C13 UNL     1      24.725   6.819  50.915  1.00  0.00     0.026 A 
HETATM   14  C14 UNL     1      25.744   7.225  50.082  1.00  0.00     0.055 A 
HETATM   15 CL1  UNL     1      26.408   8.836  50.051  1.00  0.00    -0.083 Cl
HETATM   16  C15 UNL     1      26.256   6.275  49.226  1.00  0.00     0.056 A 
HETATM   17 CL2  UNL     1      27.558   6.697  48.124  1.00  0.00    -0.083 Cl
HETATM   18  C16 UNL     1      25.796   4.960  49.171  1.00  0.00     0.034 A 
ENDBRANCH  10  11
ENDBRANCH   9  10
BRANCH   3  19
HETATM   19  S1  UNL     1      21.660  -0.393  53.729  1.00  0.00    -0.103 SA
HETATM   20  H7  UNL     1      21.717  -1.761  54.069  1.00  0.00     0.110 HD
ENDBRANCH   3  19
BRANCH   1  21
HETATM   21  N1  UNL     1      26.683  -0.547  54.139  1.00  0.00    -0.350 N 
HETATM   22  H6  UNL     1      26.793  -1.582  54.195  1.00  0.00     0.166 HD
BRANCH  21  23
HETATM   23  C3  UNL     1      27.753   0.116  54.799  1.00  0.00     0.085 C 
HETATM   24  C2  UNL     1      29.043  -0.022  54.522  1.00  0.00    -0.014 C 
HETATM   25  C1  UNL     1      29.373  -0.960  53.416  1.00  0.00     0.037 C 
ENDBRANCH  21  23
ENDBRANCH   1  21
TORSDOF 5
ENDMDL
MODEL 2
REMARK VINA RESULT:      -7.6      3.850      6.541
REMARK  5 active torsions:
REMARK  status: ('A' for Active; 'I' for Inactive)
REMARK    1  A    between atoms: C3_3  and  N1_4 
REMARK    2  A    between atoms: N1_4  and  C4_5 
REMARK    3  A    between atoms: C5_7  and  S1_8 
REMARK    4  A    between atoms: N4_14  and  C10_15 
REMARK    5  A    between atoms: C10_15  and  C11_16 
ROOT
HETATM    1  C4  UNL     1      21.887   0.991  50.557  1.00  0.00     0.144 A 
HETATM    2  N2  UNL     1      21.215   0.233  51.472  1.00  0.00    -0.204 NA
HETATM    3  C5  UNL     1      21.650   0.156  52.744  1.00  0.00     0.189 A 
HETATM    4  N3  UNL     1      22.762   0.822  53.165  1.00  0.00    -0.204 NA
HETATM    5  C6  UNL     1      23.477   1.589  52.319  1.00  0.00     0.147 A 
HETATM    6  C7  UNL     1      23.010   1.656  51.003  1.00  0.00     0.057 A 
HETATM    7  C8  UNL     1      23.917   2.492  50.383  1.00  0.00     0.036 A 
HETATM    8  C9  UNL     1      24.901   2.927  51.260  1.00  0.00     0.094 A 
HETATM    9  N4  UNL     1      24.584   2.343  52.440  1.00  0.00    -0.337 N 
ENDROOT
BRANCH   9  10
HETATM   10  C10 UNL     1      25.359   2.524  53.657  1.00  0.00     0.168 C 
BRANCH  10  11
HETATM   11  C11 UNL     1      26.522   1.605  53.586  1.00  0.00    -0.038 A 
HETATM   12  C12 UNL     1      27.803   2.030  53.873  1.00  0.00     0.010 A 
HETATM   13  C13 UNL     1      28.902   1.194  53.813  1.00  0.00     0.026 A 
HETATM   14  C14 UNL     1      28.752  -0.128  53.457  1.00  0.00     0.055 A 
HETATM   15 CL1  UNL     1      30.061  -1.274  53.349  1.00  0.00    -0.083 Cl
HETATM   16  C15 UNL     1      27.472  -0.548  53.172  1.00  0.00     0.056 A 
HETATM   17 CL2  UNL     1      27.178  -2.216  52.708  1.00  0.00    -0.083 Cl
HETATM   18  C16 UNL     1      26.356   0.287  53.229  1.00  0.00     0.034 A 
ENDBRANCH  10  11
ENDBRANCH   9  10
BRANCH   3  19
HETATM   19  S1  UNL     1      20.667  -0.874  53.829  1.00  0.00    -0.103 SA
HETATM   20  H7  UNL     1      20.541  -2.175  53.297  1.00  0.00     0.110 HD
ENDBRANCH   3  19
BRANCH   1  21
HETATM   21  N1  UNL     1      21.434   1.068  49.240  1.00  0.00    -0.350 N 
HETATM   22  H6  UNL     1      21.780   0.396  48.522  1.00  0.00     0.166 HD
BRANCH  21  23
HETATM   23  C3  UNL     1      20.505   1.984  48.675  1.00  0.00     0.085 C 
HETATM   24  C2  UNL     1      20.762   2.856  47.709  1.00  0.00    -0.014 C 
HETATM   25  C1  UNL     1      22.154   2.857  47.187  1.00  0.00     0.037 C 
ENDBRANCH  21  23
ENDBRANCH   1  21
TORSDOF 5
ENDMDL
MODEL 3
REMARK VINA RESULT:      -7.4      2.533      3.258
REMARK  5 active torsions:
REMARK  status: ('A' for Active; 'I' for Inactive)
REMARK    1  A    between atoms: C3_3  and  N1_4 
REMARK    2  A    between atoms: N1_4  and  C4_5 
REMARK    3  A    between atoms: C5_7  and  S1_8 
REMARK    4  A    between atoms: N4_14  and  C10_15 
REMARK    5  A    between atoms: C10_15  and  C11_16 
ROOT
HETATM    1  C4  UNL     1      25.097  -0.096  53.722  1.00  0.00     0.144 A 
HETATM    2  N2  UNL     1      24.047  -0.864  54.137  1.00  0.00    -0.204 NA
HETATM    3  C5  UNL     1      22.781  -0.463  53.914  1.00  0.00     0.189 A 
HETATM    4  N3  UNL     1      22.500   0.708  53.276  1.00  0.00    -0.204 NA
HETATM    5  C6  UNL     1      23.483   1.518  52.840  1.00  0.00     0.147 A 
HETATM    6  C7  UNL     1      24.791   1.085  53.080  1.00  0.00     0.057 A 
HETATM    7  C8  UNL     1      25.565   2.090  52.536  1.00  0.00     0.036 A 
HETATM    8  C9  UNL     1      24.790   3.099  51.985  1.00  0.00     0.094 A 
HETATM    9  N4  UNL     1      23.514   2.699  52.197  1.00  0.00    -0.337 N 
ENDROOT
BRANCH   9  10
HETATM   10  C10 UNL     1      22.352   3.467  51.777  1.00  0.00     0.168 C 
BRANCH  10  11
HETATM   11  C11 UNL     1      22.308   3.431  50.294  1.00  0.00    -0.038 A 
HETATM   12  C12 UNL     1      22.086   2.258  49.601  1.00  0.00     0.010 A 
HETATM   13  C13 UNL     1      22.041   2.199  48.221  1.00  0.00     0.026 A 
HETATM   14  C14 UNL     1      22.220   3.339  47.470  1.00  0.00     0.055 A 
HETATM   15 CL1  UNL     1      22.183   3.386  45.728  1.00  0.00    -0.083 Cl
HETATM   16  C15 UNL     1      22.440   4.507  48.165  1.00  0.00     0.056 A 
HETATM   17 CL2  UNL     1      22.679   6.015  47.296  1.00  0.00    -0.083 Cl
HETATM   18  C16 UNL     1      22.488   4.578  49.557  1.00  0.00     0.034 A 
ENDBRANCH  10  11
ENDBRANCH   9  10
BRANCH   3  19
HETATM   19  S1  UNL     1      21.510  -1.573  54.512  1.00  0.00    -0.103 SA
HETATM   20  H7  UNL     1      20.614  -0.888  55.361  1.00  0.00     0.110 HD
ENDBRANCH   3  19
BRANCH   1  21
HETATM   21  N1  UNL     1      26.408  -0.514  53.955  1.00  0.00    -0.350 N 
HETATM   22  H6  UNL     1      26.780  -1.371  53.492  1.00  0.00     0.166 HD
BRANCH  21  23
HETATM   23  C3  UNL     1      27.395   0.086  54.783  1.00  0.00     0.085 C 
HETATM   24  C2  UNL     1      28.709  -0.022  54.631  1.00  0.00    -0.014 C 
HETATM   25  C1  UNL     1      29.164  -0.850  53.484  1.00  0.00     0.037 C 
ENDBRANCH  21  23
ENDBRANCH   1  21
TORSDOF 5
ENDMDL
MODEL 4
REMARK VINA RESULT:      -7.3      3.747      7.021
REMARK  5 active torsions:
REMARK  status: ('A' for Active; 'I' for Inactive)
REMARK    1  A    between atoms: C3_3  and  N1_4 
REMARK    2  A    between atoms: N1_4  and  C4_5 
REMARK    3  A    between atoms: C5_7  and  S1_8 
REMARK    4  A    between atoms: N4_14  and  C10_15 
REMARK    5  A    between atoms: C10_15  and  C11_16 
ROOT
HETATM    1  C4  UNL     1      25.384   6.229  48.992  1.00  0.00     0.144 A 
HETATM    2  N2  UNL     1      24.229   6.807  49.434  1.00  0.00    -0.204 NA
HETATM    3  C5  UNL     1      23.450   6.172  50.330  1.00  0.00     0.189 A 
HETATM    4  N3  UNL     1      23.776   4.945  50.825  1.00  0.00    -0.204 NA
HETATM    5  C6  UNL     1      24.899   4.312  50.435  1.00  0.00     0.147 A 
HETATM    6  C7  UNL     1      25.696   4.986  49.505  1.00  0.00     0.057 A 
HETATM    7  C8  UNL     1      26.750   4.120  49.298  1.00  0.00     0.036 A 
HETATM    8  C9  UNL     1      26.625   2.965  50.056  1.00  0.00     0.094 A 
HETATM    9  N4  UNL     1      25.468   3.132  50.740  1.00  0.00    -0.337 N 
ENDROOT
BRANCH   9  10
HETATM   10  C10 UNL     1      24.937   2.149  51.670  1.00  0.00     0.168 C 
BRANCH  10  11
HETATM   11  C11 UNL     1      26.089   1.402  52.234  1.00  0.00    -0.038 A 
HETATM   12  C12 UNL     1      26.218   0.037  52.076  1.00  0.00     0.010 A 
HETATM   13  C13 UNL     1      27.280  -0.681  52.592  1.00  0.00     0.026 A 
HETATM   14  C14 UNL     1      28.273  -0.042  53.300  1.00  0.00     0.055 A 
HETATM   15 CL1  UNL     1      29.657  -0.841  53.995  1.00  0.00    -0.083 Cl
HETATM   16  C15 UNL     1      28.140   1.320  53.455  1.00  0.00     0.056 A 
HETATM   17 CL2  UNL     1      29.356   2.225  54.344  1.00  0.00    -0.083 Cl
HETATM   18  C16 UNL     1      27.073   2.054  52.940  1.00  0.00     0.034 A 
ENDBRANCH  10  11
ENDBRANCH   9  10
BRANCH   3  19
HETATM   19  S1  UNL     1      21.969   7.053  50.817  1.00  0.00    -0.103 SA
HETATM   20  H7  UNL     1      20.831   6.234  50.661  1.00  0.00     0.110 HD
ENDBRANCH   3  19
BRANCH   1  21
HETATM   21  N1  UNL     1      26.189   6.888  48.063  1.00  0.00    -0.350 N 
HETATM   22  H6  UNL     1      26.145   6.636  47.052  1.00  0.00     0.166 HD
BRANCH  21  23
HETATM   23  C3  UNL     1      27.132   7.928  48.288  1.00  0.00     0.085 C 
HETATM   24  C2  UNL     1      28.450   7.823  48.166  1.00  0.00    -0.014 C 
HETATM   25  C1  UNL     1      28.960   6.489  47.756  1.00  0.00     0.037 C 
ENDBRANCH  21  23
ENDBRANCH   1  21
TORSDOF 5
ENDMDL
MODEL 5
REMARK VINA RESULT:      -7.2      4.560      6.469
REMARK  5 active torsions:
REMARK  status: ('A' for Active; 'I' for Inactive)
REMARK    1  A    between atoms: C3_3  and  N1_4 
REMARK    2  A    between atoms: N1_4  and  C4_5 
REMARK    3  A    between atoms: C5_7  and  S1_8 
REMARK    4  A    between atoms: N4_14  and  C10_15 
REMARK    5  A    between atoms: C10_15  and  C11_16 
ROOT
HETATM    1  C4  UNL     1      25.181   1.186  52.137  1.00  0.00     0.144 A 
HETATM    2  N2  UNL     1      25.034   2.491  51.764  1.00  0.00    -0.204 NA
HETATM    3  C5  UNL     1      23.892   3.151  52.034  1.00  0.00     0.189 A 
HETATM    4  N3  UNL     1      22.851   2.554  52.680  1.00  0.00    -0.204 NA
HETATM    5  C6  UNL     1      22.923   1.269  53.077  1.00  0.00     0.147 A 
HETATM    6  C7  UNL     1      24.116   0.599  52.788  1.00  0.00     0.057 A 
HETATM    7  C8  UNL     1      23.905  -0.665  53.300  1.00  0.00     0.036 A 
HETATM    8  C9  UNL     1      22.650  -0.786  53.879  1.00  0.00     0.094 A 
HETATM    9  N4  UNL     1      22.084   0.433  53.715  1.00  0.00    -0.337 N 
ENDROOT
BRANCH   9  10
HETATM   10  C10 UNL     1      20.746   0.764  54.178  1.00  0.00     0.168 C 
BRANCH  10  11
HETATM   11  C11 UNL     1      19.804   0.461  53.072  1.00  0.00    -0.038 A 
HETATM   12  C12 UNL     1      18.899  -0.577  53.151  1.00  0.00     0.010 A 
HETATM   13  C13 UNL     1      18.013  -0.880  52.135  1.00  0.00     0.026 A 
HETATM   14  C14 UNL     1      18.002  -0.134  50.977  1.00  0.00     0.055 A 
HETATM   15 CL1  UNL     1      16.932  -0.420  49.631  1.00  0.00    -0.083 Cl
HETATM   16  C15 UNL     1      18.906   0.902  50.903  1.00  0.00     0.056 A 
HETATM   17 CL2  UNL     1      18.969   1.911  49.466  1.00  0.00    -0.083 Cl
HETATM   18  C16 UNL     1      19.805   1.215  51.922  1.00  0.00     0.034 A 
ENDBRANCH  10  11
ENDBRANCH   9  10
BRANCH   3  19
HETATM   19  S1  UNL     1      23.846   4.855  51.487  1.00  0.00    -0.103 SA
HETATM   20  H7  UNL     1      22.750   5.531  52.065  1.00  0.00     0.110 HD
ENDBRANCH   3  19
BRANCH   1  21
HETATM   21  N1  UNL     1      26.365   0.503  51.855  1.00  0.00    -0.350 N 
HETATM   22  H6  UNL     1      26.537   0.113  50.904  1.00  0.00     0.166 HD
BRANCH  21  23
HETATM   23  C3  UNL     1      27.460   0.235  52.722  1.00  0.00     0.085 C 
HETATM   24  C2  UNL     1      27.880  -0.968  53.094  1.00  0.00    -0.014 C 
HETATM   25  C1  UNL     1      27.121  -2.121  52.542  1.00  0.00     0.037 C 
ENDBRANCH  21  23
ENDBRANCH   1  21
TORSDOF 5
ENDMDL
MODEL 6
REMARK VINA RESULT:      -7.0      4.112      7.235
REMARK  5 active torsions:
REMARK  status: ('A' for Active; 'I' for Inactive)
REMARK    1  A    between atoms: C3_3  and  N1_4 
REMARK    2  A    between atoms: N1_4  and  C4_5 
REMARK    3  A    between atoms: C5_7  and  S1_8 
REMARK    4  A    between atoms: N4_14  and  C10_15 
REMARK    5  A    between atoms: C10_15  and  C11_16 
ROOT
HETATM    1  C4  UNL     1      23.183   2.919  49.053  1.00  0.00     0.144 A 
HETATM    2  N2  UNL     1      24.017   3.943  48.709  1.00  0.00    -0.204 NA
HETATM    3  C5  UNL     1      24.901   4.431  49.600  1.00  0.00     0.189 A 
HETATM    4  N3  UNL     1      24.998   3.930  50.864  1.00  0.00    -0.204 NA
HETATM    5  C6  UNL     1      24.207   2.921  51.276  1.00  0.00     0.147 A 
HETATM    6  C7  UNL     1      23.296   2.427  50.337  1.00  0.00     0.057 A 
HETATM    7  C8  UNL     1      22.640   1.425  51.023  1.00  0.00     0.036 A 
HETATM    8  C9  UNL     1      23.111   1.294  52.321  1.00  0.00     0.094 A 
HETATM    9  N4  UNL     1      24.076   2.238  52.427  1.00  0.00    -0.337 N 
ENDROOT
BRANCH   9  10
HETATM   10  C10 UNL     1      24.850   2.461  53.638  1.00  0.00     0.168 C 
BRANCH  10  11
HETATM   11  C11 UNL     1      26.086   1.646  53.534  1.00  0.00    -0.038 A 
HETATM   12  C12 UNL     1      27.333   2.184  53.774  1.00  0.00     0.010 A 
HETATM   13  C13 UNL     1      28.499   1.446  53.683  1.00  0.00     0.026 A 
HETATM   14  C14 UNL     1      28.453   0.113  53.340  1.00  0.00     0.055 A 
HETATM   15 CL1  UNL     1      29.853  -0.915  53.195  1.00  0.00    -0.083 Cl
HETATM   16  C15 UNL     1      27.206  -0.419  53.102  1.00  0.00     0.056 A 
HETATM   17 CL2  UNL     1      27.044  -2.111  52.658  1.00  0.00    -0.083 Cl
HETATM   18  C16 UNL     1      26.024   0.316  53.191  1.00  0.00     0.034 A 
ENDBRANCH  10  11
ENDBRANCH   9  10
BRANCH   3  19
HETATM   19  S1  UNL     1      25.928   5.771  49.006  1.00  0.00    -0.103 SA
HETATM   20  H7  UNL     1      25.145   6.912  48.730  1.00  0.00     0.110 HD
ENDBRANCH   3  19
BRANCH   1  21
HETATM   21  N1  UNL     1      22.268   2.417  48.128  1.00  0.00    -0.350 N 
HETATM   22  H6  UNL     1      22.483   1.551  47.587  1.00  0.00     0.166 HD
BRANCH  21  23
HETATM   23  C3  UNL     1      20.991   2.932  47.776  1.00  0.00     0.085 C 
HETATM   24  C2  UNL     1      20.694   3.582  46.657  1.00  0.00    -0.014 C 
HETATM   25  C1  UNL     1      21.817   3.775  45.702  1.00  0.00     0.037 C 
ENDBRANCH  21  23
ENDBRANCH   1  21
TORSDOF 5
ENDMDL
MODEL 7
REMARK VINA RESULT:      -6.9      4.766      6.462
REMARK  5 active torsions:
REMARK  status: ('A' for Active; 'I' for Inactive)
REMARK    1  A    between atoms: C3_3  and  N1_4 
REMARK    2  A    between atoms: N1_4  and  C4_5 
REMARK    3  A    between atoms: C5_7  and  S1_8 
REMARK    4  A    between atoms: N4_14  and  C10_15 
REMARK    5  A    between atoms: C10_15  and  C11_16 
ROOT
HETATM    1  C4  UNL     1      26.581   1.336  51.970  1.00  0.00     0.144 A 
HETATM    2  N2  UNL     1      26.891   2.316  51.072  1.00  0.00    -0.204 NA
HETATM    3  C5  UNL     1      25.930   3.129  50.594  1.00  0.00     0.189 A 
HETATM    4  N3  UNL     1      24.629   3.010  50.981  1.00  0.00    -0.204 NA
HETATM    5  C6  UNL     1      24.248   2.066  51.862  1.00  0.00     0.147 A 
HETATM    6  C7  UNL     1      25.259   1.231  52.348  1.00  0.00     0.057 A 
HETATM    7  C8  UNL     1      24.590   0.386  53.210  1.00  0.00     0.036 A 
HETATM    8  C9  UNL     1      23.234   0.671  53.265  1.00  0.00     0.094 A 
HETATM    9  N4  UNL     1      23.073   1.715  52.417  1.00  0.00    -0.337 N 
ENDROOT
BRANCH   9  10
HETATM   10  C10 UNL     1      21.791   2.350  52.160  1.00  0.00     0.168 C 
BRANCH  10  11
HETATM   11  C11 UNL     1      20.737   1.324  52.362  1.00  0.00    -0.038 A 
HETATM   12  C12 UNL     1      20.649   0.593  53.529  1.00  0.00     0.010 A 
HETATM   13  C13 UNL     1      19.679  -0.368  53.741  1.00  0.00     0.026 A 
HETATM   14  C14 UNL     1      18.741  -0.635  52.769  1.00  0.00     0.055 A 
HETATM   15 CL1  UNL     1      17.472  -1.821  52.924  1.00  0.00    -0.083 Cl
HETATM   16  C15 UNL     1      18.832   0.097  51.606  1.00  0.00     0.056 A 
HETATM   17 CL2  UNL     1      17.681  -0.171  50.307  1.00  0.00    -0.083 Cl
HETATM   18  C16 UNL     1      19.807   1.068  51.382  1.00  0.00     0.034 A 
ENDBRANCH  10  11
ENDBRANCH   9  10
BRANCH   3  19
HETATM   19  S1  UNL     1      26.485   4.367  49.426  1.00  0.00    -0.103 SA
HETATM   20  H7  UNL     1      27.619   3.910  48.720  1.00  0.00     0.110 HD
ENDBRANCH   3  19
BRANCH   1  21
HETATM   21  N1  UNL     1      27.579   0.494  52.463  1.00  0.00    -0.350 N 
HETATM   22  H6  UNL     1      27.694  -0.469  52.082  1.00  0.00     0.166 HD
BRANCH  21  23
HETATM   23  C3  UNL     1      28.538   0.758  53.479  1.00  0.00     0.085 C 
HETATM   24  C2  UNL     1      29.415  -0.111  53.965  1.00  0.00    -0.014 C 
HETATM   25  C1  UNL     1      29.371  -1.476  53.377  1.00  0.00     0.037 C 
ENDBRANCH  21  23
ENDBRANCH   1  21
TORSDOF 5
ENDMDL
MODEL 8
REMARK VINA RESULT:      -6.9      4.167      7.347
REMARK  5 active torsions:
REMARK  status: ('A' for Active; 'I' for Inactive)
REMARK    1  A    between atoms: C3_3  and  N1_4 
REMARK    2  A    between atoms: N1_4  and  C4_5 
REMARK    3  A    between atoms: C5_7  and  S1_8 
REMARK    4  A    between atoms: N4_14  and  C10_15 
REMARK    5  A    between atoms: C10_15  and  C11_16 
ROOT
HETATM    1  C4  UNL     1      22.819   3.201  48.455  1.00  0.00     0.144 A 
HETATM    2  N2  UNL     1      23.590   4.317  48.609  1.00  0.00    -0.204 NA
HETATM    3  C5  UNL     1      24.131   4.611  49.806  1.00  0.00     0.189 A 
HETATM    4  N3  UNL     1      23.933   3.820  50.898  1.00  0.00    -0.204 NA
HETATM    5  C6  UNL     1      23.183   2.704  50.824  1.00  0.00     0.147 A 
HETATM    6  C7  UNL     1      22.631   2.415  49.573  1.00  0.00     0.057 A 
HETATM    7  C8  UNL     1      21.932   1.245  49.794  1.00  0.00     0.036 A 
HETATM    8  C9  UNL     1      22.038   0.821  51.110  1.00  0.00     0.094 A 
HETATM    9  N4  UNL     1      22.820   1.754  51.704  1.00  0.00    -0.337 N 
ENDROOT
BRANCH   9  10
HETATM   10  C10 UNL     1      23.198   1.708  53.107  1.00  0.00     0.168 C 
BRANCH  10  11
HETATM   11  C11 UNL     1      24.627   1.315  53.172  1.00  0.00    -0.038 A 
HETATM   12  C12 UNL     1      25.608   2.200  53.567  1.00  0.00     0.010 A 
HETATM   13  C13 UNL     1      26.946   1.858  53.634  1.00  0.00     0.026 A 
HETATM   14  C14 UNL     1      27.356   0.587  53.300  1.00  0.00     0.055 A 
HETATM   15 CL1  UNL     1      29.011   0.041  53.347  1.00  0.00    -0.083 Cl
HETATM   16  C15 UNL     1      26.373  -0.294  52.907  1.00  0.00     0.056 A 
HETATM   17 CL2  UNL     1      26.797  -1.940  52.461  1.00  0.00    -0.083 Cl
HETATM   18  C16 UNL     1      25.021   0.041  52.835  1.00  0.00     0.034 A 
ENDBRANCH  10  11
ENDBRANCH   9  10
BRANCH   3  19
HETATM   19  S1  UNL     1      25.119   6.103  49.855  1.00  0.00    -0.103 SA
HETATM   20  H7  UNL     1      25.239   6.575  51.180  1.00  0.00     0.110 HD
ENDBRANCH   3  19
BRANCH   1  21
HETATM   21  N1  UNL     1      22.260   2.899  47.213  1.00  0.00    -0.350 N 
HETATM   22  H6  UNL     1      22.100   1.907  46.932  1.00  0.00     0.166 HD
BRANCH  21  23
HETATM   23  C3  UNL     1      21.839   3.792  46.191  1.00  0.00     0.085 C 
HETATM   24  C2  UNL     1      20.582   4.081  45.879  1.00  0.00    -0.014 C 
HETATM   25  C1  UNL     1      19.538   3.397  46.688  1.00  0.00     0.037 C 
ENDBRANCH  21  23
ENDBRANCH   1  21
TORSDOF 5
ENDMDL
MODEL 9
REMARK VINA RESULT:      -6.8      2.397      3.699
REMARK  5 active torsions:
REMARK  status: ('A' for Active; 'I' for Inactive)
REMARK    1  A    between atoms: C3_3  and  N1_4 
REMARK    2  A    between atoms: N1_4  and  C4_5 
REMARK    3  A    between atoms: C5_7  and  S1_8 
REMARK    4  A    between atoms: N4_14  and  C10_15 
REMARK    5  A    between atoms: C10_15  and  C11_16 
ROOT
HETATM    1  C4  UNL     1      24.740   0.244  52.966  1.00  0.00     0.144 A 
HETATM    2  N2  UNL     1      25.955   0.146  53.581  1.00  0.00    -0.204 NA
HETATM    3  C5  UNL     1      26.946   1.004  53.272  1.00  0.00     0.189 A 
HETATM    4  N3  UNL     1      26.780   1.990  52.345  1.00  0.00    -0.204 NA
HETATM    5  C6  UNL     1      25.611   2.146  51.696  1.00  0.00     0.147 A 
HETATM    6  C7  UNL     1      24.594   1.247  52.030  1.00  0.00     0.057 A 
HETATM    7  C8  UNL     1      23.542   1.640  51.228  1.00  0.00     0.036 A 
HETATM    8  C9  UNL     1      23.876   2.727  50.433  1.00  0.00     0.094 A 
HETATM    9  N4  UNL     1      25.162   3.001  50.759  1.00  0.00    -0.337 N 
ENDROOT
BRANCH   9  10
HETATM   10  C10 UNL     1      25.929   4.080  50.158  1.00  0.00     0.168 C 
BRANCH  10  11
HETATM   11  C11 UNL     1      25.010   5.232  49.976  1.00  0.00    -0.038 A 
HETATM   12  C12 UNL     1      24.496   5.928  51.051  1.00  0.00     0.010 A 
HETATM   13  C13 UNL     1      23.638   7.003  50.907  1.00  0.00     0.026 A 
HETATM   14  C14 UNL     1      23.259   7.427  49.653  1.00  0.00     0.055 A 
HETATM   15 CL1  UNL     1      22.186   8.767  49.350  1.00  0.00    -0.083 Cl
HETATM   16  C15 UNL     1      23.775   6.729  48.584  1.00  0.00     0.056 A 
HETATM   17 CL2  UNL     1      23.350   7.195  46.944  1.00  0.00    -0.083 Cl
HETATM   18  C16 UNL     1      24.640   5.644  48.718  1.00  0.00     0.034 A 
ENDBRANCH  10  11
ENDBRANCH   9  10
BRANCH   3  19
HETATM   19  S1  UNL     1      28.479   0.755  54.161  1.00  0.00    -0.103 SA
HETATM   20  H7  UNL     1      28.342  -0.284  55.106  1.00  0.00     0.110 HD
ENDBRANCH   3  19
BRANCH   1  21
HETATM   21  N1  UNL     1      23.716  -0.647  53.287  1.00  0.00    -0.350 N 
HETATM   22  H6  UNL     1      23.295  -1.257  52.554  1.00  0.00     0.166 HD
BRANCH  21  23
HETATM   23  C3  UNL     1      23.106  -0.876  54.551  1.00  0.00     0.085 C 
HETATM   24  C2  UNL     1      21.813  -0.751  54.825  1.00  0.00    -0.014 C 
HETATM   25  C1  UNL     1      20.947  -0.333  53.692  1.00  0.00     0.037 C 
ENDBRANCH  21  23
ENDBRANCH   1  21
TORSDOF 5
ENDMDL
