MODEL 1
REMARK VINA RESULT:      -7.7      0.000      0.000
REMARK  6 active torsions:
REMARK  status: ('A' for Active; 'I' for Inactive)
REMARK    1  A    between atoms: O1_2  and  C2_3 
REMARK    2  A    between atoms: C5_6  and  N1_7 
REMARK    3  A    between atoms: N1_7  and  C6_8 
REMARK    4  A    between atoms: C7_9  and  C8_10 
REMARK    5  A    between atoms: C9_11  and  C10_12 
REMARK    6  A    between atoms: C10_12  and  O2_14 
ROOT
HETATM    1  C2  UNL     1      22.978  -0.229  52.940  1.00  0.00     0.075 A 
HETATM    2  C3  UNL     1      24.148   0.256  52.419  1.00  0.00     0.055 A 
HETATM    3  C4  UNL     1      25.308   0.187  53.164  1.00  0.00     0.041 A 
HETATM    4  C5  UNL     1      26.435   0.701  52.556  1.00  0.00     0.141 A 
HETATM    5  N2  UNL     1      27.600   0.670  53.218  1.00  0.00    -0.224 NA
HETATM    6  C12 UNL     1      27.639   0.139  54.458  1.00  0.00     0.236 A 
HETATM    7  N3  UNL     1      26.555  -0.371  55.078  1.00  0.00    -0.241 NA
HETATM    8  C13 UNL     1      25.368  -0.352  54.432  1.00  0.00     0.072 A 
HETATM    9  C14 UNL     1      24.182  -0.836  54.944  1.00  0.00     0.042 A 
HETATM   10  C15 UNL     1      23.005  -0.779  54.215  1.00  0.00    -0.026 A 
HETATM   11  C16 UNL     1      21.828  -1.356  54.943  1.00  0.00     0.051 C 
ENDROOT
BRANCH   4  12
HETATM   12  N1  UNL     1      26.499   1.280  51.257  1.00  0.00    -0.350 N 
HETATM   13  H5  UNL     1      26.537   0.842  50.316  1.00  0.00     0.166 HD
BRANCH  12  14
HETATM   14  C6  UNL     1      26.524   2.692  50.991  1.00  0.00     0.090 C 
HETATM   15  C7  UNL     1      26.546   3.177  49.750  1.00  0.00     0.017 C 
BRANCH  15  16
HETATM   16  C8  UNL     1      26.571   4.591  49.411  1.00  0.00    -0.000 C 
HETATM   17  C9  UNL     1      27.523   5.083  48.635  1.00  0.00     0.004 C 
BRANCH  17  18
HETATM   18  C10 UNL     1      27.506   6.542  48.315  1.00  0.00     0.137 C 
HETATM   19  C11 UNL     1      28.805   6.852  47.612  1.00  0.00     0.043 C 
BRANCH  18  20
HETATM   20  O2  UNL     1      27.374   7.226  49.513  1.00  0.00    -0.392 OA
HETATM   21  H14 UNL     1      26.459   7.290  49.841  1.00  0.00     0.210 HD
ENDBRANCH  18  20
ENDBRANCH  17  18
ENDBRANCH  15  16
ENDBRANCH  12  14
ENDBRANCH   4  12
BRANCH   1  22
HETATM   22  O1  UNL     1      21.729  -0.240  52.332  1.00  0.00    -0.355 OA
HETATM   23  C1  UNL     1      21.554   0.620  51.220  1.00  0.00     0.210 C 
ENDBRANCH   1  22
TORSDOF 6
ENDMDL
MODEL 2
REMARK VINA RESULT:      -7.3      1.308      1.551
REMARK  6 active torsions:
REMARK  status: ('A' for Active; 'I' for Inactive)
REMARK    1  A    between atoms: O1_2  and  C2_3 
REMARK    2  A    between atoms: C5_6  and  N1_7 
REMARK    3  A    between atoms: N1_7  and  C6_8 
REMARK    4  A    between atoms: C7_9  and  C8_10 
REMARK    5  A    between atoms: C9_11  and  C10_12 
REMARK    6  A    between atoms: C10_12  and  O2_14 
ROOT
HETATM    1  C2  UNL     1      22.034   0.642  53.122  1.00  0.00     0.075 A 
HETATM    2  C3  UNL     1      23.006   1.304  52.421  1.00  0.00     0.055 A 
HETATM    3  C4  UNL     1      24.310   0.854  52.469  1.00  0.00     0.041 A 
HETATM    4  C5  UNL     1      25.218   1.585  51.732  1.00  0.00     0.141 A 
HETATM    5  N2  UNL     1      26.505   1.208  51.730  1.00  0.00    -0.224 NA
HETATM    6  C12 UNL     1      26.876   0.128  52.449  1.00  0.00     0.236 A 
HETATM    7  N3  UNL     1      26.012  -0.606  53.179  1.00  0.00    -0.241 NA
HETATM    8  C13 UNL     1      24.709  -0.248  53.198  1.00  0.00     0.072 A 
HETATM    9  C14 UNL     1      23.719  -0.905  53.899  1.00  0.00     0.042 A 
HETATM   10  C15 UNL     1      22.403  -0.473  53.865  1.00  0.00    -0.026 A 
HETATM   11  C16 UNL     1      21.479  -1.317  54.691  1.00  0.00     0.051 C 
ENDROOT
BRANCH   4  12
HETATM   12  N1  UNL     1      24.929   2.734  50.944  1.00  0.00    -0.350 N 
HETATM   13  H5  UNL     1      24.035   3.080  50.544  1.00  0.00     0.166 HD
BRANCH  12  14
HETATM   14  C6  UNL     1      25.902   3.705  50.524  1.00  0.00     0.090 C 
HETATM   15  C7  UNL     1      25.799   4.355  49.366  1.00  0.00     0.017 C 
BRANCH  15  16
HETATM   16  C8  UNL     1      26.745   5.348  48.883  1.00  0.00    -0.000 C 
HETATM   17  C9  UNL     1      27.981   5.003  48.560  1.00  0.00     0.004 C 
BRANCH  17  18
HETATM   18  C10 UNL     1      28.916   6.059  48.069  1.00  0.00     0.137 C 
HETATM   19  C11 UNL     1      30.268   5.408  47.911  1.00  0.00     0.043 C 
BRANCH  18  20
HETATM   20  O2  UNL     1      28.923   7.076  49.011  1.00  0.00    -0.392 OA
HETATM   21  H14 UNL     1      28.186   7.039  49.647  1.00  0.00     0.210 HD
ENDBRANCH  18  20
ENDBRANCH  17  18
ENDBRANCH  15  16
ENDBRANCH  12  14
ENDBRANCH   4  12
BRANCH   1  22
HETATM   22  O1  UNL     1      20.682   0.956  53.183  1.00  0.00    -0.355 OA
HETATM   23  C1  UNL     1      20.025   1.185  51.950  1.00  0.00     0.210 C 
ENDBRANCH   1  22
TORSDOF 6
ENDMDL
MODEL 3
REMARK VINA RESULT:      -7.3      1.528      2.474
REMARK  6 active torsions:
REMARK  status: ('A' for Active; 'I' for Inactive)
REMARK    1  A    between atoms: O1_2  and  C2_3 
REMARK    2  A    between atoms: C5_6  and  N1_7 
REMARK    3  A    between atoms: N1_7  and  C6_8 
REMARK    4  A    between atoms: C7_9  and  C8_10 
REMARK    5  A    between atoms: C9_11  and  C10_12 
REMARK    6  A    between atoms: C10_12  and  O2_14 
ROOT
HETATM    1  C2  UNL     1      21.764  -0.119  52.264  1.00  0.00     0.075 A 
HETATM    2  C3  UNL     1      23.111  -0.146  52.512  1.00  0.00     0.055 A 
HETATM    3  C4  UNL     1      23.572  -0.582  53.737  1.00  0.00     0.041 A 
HETATM    4  C5  UNL     1      24.943  -0.572  53.893  1.00  0.00     0.141 A 
HETATM    5  N2  UNL     1      25.466  -0.982  55.058  1.00  0.00    -0.224 NA
HETATM    6  C12 UNL     1      24.640  -1.392  56.043  1.00  0.00     0.236 A 
HETATM    7  N3  UNL     1      23.297  -1.413  55.920  1.00  0.00    -0.241 NA
HETATM    8  C13 UNL     1      22.744  -1.004  54.756  1.00  0.00     0.072 A 
HETATM    9  C14 UNL     1      21.390  -0.973  54.493  1.00  0.00     0.042 A 
HETATM   10  C15 UNL     1      20.903  -0.540  53.271  1.00  0.00    -0.026 A 
HETATM   11  C16 UNL     1      19.407  -0.579  53.180  1.00  0.00     0.051 C 
ENDROOT
BRANCH   4  12
HETATM   12  N1  UNL     1      25.896  -0.161  52.920  1.00  0.00    -0.350 N 
HETATM   13  H5  UNL     1      26.556  -0.712  52.335  1.00  0.00     0.166 HD
BRANCH  12  14
HETATM   14  C6  UNL     1      26.140   1.202  52.536  1.00  0.00     0.090 C 
HETATM   15  C7  UNL     1      26.181   1.581  51.259  1.00  0.00     0.017 C 
BRANCH  15  16
HETATM   16  C8  UNL     1      26.422   2.941  50.804  1.00  0.00    -0.000 C 
HETATM   17  C9  UNL     1      25.830   3.404  49.714  1.00  0.00     0.004 C 
BRANCH  17  18
HETATM   18  C10 UNL     1      26.109   4.807  49.287  1.00  0.00     0.137 C 
HETATM   19  C11 UNL     1      27.545   4.846  48.823  1.00  0.00     0.043 C 
BRANCH  18  20
HETATM   20  O2  UNL     1      25.882   5.625  50.382  1.00  0.00    -0.392 OA
HETATM   21  H14 UNL     1      26.564   5.568  51.075  1.00  0.00     0.210 HD
ENDBRANCH  18  20
ENDBRANCH  17  18
ENDBRANCH  15  16
ENDBRANCH  12  14
ENDBRANCH   4  12
BRANCH   1  22
HETATM   22  O1  UNL     1      21.133   0.287  51.095  1.00  0.00    -0.355 OA
HETATM   23  C1  UNL     1      21.811   1.248  50.306  1.00  0.00     0.210 C 
ENDBRANCH   1  22
TORSDOF 6
ENDMDL
MODEL 4
REMARK VINA RESULT:      -7.1      3.848      5.388
REMARK  6 active torsions:
REMARK  status: ('A' for Active; 'I' for Inactive)
REMARK    1  A    between atoms: O1_2  and  C2_3 
REMARK    2  A    between atoms: C5_6  and  N1_7 
REMARK    3  A    between atoms: N1_7  and  C6_8 
REMARK    4  A    between atoms: C7_9  and  C8_10 
REMARK    5  A    between atoms: C9_11  and  C10_12 
REMARK    6  A    between atoms: C10_12  and  O2_14 
ROOT
HETATM    1  C2  UNL     1      19.344   0.516  51.442  1.00  0.00     0.075 A 
HETATM    2  C3  UNL     1      20.659   0.619  51.813  1.00  0.00     0.055 A 
HETATM    3  C4  UNL     1      21.122  -0.103  52.894  1.00  0.00     0.041 A 
HETATM    4  C5  UNL     1      22.459   0.066  53.191  1.00  0.00     0.141 A 
HETATM    5  N2  UNL     1      22.982  -0.604  54.229  1.00  0.00    -0.224 NA
HETATM    6  C12 UNL     1      22.189  -1.422  54.952  1.00  0.00     0.236 A 
HETATM    7  N3  UNL     1      20.880  -1.608  54.685  1.00  0.00    -0.241 NA
HETATM    8  C13 UNL     1      20.328  -0.945  53.645  1.00  0.00     0.072 A 
HETATM    9  C14 UNL     1      19.007  -1.039  53.260  1.00  0.00     0.042 A 
HETATM   10  C15 UNL     1      18.518  -0.324  52.178  1.00  0.00    -0.026 A 
HETATM   11  C16 UNL     1      17.060  -0.561  51.920  1.00  0.00     0.051 C 
ENDROOT
BRANCH   4  12
HETATM   12  N1  UNL     1      23.376   0.902  52.494  1.00  0.00    -0.350 N 
HETATM   13  H5  UNL     1      23.269   1.450  51.618  1.00  0.00     0.166 HD
BRANCH  12  14
HETATM   14  C6  UNL     1      24.726   1.161  52.909  1.00  0.00     0.090 C 
HETATM   15  C7  UNL     1      25.764   0.992  52.090  1.00  0.00     0.017 C 
BRANCH  15  16
HETATM   16  C8  UNL     1      27.152   1.237  52.445  1.00  0.00    -0.000 C 
HETATM   17  C9  UNL     1      27.791   0.426  53.273  1.00  0.00     0.004 C 
BRANCH  17  18
HETATM   18  C10 UNL     1      29.217   0.719  53.608  1.00  0.00     0.137 C 
HETATM   19  C11 UNL     1      29.942  -0.604  53.631  1.00  0.00     0.043 C 
BRANCH  18  20
HETATM   20  O2  UNL     1      29.230   1.354  54.840  1.00  0.00    -0.392 OA
HETATM   21  H14 UNL     1      28.811   0.846  55.558  1.00  0.00     0.210 HD
ENDBRANCH  18  20
ENDBRANCH  17  18
ENDBRANCH  15  16
ENDBRANCH  12  14
ENDBRANCH   4  12
BRANCH   1  22
HETATM   22  O1  UNL     1      18.716   1.167  50.388  1.00  0.00    -0.355 OA
HETATM   23  C1  UNL     1      19.538   1.950  49.542  1.00  0.00     0.210 C 
ENDBRANCH   1  22
TORSDOF 6
ENDMDL
MODEL 5
REMARK VINA RESULT:      -7.1      2.967      7.396
REMARK  6 active torsions:
REMARK  status: ('A' for Active; 'I' for Inactive)
REMARK    1  A    between atoms: O1_2  and  C2_3 
REMARK    2  A    between atoms: C5_6  and  N1_7 
REMARK    3  A    between atoms: N1_7  and  C6_8 
REMARK    4  A    between atoms: C7_9  and  C8_10 
REMARK    5  A    between atoms: C9_11  and  C10_12 
REMARK    6  A    between atoms: C10_12  and  O2_14 
ROOT
HETATM    1  C2  UNL     1      26.593   1.279  52.461  1.00  0.00     0.075 A 
HETATM    2  C3  UNL     1      25.267   0.932  52.480  1.00  0.00     0.055 A 
HETATM    3  C4  UNL     1      24.786   0.132  53.496  1.00  0.00     0.041 A 
HETATM    4  C5  UNL     1      23.440  -0.163  53.431  1.00  0.00     0.141 A 
HETATM    5  N2  UNL     1      22.899  -0.937  54.383  1.00  0.00    -0.224 NA
HETATM    6  C12 UNL     1      23.683  -1.405  55.376  1.00  0.00     0.236 A 
HETATM    7  N3  UNL     1      25.001  -1.134  55.467  1.00  0.00    -0.241 NA
HETATM    8  C13 UNL     1      25.571  -0.356  54.520  1.00  0.00     0.072 A 
HETATM    9  C14 UNL     1      26.904   0.000  54.487  1.00  0.00     0.042 A 
HETATM   10  C15 UNL     1      27.411   0.804  53.478  1.00  0.00    -0.026 A 
HETATM   11  C16 UNL     1      28.878   1.078  53.619  1.00  0.00     0.051 C 
ENDROOT
BRANCH   4  12
HETATM   12  N1  UNL     1      22.530   0.279  52.430  1.00  0.00    -0.350 N 
HETATM   13  H5  UNL     1      22.696   0.666  51.480  1.00  0.00     0.166 HD
BRANCH  12  14
HETATM   14  C6  UNL     1      21.099   0.268  52.561  1.00  0.00     0.090 C 
HETATM   15  C7  UNL     1      20.291   0.288  51.501  1.00  0.00     0.017 C 
BRANCH  15  16
HETATM   16  C8  UNL     1      18.839   0.278  51.563  1.00  0.00    -0.000 C 
HETATM   17  C9  UNL     1      18.195  -0.708  52.167  1.00  0.00     0.004 C 
BRANCH  17  18
HETATM   18  C10 UNL     1      16.702  -0.673  52.205  1.00  0.00     0.137 C 
HETATM   19  C11 UNL     1      16.276   0.592  51.503  1.00  0.00     0.043 C 
BRANCH  18  20
HETATM   20  O2  UNL     1      16.321  -0.696  53.537  1.00  0.00    -0.392 OA
HETATM   21  H14 UNL     1      15.589  -0.092  53.757  1.00  0.00     0.210 HD
ENDBRANCH  18  20
ENDBRANCH  17  18
ENDBRANCH  15  16
ENDBRANCH  12  14
ENDBRANCH   4  12
BRANCH   1  22
HETATM   22  O1  UNL     1      27.240   2.071  51.520  1.00  0.00    -0.355 OA
HETATM   23  C1  UNL     1      26.422   2.903  50.718  1.00  0.00     0.210 C 
ENDBRANCH   1  22
TORSDOF 6
ENDMDL
MODEL 6
REMARK VINA RESULT:      -7.0      1.978      3.341
REMARK  6 active torsions:
REMARK  status: ('A' for Active; 'I' for Inactive)
REMARK    1  A    between atoms: O1_2  and  C2_3 
REMARK    2  A    between atoms: C5_6  and  N1_7 
REMARK    3  A    between atoms: N1_7  and  C6_8 
REMARK    4  A    between atoms: C7_9  and  C8_10 
REMARK    5  A    between atoms: C9_11  and  C10_12 
REMARK    6  A    between atoms: C10_12  and  O2_14 
ROOT
HETATM    1  C2  UNL     1      24.682  -0.263  53.989  1.00  0.00     0.075 A 
HETATM    2  C3  UNL     1      24.903   0.577  52.929  1.00  0.00     0.055 A 
HETATM    3  C4  UNL     1      23.838   1.003  52.161  1.00  0.00     0.041 A 
HETATM    4  C5  UNL     1      24.159   1.845  51.117  1.00  0.00     0.141 A 
HETATM    5  N2  UNL     1      23.176   2.301  50.326  1.00  0.00    -0.224 NA
HETATM    6  C12 UNL     1      21.904   1.924  50.573  1.00  0.00     0.236 A 
HETATM    7  N3  UNL     1      21.560   1.103  51.585  1.00  0.00    -0.241 NA
HETATM    8  C13 UNL     1      22.531   0.629  52.397  1.00  0.00     0.072 A 
HETATM    9  C14 UNL     1      22.323  -0.216  53.467  1.00  0.00     0.042 A 
HETATM   10  C15 UNL     1      23.376  -0.657  54.253  1.00  0.00    -0.026 A 
HETATM   11  C16 UNL     1      22.947  -1.568  55.364  1.00  0.00     0.051 C 
ENDROOT
BRANCH   4  12
HETATM   12  N1  UNL     1      25.463   2.300  50.775  1.00  0.00    -0.350 N 
HETATM   13  H5  UNL     1      26.375   1.802  50.749  1.00  0.00     0.166 HD
BRANCH  12  14
HETATM   14  C6  UNL     1      25.782   3.641  50.368  1.00  0.00     0.090 C 
HETATM   15  C7  UNL     1      26.600   3.895  49.347  1.00  0.00     0.017 C 
BRANCH  15  16
HETATM   16  C8  UNL     1      26.963   5.225  48.884  1.00  0.00    -0.000 C 
HETATM   17  C9  UNL     1      28.206   5.499  48.522  1.00  0.00     0.004 C 
BRANCH  17  18
HETATM   18  C10 UNL     1      28.530   6.880  48.053  1.00  0.00     0.137 C 
HETATM   19  C11 UNL     1      29.769   6.772  47.199  1.00  0.00     0.043 C 
BRANCH  18  20
HETATM   20  O2  UNL     1      28.728   7.662  49.180  1.00  0.00    -0.392 OA
HETATM   21  H14 UNL     1      28.260   7.348  49.975  1.00  0.00     0.210 HD
ENDBRANCH  18  20
ENDBRANCH  17  18
ENDBRANCH  15  16
ENDBRANCH  12  14
ENDBRANCH   4  12
BRANCH   1  22
HETATM   22  O1  UNL     1      25.631  -0.784  54.859  1.00  0.00    -0.355 OA
HETATM   23  C1  UNL     1      26.893  -0.142  54.883  1.00  0.00     0.210 C 
ENDBRANCH   1  22
TORSDOF 6
ENDMDL
MODEL 7
REMARK VINA RESULT:      -7.0      1.608      1.792
REMARK  6 active torsions:
REMARK  status: ('A' for Active; 'I' for Inactive)
REMARK    1  A    between atoms: O1_2  and  C2_3 
REMARK    2  A    between atoms: C5_6  and  N1_7 
REMARK    3  A    between atoms: N1_7  and  C6_8 
REMARK    4  A    between atoms: C7_9  and  C8_10 
REMARK    5  A    between atoms: C9_11  and  C10_12 
REMARK    6  A    between atoms: C10_12  and  O2_14 
ROOT
HETATM    1  C2  UNL     1      22.783   0.579  52.706  1.00  0.00     0.075 A 
HETATM    2  C3  UNL     1      23.990   0.913  52.150  1.00  0.00     0.055 A 
HETATM    3  C4  UNL     1      25.156   0.441  52.716  1.00  0.00     0.041 A 
HETATM    4  C5  UNL     1      26.321   0.830  52.087  1.00  0.00     0.141 A 
HETATM    5  N2  UNL     1      27.495   0.411  52.580  1.00  0.00    -0.224 NA
HETATM    6  C12 UNL     1      27.506  -0.377  53.675  1.00  0.00     0.236 A 
HETATM    7  N3  UNL     1      26.385  -0.774  54.312  1.00  0.00    -0.241 NA
HETATM    8  C13 UNL     1      25.188  -0.365  53.835  1.00  0.00     0.072 A 
HETATM    9  C14 UNL     1      23.966  -0.693  54.385  1.00  0.00     0.042 A 
HETATM   10  C15 UNL     1      22.781  -0.232  53.834  1.00  0.00    -0.026 A 
HETATM   11  C16 UNL     1      21.562  -0.697  54.573  1.00  0.00     0.051 C 
ENDROOT
BRANCH   4  12
HETATM   12  N1  UNL     1      26.416   1.655  50.931  1.00  0.00    -0.350 N 
HETATM   13  H5  UNL     1      26.549   1.413  49.929  1.00  0.00     0.166 HD
BRANCH  12  14
HETATM   14  C6  UNL     1      26.340   3.090  50.941  1.00  0.00     0.090 C 
HETATM   15  C7  UNL     1      25.874   3.781  49.901  1.00  0.00     0.017 C 
BRANCH  15  16
HETATM   16  C8  UNL     1      25.770   5.230  49.845  1.00  0.00    -0.000 C 
HETATM   17  C9  UNL     1      24.780   5.860  50.457  1.00  0.00     0.004 C 
BRANCH  17  18
HETATM   18  C10 UNL     1      24.716   7.350  50.371  1.00  0.00     0.137 C 
HETATM   19  C11 UNL     1      26.125   7.836  50.135  1.00  0.00     0.043 C 
BRANCH  18  20
HETATM   20  O2  UNL     1      24.189   7.810  51.568  1.00  0.00    -0.392 OA
HETATM   21  H14 UNL     1      24.537   7.363  52.359  1.00  0.00     0.210 HD
ENDBRANCH  18  20
ENDBRANCH  17  18
ENDBRANCH  15  16
ENDBRANCH  12  14
ENDBRANCH   4  12
BRANCH   1  22
HETATM   22  O1  UNL     1      21.522   0.964  52.268  1.00  0.00    -0.355 OA
HETATM   23  C1  UNL     1      21.236   2.351  52.287  1.00  0.00     0.210 C 
ENDBRANCH   1  22
TORSDOF 6
ENDMDL
MODEL 8
REMARK VINA RESULT:      -6.7      3.431      7.171
REMARK  6 active torsions:
REMARK  status: ('A' for Active; 'I' for Inactive)
REMARK    1  A    between atoms: O1_2  and  C2_3 
REMARK    2  A    between atoms: C5_6  and  N1_7 
REMARK    3  A    between atoms: N1_7  and  C6_8 
REMARK    4  A    between atoms: C7_9  and  C8_10 
REMARK    5  A    between atoms: C9_11  and  C10_12 
REMARK    6  A    between atoms: C10_12  and  O2_14 
ROOT
HETATM    1  C2  UNL     1      25.884  -0.182  53.690  1.00  0.00     0.075 A 
HETATM    2  C3  UNL     1      24.953   0.733  53.275  1.00  0.00     0.055 A 
HETATM    3  C4  UNL     1      25.283   1.646  52.294  1.00  0.00     0.041 A 
HETATM    4  C5  UNL     1      24.282   2.527  51.942  1.00  0.00     0.141 A 
HETATM    5  N2  UNL     1      24.528   3.444  50.995  1.00  0.00    -0.224 NA
HETATM    6  C12 UNL     1      25.745   3.481  50.414  1.00  0.00     0.236 A 
HETATM    7  N3  UNL     1      26.744   2.633  50.736  1.00  0.00    -0.241 NA
HETATM    8  C13 UNL     1      26.522   1.699  51.688  1.00  0.00     0.072 A 
HETATM    9  C14 UNL     1      27.449   0.772  52.116  1.00  0.00     0.042 A 
HETATM   10  C15 UNL     1      27.141  -0.155  53.099  1.00  0.00    -0.026 A 
HETATM   11  C16 UNL     1      28.280  -1.075  53.425  1.00  0.00     0.051 C 
ENDROOT
BRANCH   4  12
HETATM   12  N1  UNL     1      22.970   2.571  52.492  1.00  0.00    -0.350 N 
HETATM   13  H5  UNL     1      22.545   3.212  53.191  1.00  0.00     0.166 HD
BRANCH  12  14
HETATM   14  C6  UNL     1      21.908   1.665  52.153  1.00  0.00     0.090 C 
HETATM   15  C7  UNL     1      20.744   1.664  52.801  1.00  0.00     0.017 C 
BRANCH  15  16
HETATM   16  C8  UNL     1      19.631   0.776  52.508  1.00  0.00    -0.000 C 
HETATM   17  C9  UNL     1      19.429  -0.316  53.228  1.00  0.00     0.004 C 
BRANCH  17  18
HETATM   18  C10 UNL     1      18.271  -1.197  52.888  1.00  0.00     0.137 C 
HETATM   19  C11 UNL     1      17.531  -0.528  51.756  1.00  0.00     0.043 C 
BRANCH  18  20
HETATM   20  O2  UNL     1      17.497  -1.320  54.031  1.00  0.00    -0.392 OA
HETATM   21  H14 UNL     1      17.850  -1.942  54.691  1.00  0.00     0.210 HD
ENDBRANCH  18  20
ENDBRANCH  17  18
ENDBRANCH  15  16
ENDBRANCH  12  14
ENDBRANCH   4  12
BRANCH   1  22
HETATM   22  O1  UNL     1      25.721  -1.165  54.659  1.00  0.00    -0.355 OA
HETATM   23  C1  UNL     1      24.509  -1.143  55.390  1.00  0.00     0.210 C 
ENDBRANCH   1  22
TORSDOF 6
ENDMDL
MODEL 9
REMARK VINA RESULT:      -6.7      2.374      6.718
REMARK  6 active torsions:
REMARK  status: ('A' for Active; 'I' for Inactive)
REMARK    1  A    between atoms: O1_2  and  C2_3 
REMARK    2  A    between atoms: C5_6  and  N1_7 
REMARK    3  A    between atoms: N1_7  and  C6_8 
REMARK    4  A    between atoms: C7_9  and  C8_10 
REMARK    5  A    between atoms: C9_11  and  C10_12 
REMARK    6  A    between atoms: C10_12  and  O2_14 
ROOT
HETATM    1  C2  UNL     1      24.924   1.723  51.562  1.00  0.00     0.075 A 
HETATM    2  C3  UNL     1      24.989   0.838  52.606  1.00  0.00     0.055 A 
HETATM    3  C4  UNL     1      26.166   0.700  53.314  1.00  0.00     0.041 A 
HETATM    4  C5  UNL     1      26.133  -0.214  54.346  1.00  0.00     0.141 A 
HETATM    5  N2  UNL     1      27.240  -0.403  55.079  1.00  0.00    -0.224 NA
HETATM    6  C12 UNL     1      28.352   0.303  54.787  1.00  0.00     0.236 A 
HETATM    7  N3  UNL     1      28.414   1.204  53.785  1.00  0.00    -0.241 NA
HETATM    8  C13 UNL     1      27.312   1.414  53.031  1.00  0.00     0.072 A 
HETATM    9  C14 UNL     1      27.233   2.301  51.978  1.00  0.00     0.042 A 
HETATM   10  C15 UNL     1      26.063   2.458  51.253  1.00  0.00    -0.026 A 
HETATM   11  C16 UNL     1      26.178   3.467  50.150  1.00  0.00     0.051 C 
ENDROOT
BRANCH   4  12
HETATM   12  N1  UNL     1      25.016  -1.006  54.733  1.00  0.00    -0.350 N 
HETATM   13  H5  UNL     1      24.958  -1.869  55.308  1.00  0.00     0.166 HD
BRANCH  12  14
HETATM   14  C6  UNL     1      23.653  -0.733  54.368  1.00  0.00     0.090 C 
HETATM   15  C7  UNL     1      22.628  -1.360  54.944  1.00  0.00     0.017 C 
BRANCH  15  16
HETATM   16  C8  UNL     1      21.228  -1.131  54.624  1.00  0.00    -0.000 C 
HETATM   17  C9  UNL     1      20.875  -0.638  53.447  1.00  0.00     0.004 C 
BRANCH  17  18
HETATM   18  C10 UNL     1      19.425  -0.421  53.166  1.00  0.00     0.137 C 
HETATM   19  C11 UNL     1      18.707  -1.686  53.568  1.00  0.00     0.043 C 
BRANCH  18  20
HETATM   20  O2  UNL     1      19.303  -0.149  51.812  1.00  0.00    -0.392 OA
HETATM   21  H14 UNL     1      18.576   0.459  51.588  1.00  0.00     0.210 HD
ENDBRANCH  18  20
ENDBRANCH  17  18
ENDBRANCH  15  16
ENDBRANCH  12  14
ENDBRANCH   4  12
BRANCH   1  22
HETATM   22  O1  UNL     1      23.828   1.986  50.751  1.00  0.00    -0.355 OA
HETATM   23  C1  UNL     1      22.566   1.555  51.226  1.00  0.00     0.210 C 
ENDBRANCH   1  22
TORSDOF 6
ENDMDL
