MODEL 1
REMARK VINA RESULT:      -7.3      0.000      0.000
REMARK  8 active torsions:
REMARK  status: ('A' for Active; 'I' for Inactive)
REMARK    1  A    between atoms: N1_2  and  C2_3 
REMARK    2  A    between atoms: N1_2  and  C3_5 
REMARK    3  A    between atoms: C3_5  and  C4_6 
REMARK    4  A    between atoms: C4_6  and  C5_7 
REMARK    5  A    between atoms: C8_10  and  O2_11 
REMARK    6  A    between atoms: O2_11  and  C9_12 
REMARK    7  A    between atoms: C9_12  and  C10_13 
REMARK    8  A    between atoms: C16_19  and  O3_20 
ROOT
HETATM    1  C5  UNL     1      20.739  -0.537  53.442  1.00  0.00    -0.054 A 
HETATM    2  C6  UNL     1      21.604   0.100  52.546  1.00  0.00     0.010 A 
HETATM    3  C7  UNL     1      22.946   0.051  52.827  1.00  0.00     0.040 A 
HETATM    4  C8  UNL     1      23.417  -0.601  53.947  1.00  0.00     0.102 A 
HETATM    5  C16 UNL     1      22.586  -1.233  54.840  1.00  0.00     0.099 A 
HETATM    6  C17 UNL     1      21.235  -1.188  54.563  1.00  0.00     0.046 A 
ENDROOT
BRANCH   4   7
HETATM    7  O2  UNL     1      24.785  -0.617  54.178  1.00  0.00    -0.344 OA
BRANCH   7   8
HETATM    8  C9  UNL     1      25.677   0.295  53.595  1.00  0.00     0.214 C 
BRANCH   8   9
HETATM    9  C10 UNL     1      27.070  -0.211  53.555  1.00  0.00    -0.034 A 
HETATM   10  C11 UNL     1      27.411  -1.421  52.986  1.00  0.00     0.009 A 
HETATM   11  C12 UNL     1      28.742  -1.779  53.014  1.00  0.00     0.001 A 
HETATM   12  C13 UNL     1      29.760  -1.003  53.575  1.00  0.00     0.000 A 
HETATM   13  C14 UNL     1      29.353   0.193  54.127  1.00  0.00     0.001 A 
HETATM   14  C15 UNL     1      28.036   0.591  54.123  1.00  0.00     0.009 A 
ENDBRANCH   8   9
ENDBRANCH   7   8
ENDBRANCH   4   7
BRANCH   5  15
HETATM   15  O3  UNL     1      23.110  -1.875  55.952  1.00  0.00    -0.358 OA
HETATM   16  H18 UNL     1      22.590  -1.977  56.803  1.00  0.00     0.217 HD
ENDBRANCH   5  15
BRANCH   1  17
HETATM   17  C4  UNL     1      19.273  -0.506  53.171  1.00  0.00     0.058 C 
BRANCH  17  18
HETATM   18  C3  UNL     1      18.727  -1.811  53.709  1.00  0.00     0.123 C 
BRANCH  18  19
HETATM   19  N1  UNL     1      17.393  -2.036  53.215  1.00  0.00    -0.386 N 
HETATM   20  C1  UNL     1      16.638  -0.938  52.651  1.00  0.00     0.146 C 
BRANCH  19  21
HETATM   21  C2  UNL     1      16.984  -3.392  53.361  1.00  0.00     0.513 C 
HETATM   22  O1  UNL     1      17.262  -4.619  53.380  1.00  0.00    -0.412 OA
ENDBRANCH  19  21
ENDBRANCH  18  19
ENDBRANCH  17  18
ENDBRANCH   1  17
TORSDOF 8
ENDMDL
MODEL 2
REMARK VINA RESULT:      -7.3      3.029      8.623
REMARK  8 active torsions:
REMARK  status: ('A' for Active; 'I' for Inactive)
REMARK    1  A    between atoms: N1_2  and  C2_3 
REMARK    2  A    between atoms: N1_2  and  C3_5 
REMARK    3  A    between atoms: C3_5  and  C4_6 
REMARK    4  A    between atoms: C4_6  and  C5_7 
REMARK    5  A    between atoms: C8_10  and  O2_11 
REMARK    6  A    between atoms: O2_11  and  C9_12 
REMARK    7  A    between atoms: C9_12  and  C10_13 
REMARK    8  A    between atoms: C16_19  and  O3_20 
ROOT
HETATM    1  C5  UNL     1      25.023   0.028  53.445  1.00  0.00    -0.054 A 
HETATM    2  C6  UNL     1      24.027   0.720  52.745  1.00  0.00     0.010 A 
HETATM    3  C7  UNL     1      22.728   0.517  53.138  1.00  0.00     0.040 A 
HETATM    4  C8  UNL     1      22.422  -0.333  54.178  1.00  0.00     0.102 A 
HETATM    5  C16 UNL     1      23.382  -1.022  54.878  1.00  0.00     0.099 A 
HETATM    6  C17 UNL     1      24.691  -0.823  54.490  1.00  0.00     0.046 A 
ENDROOT
BRANCH   4   7
HETATM    7  O2  UNL     1      21.090  -0.497  54.530  1.00  0.00    -0.344 OA
BRANCH   7   8
HETATM    8  C9  UNL     1      20.293  -1.552  54.062  1.00  0.00     0.214 C 
BRANCH   8   9
HETATM    9  C10 UNL     1      19.155  -1.086  53.233  1.00  0.00    -0.034 A 
HETATM   10  C11 UNL     1      19.277  -0.092  52.285  1.00  0.00     0.009 A 
HETATM   11  C12 UNL     1      18.142   0.252  51.580  1.00  0.00     0.001 A 
HETATM   12  C13 UNL     1      16.888  -0.337  51.761  1.00  0.00     0.000 A 
HETATM   13  C14 UNL     1      16.834  -1.324  52.723  1.00  0.00     0.001 A 
HETATM   14  C15 UNL     1      17.939  -1.699  53.451  1.00  0.00     0.009 A 
ENDBRANCH   8   9
ENDBRANCH   7   8
ENDBRANCH   4   7
BRANCH   5  15
HETATM   15  O3  UNL     1      23.022  -1.866  55.919  1.00  0.00    -0.358 OA
HETATM   16  H18 UNL     1      23.533  -1.898  56.781  1.00  0.00     0.217 HD
ENDBRANCH   5  15
BRANCH   1  17
HETATM   17  C4  UNL     1      26.446   0.222  53.048  1.00  0.00     0.058 C 
BRANCH  17  18
HETATM   18  C3  UNL     1      27.260  -0.016  54.302  1.00  0.00     0.123 C 
BRANCH  18  19
HETATM   19  N1  UNL     1      28.667   0.013  53.999  1.00  0.00    -0.386 N 
HETATM   20  C1  UNL     1      29.335  -1.194  53.560  1.00  0.00     0.146 C 
BRANCH  19  21
HETATM   21  C2  UNL     1      29.235   1.304  54.185  1.00  0.00     0.513 C 
HETATM   22  O1  UNL     1      29.096   2.531  54.429  1.00  0.00    -0.412 OA
ENDBRANCH  19  21
ENDBRANCH  18  19
ENDBRANCH  17  18
ENDBRANCH   1  17
TORSDOF 8
ENDMDL
MODEL 3
REMARK VINA RESULT:      -7.0      5.704      8.438
REMARK  8 active torsions:
REMARK  status: ('A' for Active; 'I' for Inactive)
REMARK    1  A    between atoms: N1_2  and  C2_3 
REMARK    2  A    between atoms: N1_2  and  C3_5 
REMARK    3  A    between atoms: C3_5  and  C4_6 
REMARK    4  A    between atoms: C4_6  and  C5_7 
REMARK    5  A    between atoms: C8_10  and  O2_11 
REMARK    6  A    between atoms: O2_11  and  C9_12 
REMARK    7  A    between atoms: C9_12  and  C10_13 
REMARK    8  A    between atoms: C16_19  and  O3_20 
ROOT
HETATM    1  C5  UNL     1      26.013   0.714  52.466  1.00  0.00    -0.054 A 
HETATM    2  C6  UNL     1      26.905   1.263  51.537  1.00  0.00     0.010 A 
HETATM    3  C7  UNL     1      26.562   2.467  50.975  1.00  0.00     0.040 A 
HETATM    4  C8  UNL     1      25.388   3.104  51.313  1.00  0.00     0.102 A 
HETATM    5  C16 UNL     1      24.499   2.583  52.221  1.00  0.00     0.099 A 
HETATM    6  C17 UNL     1      24.837   1.374  52.792  1.00  0.00     0.046 A 
ENDROOT
BRANCH   4   7
HETATM    7  O2  UNL     1      25.096   4.319  50.710  1.00  0.00    -0.344 OA
BRANCH   7   8
HETATM    8  C9  UNL     1      25.056   4.501  49.320  1.00  0.00     0.214 C 
BRANCH   8   9
HETATM    9  C10 UNL     1      26.195   5.305  48.815  1.00  0.00    -0.034 A 
HETATM   10  C11 UNL     1      27.484   4.818  48.750  1.00  0.00     0.009 A 
HETATM   11  C12 UNL     1      28.455   5.667  48.260  1.00  0.00     0.001 A 
HETATM   12  C13 UNL     1      28.220   6.975  47.829  1.00  0.00     0.000 A 
HETATM   13  C14 UNL     1      26.912   7.400  47.920  1.00  0.00     0.001 A 
HETATM   14  C15 UNL     1      25.911   6.589  48.402  1.00  0.00     0.009 A 
ENDBRANCH   8   9
ENDBRANCH   7   8
ENDBRANCH   4   7
BRANCH   5  15
HETATM   15  O3  UNL     1      23.329   3.265  52.528  1.00  0.00    -0.358 OA
HETATM   16  H18 UNL     1      23.062   4.106  52.052  1.00  0.00     0.217 HD
ENDBRANCH   5  15
BRANCH   1  17
HETATM   17  C4  UNL     1      26.351  -0.593  53.099  1.00  0.00     0.058 C 
BRANCH  17  18
HETATM   18  C3  UNL     1      27.164  -0.255  54.331  1.00  0.00     0.123 C 
BRANCH  18  19
HETATM   19  N1  UNL     1      28.567  -0.226  54.011  1.00  0.00    -0.386 N 
HETATM   20  C1  UNL     1      29.203  -1.398  53.449  1.00  0.00     0.146 C 
BRANCH  19  21
HETATM   21  C2  UNL     1      29.165   1.030  54.313  1.00  0.00     0.513 C 
HETATM   22  O1  UNL     1      29.241   2.054  55.039  1.00  0.00    -0.412 OA
ENDBRANCH  19  21
ENDBRANCH  18  19
ENDBRANCH  17  18
ENDBRANCH   1  17
TORSDOF 8
ENDMDL
MODEL 4
REMARK VINA RESULT:      -6.9      2.019      2.289
REMARK  8 active torsions:
REMARK  status: ('A' for Active; 'I' for Inactive)
REMARK    1  A    between atoms: N1_2  and  C2_3 
REMARK    2  A    between atoms: N1_2  and  C3_5 
REMARK    3  A    between atoms: C3_5  and  C4_6 
REMARK    4  A    between atoms: C4_6  and  C5_7 
REMARK    5  A    between atoms: C8_10  and  O2_11 
REMARK    6  A    between atoms: O2_11  and  C9_12 
REMARK    7  A    between atoms: C9_12  and  C10_13 
REMARK    8  A    between atoms: C16_19  and  O3_20 
ROOT
HETATM    1  C5  UNL     1      20.772  -0.458  53.359  1.00  0.00    -0.054 A 
HETATM    2  C6  UNL     1      21.677   0.160  52.488  1.00  0.00     0.010 A 
HETATM    3  C7  UNL     1      23.007   0.092  52.814  1.00  0.00     0.040 A 
HETATM    4  C8  UNL     1      23.431  -0.559  53.953  1.00  0.00     0.102 A 
HETATM    5  C16 UNL     1      22.561  -1.172  54.822  1.00  0.00     0.099 A 
HETATM    6  C17 UNL     1      21.221  -1.108  54.500  1.00  0.00     0.046 A 
ENDROOT
BRANCH   4   7
HETATM    7  O2  UNL     1      24.790  -0.594  54.229  1.00  0.00    -0.344 OA
BRANCH   7   8
HETATM    8  C9  UNL     1      25.715   0.299  53.669  1.00  0.00     0.214 C 
BRANCH   8   9
HETATM    9  C10 UNL     1      27.073  -0.284  53.549  1.00  0.00    -0.034 A 
HETATM   10  C11 UNL     1      27.308  -1.527  52.999  1.00  0.00     0.009 A 
HETATM   11  C12 UNL     1      28.618  -1.956  52.945  1.00  0.00     0.001 A 
HETATM   12  C13 UNL     1      29.713  -1.219  53.406  1.00  0.00     0.000 A 
HETATM   13  C14 UNL     1      29.409   0.014  53.943  1.00  0.00     0.001 A 
HETATM   14  C15 UNL     1      28.118   0.482  54.017  1.00  0.00     0.009 A 
ENDBRANCH   8   9
ENDBRANCH   7   8
ENDBRANCH   4   7
BRANCH   5  15
HETATM   15  O3  UNL     1      23.038  -1.814  55.955  1.00  0.00    -0.358 OA
HETATM   16  H18 UNL     1      23.728  -2.540  55.905  1.00  0.00     0.217 HD
ENDBRANCH   5  15
BRANCH   1  17
HETATM   17  C4  UNL     1      19.317  -0.406  53.039  1.00  0.00     0.058 C 
BRANCH  17  18
HETATM   18  C3  UNL     1      19.228   0.046  51.597  1.00  0.00     0.123 C 
BRANCH  18  19
HETATM   19  N1  UNL     1      17.858   0.313  51.240  1.00  0.00    -0.386 N 
HETATM   20  C1  UNL     1      16.790  -0.098  52.125  1.00  0.00     0.146 C 
BRANCH  19  21
HETATM   21  C2  UNL     1      17.746   0.984  49.991  1.00  0.00     0.513 C 
HETATM   22  O1  UNL     1      17.334   1.959  49.310  1.00  0.00    -0.412 OA
ENDBRANCH  19  21
ENDBRANCH  18  19
ENDBRANCH  17  18
ENDBRANCH   1  17
TORSDOF 8
ENDMDL
MODEL 5
REMARK VINA RESULT:      -6.9      4.940      6.253
REMARK  8 active torsions:
REMARK  status: ('A' for Active; 'I' for Inactive)
REMARK    1  A    between atoms: N1_2  and  C2_3 
REMARK    2  A    between atoms: N1_2  and  C3_5 
REMARK    3  A    between atoms: C3_5  and  C4_6 
REMARK    4  A    between atoms: C4_6  and  C5_7 
REMARK    5  A    between atoms: C8_10  and  O2_11 
REMARK    6  A    between atoms: O2_11  and  C9_12 
REMARK    7  A    between atoms: C9_12  and  C10_13 
REMARK    8  A    between atoms: C16_19  and  O3_20 
ROOT
HETATM    1  C5  UNL     1      24.464   0.570  53.155  1.00  0.00    -0.054 A 
HETATM    2  C6  UNL     1      25.595   0.046  52.517  1.00  0.00     0.010 A 
HETATM    3  C7  UNL     1      26.354   0.913  51.773  1.00  0.00     0.040 A 
HETATM    4  C8  UNL     1      26.013   2.244  51.661  1.00  0.00     0.102 A 
HETATM    5  C16 UNL     1      24.909   2.780  52.278  1.00  0.00     0.099 A 
HETATM    6  C17 UNL     1      24.141   1.914  53.029  1.00  0.00     0.046 A 
ENDROOT
BRANCH   4   7
HETATM    7  O2  UNL     1      26.820   3.073  50.895  1.00  0.00    -0.344 OA
BRANCH   7   8
HETATM    8  C9  UNL     1      26.731   3.159  49.498  1.00  0.00     0.214 C 
BRANCH   8   9
HETATM    9  C10 UNL     1      26.894   4.546  48.998  1.00  0.00    -0.034 A 
HETATM   10  C11 UNL     1      28.100   5.043  48.549  1.00  0.00     0.009 A 
HETATM   11  C12 UNL     1      28.120   6.350  48.110  1.00  0.00     0.001 A 
HETATM   12  C13 UNL     1      27.008   7.196  48.090  1.00  0.00     0.000 A 
HETATM   13  C14 UNL     1      25.835   6.639  48.552  1.00  0.00     0.001 A 
HETATM   14  C15 UNL     1      25.768   5.340  48.999  1.00  0.00     0.009 A 
ENDBRANCH   8   9
ENDBRANCH   7   8
ENDBRANCH   4   7
BRANCH   5  15
HETATM   15  O3  UNL     1      24.609   4.127  52.134  1.00  0.00    -0.358 OA
HETATM   16  H18 UNL     1      24.694   4.601  51.255  1.00  0.00     0.217 HD
ENDBRANCH   5  15
BRANCH   1  17
HETATM   17  C4  UNL     1      23.614  -0.341  53.973  1.00  0.00     0.058 C 
BRANCH  17  18
HETATM   18  C3  UNL     1      22.605  -0.935  53.013  1.00  0.00     0.123 C 
BRANCH  18  19
HETATM   19  N1  UNL     1      21.419  -0.119  52.967  1.00  0.00    -0.386 N 
HETATM   20  C1  UNL     1      20.740   0.236  54.194  1.00  0.00     0.146 C 
BRANCH  19  21
HETATM   21  C2  UNL     1      21.063   0.243  51.637  1.00  0.00     0.513 C 
HETATM   22  O1  UNL     1      21.391   0.467  50.443  1.00  0.00    -0.412 OA
ENDBRANCH  19  21
ENDBRANCH  18  19
ENDBRANCH  17  18
ENDBRANCH   1  17
TORSDOF 8
ENDMDL
MODEL 6
REMARK VINA RESULT:      -6.9      3.443      8.777
REMARK  8 active torsions:
REMARK  status: ('A' for Active; 'I' for Inactive)
REMARK    1  A    between atoms: N1_2  and  C2_3 
REMARK    2  A    between atoms: N1_2  and  C3_5 
REMARK    3  A    between atoms: C3_5  and  C4_6 
REMARK    4  A    between atoms: C4_6  and  C5_7 
REMARK    5  A    between atoms: C8_10  and  O2_11 
REMARK    6  A    between atoms: O2_11  and  C9_12 
REMARK    7  A    between atoms: C9_12  and  C10_13 
REMARK    8  A    between atoms: C16_19  and  O3_20 
ROOT
HETATM    1  C5  UNL     1      25.159   0.042  53.606  1.00  0.00    -0.054 A 
HETATM    2  C6  UNL     1      24.081  -0.710  54.086  1.00  0.00     0.010 A 
HETATM    3  C7  UNL     1      22.867  -0.530  53.472  1.00  0.00     0.040 A 
HETATM    4  C8  UNL     1      22.721   0.356  52.426  1.00  0.00     0.102 A 
HETATM    5  C16 UNL     1      23.765   1.104  51.939  1.00  0.00     0.099 A 
HETATM    6  C17 UNL     1      24.990   0.927  52.551  1.00  0.00     0.046 A 
ENDROOT
BRANCH   4   7
HETATM    7  O2  UNL     1      21.469   0.495  51.845  1.00  0.00    -0.344 OA
BRANCH   7   8
HETATM    8  C9  UNL     1      20.364   1.037  52.516  1.00  0.00     0.214 C 
BRANCH   8   9
HETATM    9  C10 UNL     1      19.188   0.133  52.508  1.00  0.00    -0.034 A 
HETATM   10  C11 UNL     1      18.136   0.281  51.629  1.00  0.00     0.009 A 
HETATM   11  C12 UNL     1      17.101  -0.626  51.724  1.00  0.00     0.001 A 
HETATM   12  C13 UNL     1      17.051  -1.677  52.643  1.00  0.00     0.000 A 
HETATM   13  C14 UNL     1      18.133  -1.769  53.493  1.00  0.00     0.001 A 
HETATM   14  C15 UNL     1      19.187  -0.887  53.435  1.00  0.00     0.009 A 
ENDBRANCH   8   9
ENDBRANCH   7   8
ENDBRANCH   4   7
BRANCH   5  15
HETATM   15  O3  UNL     1      23.567   1.982  50.883  1.00  0.00    -0.358 OA
HETATM   16  H18 UNL     1      22.654   2.306  50.624  1.00  0.00     0.217 HD
ENDBRANCH   5  15
BRANCH   1  17
HETATM   17  C4  UNL     1      26.495  -0.127  54.247  1.00  0.00     0.058 C 
BRANCH  17  18
HETATM   18  C3  UNL     1      27.496  -0.149  53.112  1.00  0.00     0.123 C 
BRANCH  18  19
HETATM   19  N1  UNL     1      28.809   0.191  53.597  1.00  0.00    -0.386 N 
HETATM   20  C1  UNL     1      29.794  -0.849  53.800  1.00  0.00     0.146 C 
BRANCH  19  21
HETATM   21  C2  UNL     1      28.958   1.588  53.822  1.00  0.00     0.513 C 
HETATM   22  O1  UNL     1      28.463   2.699  54.147  1.00  0.00    -0.412 OA
ENDBRANCH  19  21
ENDBRANCH  18  19
ENDBRANCH  17  18
ENDBRANCH   1  17
TORSDOF 8
ENDMDL
MODEL 7
REMARK VINA RESULT:      -6.8      5.630      7.392
REMARK  8 active torsions:
REMARK  status: ('A' for Active; 'I' for Inactive)
REMARK    1  A    between atoms: N1_2  and  C2_3 
REMARK    2  A    between atoms: N1_2  and  C3_5 
REMARK    3  A    between atoms: C3_5  and  C4_6 
REMARK    4  A    between atoms: C4_6  and  C5_7 
REMARK    5  A    between atoms: C8_10  and  O2_11 
REMARK    6  A    between atoms: O2_11  and  C9_12 
REMARK    7  A    between atoms: C9_12  and  C10_13 
REMARK    8  A    between atoms: C16_19  and  O3_20 
ROOT
HETATM    1  C5  UNL     1      23.657   1.784  52.438  1.00  0.00    -0.054 A 
HETATM    2  C6  UNL     1      23.936   1.757  51.066  1.00  0.00     0.010 A 
HETATM    3  C7  UNL     1      24.203   2.956  50.456  1.00  0.00     0.040 A 
HETATM    4  C8  UNL     1      24.195   4.136  51.169  1.00  0.00     0.102 A 
HETATM    5  C16 UNL     1      23.925   4.187  52.514  1.00  0.00     0.099 A 
HETATM    6  C17 UNL     1      23.656   2.984  53.135  1.00  0.00     0.046 A 
ENDROOT
BRANCH   4   7
HETATM    7  O2  UNL     1      24.474   5.318  50.496  1.00  0.00    -0.344 OA
BRANCH   7   8
HETATM    8  C9  UNL     1      24.655   5.391  49.108  1.00  0.00     0.214 C 
BRANCH   8   9
HETATM    9  C10 UNL     1      26.059   5.681  48.728  1.00  0.00    -0.034 A 
HETATM   10  C11 UNL     1      27.076   4.758  48.860  1.00  0.00     0.009 A 
HETATM   11  C12 UNL     1      28.340   5.152  48.471  1.00  0.00     0.001 A 
HETATM   12  C13 UNL     1      28.654   6.413  47.958  1.00  0.00     0.000 A 
HETATM   13  C14 UNL     1      27.593   7.288  47.852  1.00  0.00     0.001 A 
HETATM   14  C15 UNL     1      26.317   6.939  48.227  1.00  0.00     0.009 A 
ENDBRANCH   8   9
ENDBRANCH   7   8
ENDBRANCH   4   7
BRANCH   5  15
HETATM   15  O3  UNL     1      23.930   5.401  53.186  1.00  0.00    -0.358 OA
HETATM   16  H18 UNL     1      23.468   5.524  54.067  1.00  0.00     0.217 HD
ENDBRANCH   5  15
BRANCH   1  17
HETATM   17  C4  UNL     1      23.362   0.501  53.137  1.00  0.00     0.058 C 
BRANCH  17  18
HETATM   18  C3  UNL     1      24.661  -0.276  53.137  1.00  0.00     0.123 C 
BRANCH  18  19
HETATM   19  N1  UNL     1      25.090  -0.532  54.487  1.00  0.00    -0.386 N 
HETATM   20  C1  UNL     1      24.222  -1.248  55.397  1.00  0.00     0.146 C 
BRANCH  19  21
HETATM   21  C2  UNL     1      26.388  -0.010  54.750  1.00  0.00     0.513 C 
HETATM   22  O1  UNL     1      27.594  -0.192  55.061  1.00  0.00    -0.412 OA
ENDBRANCH  19  21
ENDBRANCH  18  19
ENDBRANCH  17  18
ENDBRANCH   1  17
TORSDOF 8
ENDMDL
MODEL 8
REMARK VINA RESULT:      -6.8      5.483      6.610
REMARK  8 active torsions:
REMARK  status: ('A' for Active; 'I' for Inactive)
REMARK    1  A    between atoms: N1_2  and  C2_3 
REMARK    2  A    between atoms: N1_2  and  C3_5 
REMARK    3  A    between atoms: C3_5  and  C4_6 
REMARK    4  A    between atoms: C4_6  and  C5_7 
REMARK    5  A    between atoms: C8_10  and  O2_11 
REMARK    6  A    between atoms: O2_11  and  C9_12 
REMARK    7  A    between atoms: C9_12  and  C10_13 
REMARK    8  A    between atoms: C16_19  and  O3_20 
ROOT
HETATM    1  C5  UNL     1      24.098   1.351  52.210  1.00  0.00    -0.054 A 
HETATM    2  C6  UNL     1      23.452   1.837  51.068  1.00  0.00     0.010 A 
HETATM    3  C7  UNL     1      24.183   2.636  50.226  1.00  0.00     0.040 A 
HETATM    4  C8  UNL     1      25.498   2.945  50.498  1.00  0.00     0.102 A 
HETATM    5  C16 UNL     1      26.152   2.479  51.612  1.00  0.00     0.099 A 
HETATM    6  C17 UNL     1      25.424   1.674  52.464  1.00  0.00     0.046 A 
ENDROOT
BRANCH   4   7
HETATM    7  O2  UNL     1      26.186   3.758  49.608  1.00  0.00    -0.344 OA
BRANCH   7   8
HETATM    8  C9  UNL     1      25.836   5.092  49.354  1.00  0.00     0.214 C 
BRANCH   8   9
HETATM    9  C10 UNL     1      26.898   5.835  48.635  1.00  0.00    -0.034 A 
HETATM   10  C11 UNL     1      28.193   5.371  48.523  1.00  0.00     0.009 A 
HETATM   11  C12 UNL     1      29.088   6.157  47.828  1.00  0.00     0.001 A 
HETATM   12  C13 UNL     1      28.772   7.381  47.234  1.00  0.00     0.000 A 
HETATM   13  C14 UNL     1      27.463   7.788  47.382  1.00  0.00     0.001 A 
HETATM   14  C15 UNL     1      26.536   7.037  48.067  1.00  0.00     0.009 A 
ENDBRANCH   8   9
ENDBRANCH   7   8
ENDBRANCH   4   7
BRANCH   5  15
HETATM   15  O3  UNL     1      27.478   2.819  51.841  1.00  0.00    -0.358 OA
HETATM   16  H18 UNL     1      27.756   3.385  52.620  1.00  0.00     0.217 HD
ENDBRANCH   5  15
BRANCH   1  17
HETATM   17  C4  UNL     1      23.337   0.479  53.150  1.00  0.00     0.058 C 
BRANCH  17  18
HETATM   18  C3  UNL     1      22.077   0.080  52.413  1.00  0.00     0.123 C 
BRANCH  18  19
HETATM   19  N1  UNL     1      21.143  -0.540  53.317  1.00  0.00    -0.386 N 
HETATM   20  C1  UNL     1      19.739  -0.199  53.251  1.00  0.00     0.146 C 
BRANCH  19  21
HETATM   21  C2  UNL     1      21.776  -1.457  54.203  1.00  0.00     0.513 C 
HETATM   22  O1  UNL     1      22.194  -1.751  55.353  1.00  0.00    -0.412 OA
ENDBRANCH  19  21
ENDBRANCH  18  19
ENDBRANCH  17  18
ENDBRANCH   1  17
TORSDOF 8
ENDMDL
MODEL 9
REMARK VINA RESULT:      -6.7      6.919     10.023
REMARK  8 active torsions:
REMARK  status: ('A' for Active; 'I' for Inactive)
REMARK    1  A    between atoms: N1_2  and  C2_3 
REMARK    2  A    between atoms: N1_2  and  C3_5 
REMARK    3  A    between atoms: C3_5  and  C4_6 
REMARK    4  A    between atoms: C4_6  and  C5_7 
REMARK    5  A    between atoms: C8_10  and  O2_11 
REMARK    6  A    between atoms: O2_11  and  C9_12 
REMARK    7  A    between atoms: C9_12  and  C10_13 
REMARK    8  A    between atoms: C16_19  and  O3_20 
ROOT
HETATM    1  C5  UNL     1      26.795   5.823  48.831  1.00  0.00    -0.054 A 
HETATM    2  C6  UNL     1      27.192   4.482  48.878  1.00  0.00     0.010 A 
HETATM    3  C7  UNL     1      26.413   3.622  49.609  1.00  0.00     0.040 A 
HETATM    4  C8  UNL     1      25.287   4.066  50.270  1.00  0.00     0.102 A 
HETATM    5  C16 UNL     1      24.879   5.377  50.238  1.00  0.00     0.099 A 
HETATM    6  C17 UNL     1      25.657   6.248  49.503  1.00  0.00     0.046 A 
ENDROOT
BRANCH   4   7
HETATM    7  O2  UNL     1      24.539   3.148  50.994  1.00  0.00    -0.344 OA
BRANCH   7   8
HETATM    8  C9  UNL     1      24.786   2.843  52.340  1.00  0.00     0.214 C 
BRANCH   8   9
HETATM    9  C10 UNL     1      25.359   1.487  52.524  1.00  0.00    -0.034 A 
HETATM   10  C11 UNL     1      26.643   1.159  52.140  1.00  0.00     0.009 A 
HETATM   11  C12 UNL     1      27.057  -0.138  52.366  1.00  0.00     0.001 A 
HETATM   12  C13 UNL     1      26.268  -1.131  52.952  1.00  0.00     0.000 A 
HETATM   13  C14 UNL     1      24.997  -0.738  53.312  1.00  0.00     0.001 A 
HETATM   14  C15 UNL     1      24.541   0.543  53.106  1.00  0.00     0.009 A 
ENDBRANCH   8   9
ENDBRANCH   7   8
ENDBRANCH   4   7
BRANCH   5  15
HETATM   15  O3  UNL     1      23.737   5.773  50.920  1.00  0.00    -0.358 OA
HETATM   16  H18 UNL     1      23.198   6.569  50.638  1.00  0.00     0.217 HD
ENDBRANCH   5  15
BRANCH   1  17
HETATM   17  C4  UNL     1      27.616   6.789  48.046  1.00  0.00     0.058 C 
BRANCH  17  18
HETATM   18  C3  UNL     1      28.976   6.143  47.892  1.00  0.00     0.123 C 
BRANCH  18  19
HETATM   19  N1  UNL     1      29.983   6.936  48.549  1.00  0.00    -0.386 N 
HETATM   20  C1  UNL     1      29.818   8.370  48.654  1.00  0.00     0.146 C 
BRANCH  19  21
HETATM   21  C2  UNL     1      31.065   6.146  49.031  1.00  0.00     0.513 C 
HETATM   22  O1  UNL     1      31.649   5.558  49.978  1.00  0.00    -0.412 OA
ENDBRANCH  19  21
ENDBRANCH  18  19
ENDBRANCH  17  18
ENDBRANCH   1  17
TORSDOF 8
ENDMDL
