MODEL 1
REMARK VINA RESULT:      -9.0      0.000      0.000
REMARK  9 active torsions:
REMARK  status: ('A' for Active; 'I' for Inactive)
REMARK    1  A    between atoms: C4_5  and  N1_6 
REMARK    2  A    between atoms: N1_6  and  C5_7 
REMARK    3  A    between atoms: C9_13  and  C10_14 
REMARK    4  A    between atoms: C10_14  and  N4_15 
REMARK    5  A    between atoms: N4_15  and  C11_16 
REMARK    6  A    between atoms: C11_16  and  C12_17 
REMARK    7  A    between atoms: C13_18  and  C14_19 
REMARK    8  A    between atoms: C14_19  and  C15_20 
REMARK    9  A    between atoms: C15_20  and  N5_21 
ROOT
HETATM    1  C5  UNL     1      24.650   2.194  52.311  1.00  0.00     0.142 A 
HETATM    2  N2  UNL     1      23.943   1.524  53.256  1.00  0.00    -0.224 NA
HETATM    3  C6  UNL     1      22.686   1.072  52.999  1.00  0.00     0.235 A 
HETATM    4  N3  UNL     1      22.196   1.326  51.767  1.00  0.00    -0.241 NA
HETATM    5  C7  UNL     1      22.929   1.995  50.848  1.00  0.00     0.069 A 
HETATM    6  C8  UNL     1      24.195   2.473  51.047  1.00  0.00     0.043 A 
HETATM    7  C9  UNL     1      24.735   3.038  50.004  1.00  0.00    -0.043 A 
HETATM    8  C20 UNL     1      23.690   3.052  48.952  1.00  0.00     0.066 A 
HETATM    9  C21 UNL     1      22.566   2.304  49.625  1.00  0.00     0.010 A 
ENDROOT
BRANCH   7  10
HETATM   10  C10 UNL     1      26.129   3.554  49.967  1.00  0.00     0.150 C 
BRANCH  10  11
HETATM   11  N4  UNL     1      26.131   5.007  50.112  1.00  0.00    -0.408 N 
HETATM   12  H7  UNL     1      26.517   5.357  50.982  1.00  0.00     0.154 HD
BRANCH  11  13
HETATM   13  C11 UNL     1      26.325   5.735  48.919  1.00  0.00     0.209 C 
BRANCH  13  14
HETATM   14  C12 UNL     1      27.755   5.657  48.539  1.00  0.00    -0.087 C 
HETATM   15  C13 UNL     1      28.919   5.580  48.209  1.00  0.00    -0.103 C 
BRANCH  15  16
HETATM   16  C14 UNL     1      30.325   5.464  47.801  1.00  0.00     0.124 C 
BRANCH  16  17
HETATM   17  C15 UNL     1      31.217   6.077  48.863  1.00  0.00     0.284 C 
BRANCH  17  18
HETATM   18  N5  UNL     1      32.507   5.493  48.933  1.00  0.00     0.093 N 
HETATM   19  C16 UNL     1      33.576   6.397  48.622  1.00  0.00     0.298 C 
HETATM   20  C17 UNL     1      33.993   6.300  47.164  1.00  0.00     0.198 C 
HETATM   21  O1  UNL     1      34.549   5.052  46.870  1.00  0.00    -0.388 OA
HETATM   22  C18 UNL     1      33.997   4.021  47.615  1.00  0.00     0.198 C 
HETATM   23  C19 UNL     1      32.572   4.398  47.980  1.00  0.00     0.298 C 
ENDBRANCH  17  18
ENDBRANCH  16  17
ENDBRANCH  15  16
ENDBRANCH  13  14
ENDBRANCH  11  13
ENDBRANCH  10  11
ENDBRANCH   7  10
BRANCH   1  24
HETATM   24  N1  UNL     1      25.898   2.579  52.842  1.00  0.00    -0.340 N 
HETATM   25  H3  UNL     1      26.167   3.562  53.116  1.00  0.00     0.167 HD
BRANCH  24  26
HETATM   26  C4  UNL     1      26.898   1.550  53.035  1.00  0.00     0.035 A 
HETATM   27  C3  UNL     1      28.142   1.952  53.547  1.00  0.00     0.032 A 
HETATM   28  C2  UNL     1      29.128   0.996  53.747  1.00  0.00     0.046 A 
HETATM   29  C1  UNL     1      28.840  -0.332  53.430  1.00  0.00     0.138 A 
HETATM   30  F1  UNL     1      29.792  -1.278  53.616  1.00  0.00    -0.204 F 
HETATM   31  C23 UNL     1      27.592  -0.692  52.927  1.00  0.00     0.074 A 
HETATM   32  C22 UNL     1      26.621   0.231  52.726  1.00  0.00     0.056 A 
HETATM   33 CL1  UNL     1      27.241  -2.357  52.545  1.00  0.00    -0.081 Cl
ENDBRANCH  24  26
ENDBRANCH   1  24
TORSDOF 9
ENDMDL
MODEL 2
REMARK VINA RESULT:      -8.7      1.860      2.301
REMARK  9 active torsions:
REMARK  status: ('A' for Active; 'I' for Inactive)
REMARK    1  A    between atoms: C4_5  and  N1_6 
REMARK    2  A    between atoms: N1_6  and  C5_7 
REMARK    3  A    between atoms: C9_13  and  C10_14 
REMARK    4  A    between atoms: C10_14  and  N4_15 
REMARK    5  A    between atoms: N4_15  and  C11_16 
REMARK    6  A    between atoms: C11_16  and  C12_17 
REMARK    7  A    between atoms: C13_18  and  C14_19 
REMARK    8  A    between atoms: C14_19  and  C15_20 
REMARK    9  A    between atoms: C15_20  and  N5_21 
ROOT
HETATM    1  C5  UNL     1      24.846   2.122  52.293  1.00  0.00     0.142 A 
HETATM    2  N2  UNL     1      24.208   1.429  53.268  1.00  0.00    -0.224 NA
HETATM    3  C6  UNL     1      22.940   0.970  53.083  1.00  0.00     0.235 A 
HETATM    4  N3  UNL     1      22.369   1.243  51.892  1.00  0.00    -0.241 NA
HETATM    5  C7  UNL     1      23.036   1.936  50.940  1.00  0.00     0.069 A 
HETATM    6  C8  UNL     1      24.308   2.421  51.066  1.00  0.00     0.043 A 
HETATM    7  C9  UNL     1      24.775   3.011  50.001  1.00  0.00    -0.043 A 
HETATM    8  C20 UNL     1      23.664   3.037  49.020  1.00  0.00     0.066 A 
HETATM    9  C21 UNL     1      22.591   2.266  49.750  1.00  0.00     0.010 A 
ENDROOT
BRANCH   7  10
HETATM   10  C10 UNL     1      26.159   3.541  49.885  1.00  0.00     0.150 C 
BRANCH  10  11
HETATM   11  N4  UNL     1      26.160   4.990  50.061  1.00  0.00    -0.408 N 
HETATM   12  H7  UNL     1      26.524   5.321  50.947  1.00  0.00     0.154 HD
BRANCH  11  13
HETATM   13  C11 UNL     1      26.386   5.744  48.890  1.00  0.00     0.209 C 
BRANCH  13  14
HETATM   14  C12 UNL     1      27.818   5.643  48.525  1.00  0.00    -0.087 C 
HETATM   15  C13 UNL     1      28.994   5.581  48.237  1.00  0.00    -0.103 C 
BRANCH  15  16
HETATM   16  C14 UNL     1      30.419   5.531  47.885  1.00  0.00     0.124 C 
BRANCH  16  17
HETATM   17  C15 UNL     1      31.122   6.759  48.431  1.00  0.00     0.284 C 
BRANCH  17  18
HETATM   18  N5  UNL     1      30.528   7.983  48.031  1.00  0.00     0.093 N 
HETATM   19  C16 UNL     1      31.230   8.654  46.976  1.00  0.00     0.298 C 
HETATM   20  C17 UNL     1      32.192   9.700  47.514  1.00  0.00     0.198 C 
HETATM   21  O1  UNL     1      31.516  10.745  48.149  1.00  0.00    -0.388 OA
HETATM   22  C18 UNL     1      30.347  10.335  48.774  1.00  0.00     0.198 C 
HETATM   23  C19 UNL     1      30.498   8.879  49.174  1.00  0.00     0.298 C 
ENDBRANCH  17  18
ENDBRANCH  16  17
ENDBRANCH  15  16
ENDBRANCH  13  14
ENDBRANCH  11  13
ENDBRANCH  10  11
ENDBRANCH   7  10
BRANCH   1  24
HETATM   24  N1  UNL     1      26.123   2.509  52.749  1.00  0.00    -0.340 N 
HETATM   25  H3  UNL     1      26.435   3.503  52.920  1.00  0.00     0.167 HD
BRANCH  24  26
HETATM   26  C4  UNL     1      27.092   1.465  53.010  1.00  0.00     0.035 A 
HETATM   27  C3  UNL     1      28.305   1.850  53.603  1.00  0.00     0.032 A 
HETATM   28  C2  UNL     1      29.261   0.880  53.871  1.00  0.00     0.046 A 
HETATM   29  C1  UNL     1      28.974  -0.444  53.539  1.00  0.00     0.138 A 
HETATM   30  F1  UNL     1      29.897  -1.404  53.790  1.00  0.00    -0.204 F 
HETATM   31  C23 UNL     1      27.758  -0.787  52.955  1.00  0.00     0.074 A 
HETATM   32  C22 UNL     1      26.816   0.149  52.687  1.00  0.00     0.056 A 
HETATM   33 CL1  UNL     1      27.408  -2.448  52.554  1.00  0.00    -0.081 Cl
ENDBRANCH  24  26
ENDBRANCH   1  24
TORSDOF 9
ENDMDL
MODEL 3
REMARK VINA RESULT:      -8.5      5.172      7.765
REMARK  9 active torsions:
REMARK  status: ('A' for Active; 'I' for Inactive)
REMARK    1  A    between atoms: C4_5  and  N1_6 
REMARK    2  A    between atoms: N1_6  and  C5_7 
REMARK    3  A    between atoms: C9_13  and  C10_14 
REMARK    4  A    between atoms: C10_14  and  N4_15 
REMARK    5  A    between atoms: N4_15  and  C11_16 
REMARK    6  A    between atoms: C11_16  and  C12_17 
REMARK    7  A    between atoms: C13_18  and  C14_19 
REMARK    8  A    between atoms: C14_19  and  C15_20 
REMARK    9  A    between atoms: C15_20  and  N5_21 
ROOT
HETATM    1  C5  UNL     1      19.712   0.926  50.623  1.00  0.00     0.142 A 
HETATM    2  N2  UNL     1      19.378   1.788  49.631  1.00  0.00    -0.224 NA
HETATM    3  C6  UNL     1      18.075   2.087  49.376  1.00  0.00     0.235 A 
HETATM    4  N3  UNL     1      17.155   1.484  50.157  1.00  0.00    -0.241 NA
HETATM    5  C7  UNL     1      17.524   0.630  51.139  1.00  0.00     0.069 A 
HETATM    6  C8  UNL     1      18.814   0.291  51.443  1.00  0.00     0.043 A 
HETATM    7  C9  UNL     1      18.941  -0.507  52.467  1.00  0.00    -0.043 A 
HETATM    8  C20 UNL     1      17.565  -0.860  52.891  1.00  0.00     0.066 A 
HETATM    9  C21 UNL     1      16.729  -0.018  51.959  1.00  0.00     0.010 A 
ENDROOT
BRANCH   7  10
HETATM   10  C10 UNL     1      20.249  -0.940  53.024  1.00  0.00     0.150 C 
BRANCH  10  11
HETATM   11  N4  UNL     1      20.515  -0.245  54.281  1.00  0.00    -0.408 N 
HETATM   12  H7  UNL     1      19.695  -0.004  54.827  1.00  0.00     0.154 HD
BRANCH  11  13
HETATM   13  C11 UNL     1      21.706  -0.617  54.940  1.00  0.00     0.209 C 
BRANCH  13  14
HETATM   14  C12 UNL     1      22.861  -0.207  54.108  1.00  0.00    -0.087 C 
HETATM   15  C13 UNL     1      23.808   0.147  53.439  1.00  0.00    -0.103 C 
BRANCH  15  16
HETATM   16  C14 UNL     1      24.948   0.601  52.632  1.00  0.00     0.124 C 
BRANCH  16  17
HETATM   17  C15 UNL     1      26.089  -0.390  52.758  1.00  0.00     0.284 C 
BRANCH  17  18
HETATM   18  N5  UNL     1      27.374   0.208  52.708  1.00  0.00     0.093 N 
HETATM   19  C16 UNL     1      28.353  -0.443  53.530  1.00  0.00     0.298 C 
HETATM   20  C17 UNL     1      28.479   0.222  54.891  1.00  0.00     0.198 C 
HETATM   21  O1  UNL     1      28.980   1.522  54.785  1.00  0.00    -0.388 OA
HETATM   22  C18 UNL     1      28.593   2.160  53.615  1.00  0.00     0.198 C 
HETATM   23  C19 UNL     1      27.263   1.582  53.167  1.00  0.00     0.298 C 
ENDBRANCH  17  18
ENDBRANCH  16  17
ENDBRANCH  15  16
ENDBRANCH  13  14
ENDBRANCH  11  13
ENDBRANCH  10  11
ENDBRANCH   7  10
BRANCH   1  24
HETATM   24  N1  UNL     1      21.113   0.764  50.654  1.00  0.00    -0.340 N 
HETATM   25  H3  UNL     1      21.625  -0.147  50.507  1.00  0.00     0.167 HD
BRANCH  24  26
HETATM   26  C4  UNL     1      21.923   1.937  50.903  1.00  0.00     0.035 A 
HETATM   27  C3  UNL     1      21.615   2.701  52.040  1.00  0.00     0.032 A 
HETATM   28  C2  UNL     1      22.369   3.833  52.316  1.00  0.00     0.046 A 
HETATM   29  C1  UNL     1      23.408   4.166  51.448  1.00  0.00     0.138 A 
HETATM   30  F1  UNL     1      24.153   5.270  51.699  1.00  0.00    -0.204 F 
HETATM   31  C23 UNL     1      23.686   3.382  50.331  1.00  0.00     0.074 A 
HETATM   32  C22 UNL     1      22.958   2.275  50.049  1.00  0.00     0.056 A 
HETATM   33 CL1  UNL     1      24.995   3.804  49.259  1.00  0.00    -0.081 Cl
ENDBRANCH  24  26
ENDBRANCH   1  24
TORSDOF 9
ENDMDL
MODEL 4
REMARK VINA RESULT:      -8.5      4.850      8.961
REMARK  9 active torsions:
REMARK  status: ('A' for Active; 'I' for Inactive)
REMARK    1  A    between atoms: C4_5  and  N1_6 
REMARK    2  A    between atoms: N1_6  and  C5_7 
REMARK    3  A    between atoms: C9_13  and  C10_14 
REMARK    4  A    between atoms: C10_14  and  N4_15 
REMARK    5  A    between atoms: N4_15  and  C11_16 
REMARK    6  A    between atoms: C11_16  and  C12_17 
REMARK    7  A    between atoms: C13_18  and  C14_19 
REMARK    8  A    between atoms: C14_19  and  C15_20 
REMARK    9  A    between atoms: C15_20  and  N5_21 
ROOT
HETATM    1  C5  UNL     1      25.054   2.635  51.777  1.00  0.00     0.142 A 
HETATM    2  N2  UNL     1      25.843   3.429  51.012  1.00  0.00    -0.224 NA
HETATM    3  C6  UNL     1      25.493   3.738  49.734  1.00  0.00     0.235 A 
HETATM    4  N3  UNL     1      24.332   3.217  49.285  1.00  0.00    -0.241 NA
HETATM    5  C7  UNL     1      23.568   2.429  50.077  1.00  0.00     0.069 A 
HETATM    6  C8  UNL     1      23.866   2.084  51.366  1.00  0.00     0.043 A 
HETATM    7  C9  UNL     1      22.959   1.361  51.960  1.00  0.00    -0.043 A 
HETATM    8  C20 UNL     1      21.923   1.072  50.939  1.00  0.00     0.066 A 
HETATM    9  C21 UNL     1      22.428   1.862  49.757  1.00  0.00     0.010 A 
ENDROOT
BRANCH   7  10
HETATM   10  C10 UNL     1      23.035   0.940  53.384  1.00  0.00     0.150 C 
BRANCH  10  11
HETATM   11  N4  UNL     1      23.027  -0.517  53.478  1.00  0.00    -0.408 N 
HETATM   12  H7  UNL     1      23.924  -0.967  53.335  1.00  0.00     0.154 HD
BRANCH  11  13
HETATM   13  C11 UNL     1      22.115  -1.061  54.408  1.00  0.00     0.209 C 
BRANCH  13  14
HETATM   14  C12 UNL     1      20.744  -0.943  53.858  1.00  0.00    -0.087 C 
HETATM   15  C13 UNL     1      19.631  -0.836  53.390  1.00  0.00    -0.103 C 
BRANCH  15  16
HETATM   16  C14 UNL     1      18.289  -0.682  52.815  1.00  0.00     0.124 C 
BRANCH  16  17
HETATM   17  C15 UNL     1      18.396  -0.090  51.423  1.00  0.00     0.284 C 
BRANCH  17  18
HETATM   18  N5  UNL     1      17.708   1.141  51.271  1.00  0.00     0.093 N 
HETATM   19  C16 UNL     1      17.324   1.432  49.920  1.00  0.00     0.298 C 
HETATM   20  C17 UNL     1      18.343   2.316  49.221  1.00  0.00     0.198 C 
HETATM   21  O1  UNL     1      18.410   3.584  49.803  1.00  0.00    -0.388 OA
HETATM   22  C18 UNL     1      18.167   3.570  51.169  1.00  0.00     0.198 C 
HETATM   23  C19 UNL     1      18.577   2.215  51.719  1.00  0.00     0.298 C 
ENDBRANCH  17  18
ENDBRANCH  16  17
ENDBRANCH  15  16
ENDBRANCH  13  14
ENDBRANCH  11  13
ENDBRANCH  10  11
ENDBRANCH   7  10
BRANCH   1  24
HETATM   24  N1  UNL     1      25.659   2.443  53.036  1.00  0.00    -0.340 N 
HETATM   25  H3  UNL     1      25.390   2.946  53.925  1.00  0.00     0.167 HD
BRANCH  24  26
HETATM   26  C4  UNL     1      26.735   1.479  53.130  1.00  0.00     0.035 A 
HETATM   27  C3  UNL     1      27.990   1.956  53.540  1.00  0.00     0.032 A 
HETATM   28  C2  UNL     1      29.048   1.064  53.644  1.00  0.00     0.046 A 
HETATM   29  C1  UNL     1      28.818  -0.277  53.337  1.00  0.00     0.138 A 
HETATM   30  F1  UNL     1      29.840  -1.162  53.429  1.00  0.00    -0.204 F 
HETATM   31  C23 UNL     1      27.558  -0.713  52.936  1.00  0.00     0.074 A 
HETATM   32  C22 UNL     1      26.516   0.147  52.829  1.00  0.00     0.056 A 
HETATM   33 CL1  UNL     1      27.281  -2.394  52.564  1.00  0.00    -0.081 Cl
ENDBRANCH  24  26
ENDBRANCH   1  24
TORSDOF 9
ENDMDL
MODEL 5
REMARK VINA RESULT:      -8.2      4.312      5.788
REMARK  9 active torsions:
REMARK  status: ('A' for Active; 'I' for Inactive)
REMARK    1  A    between atoms: C4_5  and  N1_6 
REMARK    2  A    between atoms: N1_6  and  C5_7 
REMARK    3  A    between atoms: C9_13  and  C10_14 
REMARK    4  A    between atoms: C10_14  and  N4_15 
REMARK    5  A    between atoms: N4_15  and  C11_16 
REMARK    6  A    between atoms: C11_16  and  C12_17 
REMARK    7  A    between atoms: C13_18  and  C14_19 
REMARK    8  A    between atoms: C14_19  and  C15_20 
REMARK    9  A    between atoms: C15_20  and  N5_21 
ROOT
HETATM    1  C5  UNL     1      23.772  -0.201  53.615  1.00  0.00     0.142 A 
HETATM    2  N2  UNL     1      24.368  -0.766  54.695  1.00  0.00    -0.224 NA
HETATM    3  C6  UNL     1      23.638  -1.454  55.614  1.00  0.00     0.235 A 
HETATM    4  N3  UNL     1      22.311  -1.540  55.387  1.00  0.00    -0.241 NA
HETATM    5  C7  UNL     1      21.750  -0.966  54.298  1.00  0.00     0.069 A 
HETATM    6  C8  UNL     1      22.429  -0.263  53.342  1.00  0.00     0.043 A 
HETATM    7  C9  UNL     1      21.696   0.154  52.348  1.00  0.00    -0.043 A 
HETATM    8  C20 UNL     1      20.298  -0.213  52.680  1.00  0.00     0.066 A 
HETATM    9  C21 UNL     1      20.479  -0.975  53.970  1.00  0.00     0.010 A 
ENDROOT
BRANCH   7  10
HETATM   10  C10 UNL     1      22.235   0.866  51.159  1.00  0.00     0.150 C 
BRANCH  10  11
HETATM   11  N4  UNL     1      21.252   0.859  50.080  1.00  0.00    -0.408 N 
HETATM   12  H7  UNL     1      20.313   1.136  50.344  1.00  0.00     0.154 HD
BRANCH  11  13
HETATM   13  C11 UNL     1      21.748   1.205  48.805  1.00  0.00     0.209 C 
BRANCH  13  14
HETATM   14  C12 UNL     1      22.589   2.418  48.932  1.00  0.00    -0.087 C 
HETATM   15  C13 UNL     1      23.265   3.420  49.019  1.00  0.00    -0.103 C 
BRANCH  15  16
HETATM   16  C14 UNL     1      24.081   4.639  49.100  1.00  0.00     0.124 C 
BRANCH  16  17
HETATM   17  C15 UNL     1      23.507   5.568  50.152  1.00  0.00     0.284 C 
BRANCH  17  18
HETATM   18  N5  UNL     1      24.446   6.499  50.666  1.00  0.00     0.093 N 
HETATM   19  C16 UNL     1      23.929   7.828  50.813  1.00  0.00     0.298 C 
HETATM   20  C17 UNL     1      24.251   8.697  49.609  1.00  0.00     0.198 C 
HETATM   21  O1  UNL     1      25.626   8.913  49.482  1.00  0.00    -0.388 OA
HETATM   22  C18 UNL     1      26.387   7.840  49.923  1.00  0.00     0.198 C 
HETATM   23  C19 UNL     1      25.575   6.569  49.754  1.00  0.00     0.298 C 
ENDBRANCH  17  18
ENDBRANCH  16  17
ENDBRANCH  15  16
ENDBRANCH  13  14
ENDBRANCH  11  13
ENDBRANCH  10  11
ENDBRANCH   7  10
BRANCH   1  24
HETATM   24  N1  UNL     1      24.740   0.478  52.846  1.00  0.00    -0.340 N 
HETATM   25  H3  UNL     1      24.534   1.215  52.119  1.00  0.00     0.167 HD
BRANCH  24  26
HETATM   26  C4  UNL     1      26.132   0.147  53.065  1.00  0.00     0.035 A 
HETATM   27  C3  UNL     1      26.550  -1.144  52.702  1.00  0.00     0.032 A 
HETATM   28  C2  UNL     1      27.877  -1.501  52.895  1.00  0.00     0.046 A 
HETATM   29  C1  UNL     1      28.745  -0.557  53.443  1.00  0.00     0.138 A 
HETATM   30  F1  UNL     1      30.044  -0.889  53.642  1.00  0.00    -0.204 F 
HETATM   31  C23 UNL     1      28.294   0.714  53.788  1.00  0.00     0.074 A 
HETATM   32  C22 UNL     1      27.001   1.076  53.607  1.00  0.00     0.056 A 
HETATM   33 CL1  UNL     1      29.392   1.888  54.464  1.00  0.00    -0.081 Cl
ENDBRANCH  24  26
ENDBRANCH   1  24
TORSDOF 9
ENDMDL
MODEL 6
REMARK VINA RESULT:      -8.2      3.835      8.882
REMARK  9 active torsions:
REMARK  status: ('A' for Active; 'I' for Inactive)
REMARK    1  A    between atoms: C4_5  and  N1_6 
REMARK    2  A    between atoms: N1_6  and  C5_7 
REMARK    3  A    between atoms: C9_13  and  C10_14 
REMARK    4  A    between atoms: C10_14  and  N4_15 
REMARK    5  A    between atoms: N4_15  and  C11_16 
REMARK    6  A    between atoms: C11_16  and  C12_17 
REMARK    7  A    between atoms: C13_18  and  C14_19 
REMARK    8  A    between atoms: C14_19  and  C15_20 
REMARK    9  A    between atoms: C15_20  and  N5_21 
ROOT
HETATM    1  C5  UNL     1      31.331   7.889  47.789  1.00  0.00     0.142 A 
HETATM    2  N2  UNL     1      32.396   8.693  47.549  1.00  0.00    -0.224 NA
HETATM    3  C6  UNL     1      32.332   9.673  46.607  1.00  0.00     0.235 A 
HETATM    4  N3  UNL     1      31.165   9.792  45.940  1.00  0.00    -0.241 NA
HETATM    5  C7  UNL     1      30.122   8.973  46.207  1.00  0.00     0.069 A 
HETATM    6  C8  UNL     1      30.125   7.973  47.139  1.00  0.00     0.043 A 
HETATM    7  C9  UNL     1      28.990   7.344  47.268  1.00  0.00    -0.043 A 
HETATM    8  C20 UNL     1      28.088   7.899  46.231  1.00  0.00     0.066 A 
HETATM    9  C21 UNL     1      28.943   8.986  45.628  1.00  0.00     0.010 A 
ENDROOT
BRANCH   7  10
HETATM   10  C10 UNL     1      28.741   6.279  48.275  1.00  0.00     0.150 C 
BRANCH  10  11
HETATM   11  N4  UNL     1      27.596   6.632  49.108  1.00  0.00    -0.408 N 
HETATM   12  H7  UNL     1      27.555   7.602  49.404  1.00  0.00     0.154 HD
BRANCH  11  13
HETATM   13  C11 UNL     1      26.400   5.941  48.821  1.00  0.00     0.209 C 
BRANCH  13  14
HETATM   14  C12 UNL     1      26.461   4.599  49.447  1.00  0.00    -0.087 C 
HETATM   15  C13 UNL     1      26.488   3.502  49.962  1.00  0.00    -0.103 C 
BRANCH  15  16
HETATM   16  C14 UNL     1      26.502   2.180  50.601  1.00  0.00     0.124 C 
BRANCH  16  17
HETATM   17  C15 UNL     1      26.990   2.310  52.031  1.00  0.00     0.284 C 
BRANCH  17  18
HETATM   18  N5  UNL     1      27.665   1.159  52.511  1.00  0.00     0.093 N 
HETATM   19  C16 UNL     1      26.800   0.052  52.796  1.00  0.00     0.298 C 
HETATM   20  C17 UNL     1      26.407   0.005  54.264  1.00  0.00     0.198 C 
HETATM   21  O1  UNL     1      27.510  -0.245  55.085  1.00  0.00    -0.388 OA
HETATM   22  C18 UNL     1      28.690   0.290  54.588  1.00  0.00     0.198 C 
HETATM   23  C19 UNL     1      28.352   1.505  53.744  1.00  0.00     0.298 C 
ENDBRANCH  17  18
ENDBRANCH  16  17
ENDBRANCH  15  16
ENDBRANCH  13  14
ENDBRANCH  11  13
ENDBRANCH  10  11
ENDBRANCH   7  10
BRANCH   1  24
HETATM   24  N1  UNL     1      31.670   6.943  48.779  1.00  0.00    -0.340 N 
HETATM   25  H3  UNL     1      31.350   6.972  49.785  1.00  0.00     0.167 HD
BRANCH  24  26
HETATM   26  C4  UNL     1      32.521   5.837  48.394  1.00  0.00     0.035 A 
HETATM   27  C3  UNL     1      33.878   5.920  48.745  1.00  0.00     0.032 A 
HETATM   28  C2  UNL     1      34.728   4.880  48.396  1.00  0.00     0.046 A 
HETATM   29  C1  UNL     1      34.196   3.790  47.709  1.00  0.00     0.138 A 
HETATM   30  F1  UNL     1      35.012   2.766  47.357  1.00  0.00    -0.204 F 
HETATM   31  C23 UNL     1      32.843   3.742  47.382  1.00  0.00     0.074 A 
HETATM   32  C22 UNL     1      32.002   4.750  47.715  1.00  0.00     0.056 A 
HETATM   33 CL1  UNL     1      32.188   2.368  46.531  1.00  0.00    -0.081 Cl
ENDBRANCH  24  26
ENDBRANCH   1  24
TORSDOF 9
ENDMDL
MODEL 7
REMARK VINA RESULT:      -8.1      5.654      8.187
REMARK  9 active torsions:
REMARK  status: ('A' for Active; 'I' for Inactive)
REMARK    1  A    between atoms: C4_5  and  N1_6 
REMARK    2  A    between atoms: N1_6  and  C5_7 
REMARK    3  A    between atoms: C9_13  and  C10_14 
REMARK    4  A    between atoms: C10_14  and  N4_15 
REMARK    5  A    between atoms: N4_15  and  C11_16 
REMARK    6  A    between atoms: C11_16  and  C12_17 
REMARK    7  A    between atoms: C13_18  and  C14_19 
REMARK    8  A    between atoms: C14_19  and  C15_20 
REMARK    9  A    between atoms: C15_20  and  N5_21 
ROOT
HETATM    1  C5  UNL     1      24.925   0.422  52.812  1.00  0.00     0.142 A 
HETATM    2  N2  UNL     1      26.242   0.746  52.797  1.00  0.00    -0.224 NA
HETATM    3  C6  UNL     1      27.062   0.384  53.821  1.00  0.00     0.235 A 
HETATM    4  N3  UNL     1      26.494  -0.304  54.832  1.00  0.00    -0.241 NA
HETATM    5  C7  UNL     1      25.176  -0.612  54.815  1.00  0.00     0.069 A 
HETATM    6  C8  UNL     1      24.304  -0.277  53.816  1.00  0.00     0.043 A 
HETATM    7  C9  UNL     1      23.091  -0.725  53.979  1.00  0.00    -0.043 A 
HETATM    8  C20 UNL     1      23.066  -1.383  55.308  1.00  0.00     0.066 A 
HETATM    9  C21 UNL     1      24.509  -1.270  55.734  1.00  0.00     0.010 A 
ENDROOT
BRANCH   7  10
HETATM   10  C10 UNL     1      22.000  -0.552  52.983  1.00  0.00     0.150 C 
BRANCH  10  11
HETATM   11  N4  UNL     1      21.083   0.497  53.420  1.00  0.00    -0.408 N 
HETATM   12  H7  UNL     1      21.499   1.235  53.977  1.00  0.00     0.154 HD
BRANCH  11  13
HETATM   13  C11 UNL     1      20.042   0.807  52.519  1.00  0.00     0.209 C 
BRANCH  13  14
HETATM   14  C12 UNL     1      20.613   0.952  51.159  1.00  0.00    -0.087 C 
HETATM   15  C13 UNL     1      21.059   1.070  50.039  1.00  0.00    -0.103 C 
BRANCH  15  16
HETATM   16  C14 UNL     1      21.580   1.199  48.672  1.00  0.00     0.124 C 
BRANCH  16  17
HETATM   17  C15 UNL     1      20.971   2.419  48.007  1.00  0.00     0.284 C 
BRANCH  17  18
HETATM   18  N5  UNL     1      21.755   3.594  48.141  1.00  0.00     0.093 N 
HETATM   19  C16 UNL     1      21.143   4.616  48.938  1.00  0.00     0.298 C 
HETATM   20  C17 UNL     1      20.401   5.630  48.083  1.00  0.00     0.198 C 
HETATM   21  O1  UNL     1      21.273   6.355  47.268  1.00  0.00    -0.388 OA
HETATM   22  C18 UNL     1      22.374   5.616  46.859  1.00  0.00     0.198 C 
HETATM   23  C19 UNL     1      21.985   4.150  46.818  1.00  0.00     0.298 C 
ENDBRANCH  17  18
ENDBRANCH  16  17
ENDBRANCH  15  16
ENDBRANCH  13  14
ENDBRANCH  11  13
ENDBRANCH  10  11
ENDBRANCH   7  10
BRANCH   1  24
HETATM   24  N1  UNL     1      24.300   0.942  51.660  1.00  0.00    -0.340 N 
HETATM   25  H3  UNL     1      23.906   0.367  50.868  1.00  0.00     0.167 HD
BRANCH  24  26
HETATM   26  C4  UNL     1      24.180   2.380  51.547  1.00  0.00     0.035 A 
HETATM   27  C3  UNL     1      23.518   3.053  52.586  1.00  0.00     0.032 A 
HETATM   28  C2  UNL     1      23.382   4.433  52.516  1.00  0.00     0.046 A 
HETATM   29  C1  UNL     1      23.913   5.096  51.410  1.00  0.00     0.138 A 
HETATM   30  F1  UNL     1      23.787   6.443  51.323  1.00  0.00    -0.204 F 
HETATM   31  C23 UNL     1      24.566   4.394  50.400  1.00  0.00     0.074 A 
HETATM   32  C22 UNL     1      24.705   3.048  50.455  1.00  0.00     0.056 A 
HETATM   33 CL1  UNL     1      25.235   5.237  49.028  1.00  0.00    -0.081 Cl
ENDBRANCH  24  26
ENDBRANCH   1  24
TORSDOF 9
ENDMDL
MODEL 8
REMARK VINA RESULT:      -8.1      1.713      2.269
REMARK  9 active torsions:
REMARK  status: ('A' for Active; 'I' for Inactive)
REMARK    1  A    between atoms: C4_5  and  N1_6 
REMARK    2  A    between atoms: N1_6  and  C5_7 
REMARK    3  A    between atoms: C9_13  and  C10_14 
REMARK    4  A    between atoms: C10_14  and  N4_15 
REMARK    5  A    between atoms: N4_15  and  C11_16 
REMARK    6  A    between atoms: C11_16  and  C12_17 
REMARK    7  A    between atoms: C13_18  and  C14_19 
REMARK    8  A    between atoms: C14_19  and  C15_20 
REMARK    9  A    between atoms: C15_20  and  N5_21 
ROOT
HETATM    1  C5  UNL     1      23.333   1.237  52.679  1.00  0.00     0.142 A 
HETATM    2  N2  UNL     1      22.761   0.416  53.594  1.00  0.00    -0.224 NA
HETATM    3  C6  UNL     1      21.627  -0.276  53.298  1.00  0.00     0.235 A 
HETATM    4  N3  UNL     1      21.119  -0.098  52.060  1.00  0.00    -0.241 NA
HETATM    5  C7  UNL     1      21.718   0.728  51.172  1.00  0.00     0.069 A 
HETATM    6  C8  UNL     1      22.855   1.448  51.410  1.00  0.00     0.043 A 
HETATM    7  C9  UNL     1      23.289   2.136  50.391  1.00  0.00    -0.043 A 
HETATM    8  C20 UNL     1      22.283   1.963  49.315  1.00  0.00     0.066 A 
HETATM    9  C21 UNL     1      21.322   0.986  49.947  1.00  0.00     0.010 A 
ENDROOT
BRANCH   7  10
HETATM   10  C10 UNL     1      24.549   2.925  50.397  1.00  0.00     0.150 C 
BRANCH  10  11
HETATM   11  N4  UNL     1      24.599   3.802  49.231  1.00  0.00    -0.408 N 
HETATM   12  H7  UNL     1      23.898   3.621  48.520  1.00  0.00     0.154 HD
BRANCH  11  13
HETATM   13  C11 UNL     1      25.006   5.129  49.485  1.00  0.00     0.209 C 
BRANCH  13  14
HETATM   14  C12 UNL     1      26.399   5.300  49.008  1.00  0.00    -0.087 C 
HETATM   15  C13 UNL     1      27.540   5.419  48.616  1.00  0.00    -0.103 C 
BRANCH  15  16
HETATM   16  C14 UNL     1      28.928   5.540  48.153  1.00  0.00     0.124 C 
BRANCH  16  17
HETATM   17  C15 UNL     1      29.126   6.884  47.479  1.00  0.00     0.284 C 
BRANCH  17  18
HETATM   18  N5  UNL     1      30.346   7.520  47.820  1.00  0.00     0.093 N 
HETATM   19  C16 UNL     1      31.266   7.643  46.727  1.00  0.00     0.298 C 
HETATM   20  C17 UNL     1      32.271   6.503  46.704  1.00  0.00     0.198 C 
HETATM   21  O1  UNL     1      33.112   6.535  47.820  1.00  0.00    -0.388 OA
HETATM   22  C18 UNL     1      32.488   7.030  48.956  1.00  0.00     0.198 C 
HETATM   23  C19 UNL     1      31.001   6.741  48.857  1.00  0.00     0.298 C 
ENDBRANCH  17  18
ENDBRANCH  16  17
ENDBRANCH  15  16
ENDBRANCH  13  14
ENDBRANCH  11  13
ENDBRANCH  10  11
ENDBRANCH   7  10
BRANCH   1  24
HETATM   24  N1  UNL     1      24.467   1.856  53.246  1.00  0.00    -0.340 N 
HETATM   25  H3  UNL     1      24.481   2.814  53.689  1.00  0.00     0.167 HD
BRANCH  24  26
HETATM   26  C4  UNL     1      25.716   1.124  53.229  1.00  0.00     0.035 A 
HETATM   27  C3  UNL     1      25.717  -0.129  52.597  1.00  0.00     0.032 A 
HETATM   28  C2  UNL     1      26.895  -0.862  52.557  1.00  0.00     0.046 A 
HETATM   29  C1  UNL     1      28.035  -0.319  53.149  1.00  0.00     0.138 A 
HETATM   30  F1  UNL     1      29.193  -1.022  53.123  1.00  0.00    -0.204 F 
HETATM   31  C23 UNL     1      27.995   0.930  53.764  1.00  0.00     0.074 A 
HETATM   32  C22 UNL     1      26.852   1.656  53.811  1.00  0.00     0.056 A 
HETATM   33 CL1  UNL     1      29.430   1.602  54.491  1.00  0.00    -0.081 Cl
ENDBRANCH  24  26
ENDBRANCH   1  24
TORSDOF 9
ENDMDL
MODEL 9
REMARK VINA RESULT:      -8.0      5.591     10.252
REMARK  9 active torsions:
REMARK  status: ('A' for Active; 'I' for Inactive)
REMARK    1  A    between atoms: C4_5  and  N1_6 
REMARK    2  A    between atoms: N1_6  and  C5_7 
REMARK    3  A    between atoms: C9_13  and  C10_14 
REMARK    4  A    between atoms: C10_14  and  N4_15 
REMARK    5  A    between atoms: N4_15  and  C11_16 
REMARK    6  A    between atoms: C11_16  and  C12_17 
REMARK    7  A    between atoms: C13_18  and  C14_19 
REMARK    8  A    between atoms: C14_19  and  C15_20 
REMARK    9  A    between atoms: C15_20  and  N5_21 
ROOT
HETATM    1  C5  UNL     1      24.565   2.460  51.779  1.00  0.00     0.142 A 
HETATM    2  N2  UNL     1      25.239   3.329  50.986  1.00  0.00    -0.224 NA
HETATM    3  C6  UNL     1      24.813   3.596  49.722  1.00  0.00     0.235 A 
HETATM    4  N3  UNL     1      23.697   2.955  49.315  1.00  0.00    -0.241 NA
HETATM    5  C7  UNL     1      23.048   2.095  50.133  1.00  0.00     0.069 A 
HETATM    6  C8  UNL     1      23.427   1.787  51.410  1.00  0.00     0.043 A 
HETATM    7  C9  UNL     1      22.622   0.975  52.037  1.00  0.00    -0.043 A 
HETATM    8  C20 UNL     1      21.586   0.577  51.053  1.00  0.00     0.066 A 
HETATM    9  C21 UNL     1      21.963   1.411  49.854  1.00  0.00     0.010 A 
ENDROOT
BRANCH   7  10
HETATM   10  C10 UNL     1      22.792   0.569  53.457  1.00  0.00     0.150 C 
BRANCH  10  11
HETATM   11  N4  UNL     1      22.531  -0.860  53.606  1.00  0.00    -0.408 N 
HETATM   12  H7  UNL     1      23.327  -1.467  53.448  1.00  0.00     0.154 HD
BRANCH  11  13
HETATM   13  C11 UNL     1      21.576  -1.203  54.586  1.00  0.00     0.209 C 
BRANCH  13  14
HETATM   14  C12 UNL     1      20.229  -1.190  53.968  1.00  0.00    -0.087 C 
HETATM   15  C13 UNL     1      19.133  -1.198  53.451  1.00  0.00    -0.103 C 
BRANCH  15  16
HETATM   16  C14 UNL     1      17.816  -1.216  52.802  1.00  0.00     0.124 C 
BRANCH  16  17
HETATM   17  C15 UNL     1      17.863  -0.393  51.529  1.00  0.00     0.284 C 
BRANCH  17  18
HETATM   18  N5  UNL     1      16.586   0.003  51.057  1.00  0.00     0.093 N 
HETATM   19  C16 UNL     1      15.492  -0.661  51.705  1.00  0.00     0.298 C 
HETATM   20  C17 UNL     1      15.021  -1.873  50.918  1.00  0.00     0.198 C 
HETATM   21  O1  UNL     1      14.474  -1.507  49.686  1.00  0.00    -0.388 OA
HETATM   22  C18 UNL     1      15.070  -0.380  49.139  1.00  0.00     0.198 C 
HETATM   23  C19 UNL     1      16.502  -0.301  49.638  1.00  0.00     0.298 C 
ENDBRANCH  17  18
ENDBRANCH  16  17
ENDBRANCH  15  16
ENDBRANCH  13  14
ENDBRANCH  11  13
ENDBRANCH  10  11
ENDBRANCH   7  10
BRANCH   1  24
HETATM   24  N1  UNL     1      25.231   2.337  53.015  1.00  0.00    -0.340 N 
HETATM   25  H3  UNL     1      24.969   2.845  53.903  1.00  0.00     0.167 HD
BRANCH  24  26
HETATM   26  C4  UNL     1      26.366   1.442  53.086  1.00  0.00     0.035 A 
HETATM   27  C3  UNL     1      27.594   1.991  53.489  1.00  0.00     0.032 A 
HETATM   28  C2  UNL     1      28.707   1.167  53.570  1.00  0.00     0.046 A 
HETATM   29  C1  UNL     1      28.559  -0.182  53.247  1.00  0.00     0.138 A 
HETATM   30  F1  UNL     1      29.636  -1.002  53.318  1.00  0.00    -0.204 F 
HETATM   31  C23 UNL     1      27.324  -0.691  52.854  1.00  0.00     0.074 A 
HETATM   32  C22 UNL     1      26.229   0.102  52.769  1.00  0.00     0.056 A 
HETATM   33 CL1  UNL     1      27.150  -2.382  52.463  1.00  0.00    -0.081 Cl
ENDBRANCH  24  26
ENDBRANCH   1  24
TORSDOF 9
ENDMDL
