MODEL 1
REMARK VINA RESULT:      -8.7      0.000      0.000
REMARK  6 active torsions:
REMARK  status: ('A' for Active; 'I' for Inactive)
REMARK    1  A    between atoms: O1_2  and  C2_3 
REMARK    2  A    between atoms: C5_6  and  N1_7 
REMARK    3  A    between atoms: C7_9  and  O2_10 
REMARK    4  A    between atoms: O2_10  and  C8_11 
REMARK    5  A    between atoms: C13_20  and  N5_21 
REMARK    6  A    between atoms: N5_21  and  C14_22 
ROOT
HETATM    1  C14 UNL     1      25.641   5.037  49.419  1.00  0.00     0.188 C 
HETATM    2  C15 UNL     1      26.986   4.923  48.806  1.00  0.00     0.250 C 
HETATM    3  O4  UNL     1      28.137   4.789  48.446  1.00  0.00    -0.305 OA
ENDROOT
BRANCH   1   4
HETATM    4  N5  UNL     1      25.653   4.721  50.827  1.00  0.00    -0.387 N 
HETATM    5  H18 UNL     1      26.502   4.806  51.426  1.00  0.00     0.159 HD
BRANCH   4   6
HETATM    6  C13 UNL     1      24.484   4.267  51.490  1.00  0.00     0.004 C 
HETATM    7  C12 UNL     1      23.357   4.994  51.366  1.00  0.00     0.026 C 
HETATM    8  C11 UNL     1      21.951   4.917  51.850  1.00  0.00     0.230 C 
HETATM    9  O3  UNL     1      21.735   3.803  52.644  1.00  0.00    -0.280 OA
HETATM   10  N4  UNL     1      20.716   3.094  52.203  1.00  0.00    -0.282 N 
HETATM   11  C10 UNL     1      20.489   1.860  52.903  1.00  0.00     0.296 C 
HETATM   12  H14 UNL     1      20.574   3.027  51.192  1.00  0.00     0.189 HD
HETATM   13  N3  UNL     1      21.700   1.072  52.859  1.00  0.00    -0.262 NA
HETATM   14  C9  UNL     1      22.031   0.425  51.801  1.00  0.00     0.231 C 
HETATM   15  N2  UNL     1      23.172   0.005  52.541  1.00  0.00    -0.222 NA
HETATM   16  C8  UNL     1      24.341   0.593  52.467  1.00  0.00     0.147 C 
HETATM   17  C17 UNL     1      24.465   1.763  51.557  1.00  0.00     0.092 C 
HETATM   18  C16 UNL     1      24.458   3.056  52.345  1.00  0.00     0.064 C 
BRANCH  16  19
HETATM   19  O2  UNL     1      25.004  -0.218  53.361  1.00  0.00    -0.293 OA
BRANCH  19  20
HETATM   20  C7  UNL     1      26.295  -0.699  53.220  1.00  0.00     0.109 A 
HETATM   21  C2  UNL     1      27.552  -0.121  53.725  1.00  0.00     0.106 A 
HETATM   22  C3  UNL     1      28.589  -0.875  53.387  1.00  0.00    -0.011 A 
HETATM   23  C4  UNL     1      30.041  -0.719  53.657  1.00  0.00     0.049 C 
HETATM   24  C5  UNL     1      28.095  -2.034  52.617  1.00  0.00     0.275 A 
HETATM   25  C6  UNL     1      26.623  -1.802  52.583  1.00  0.00     0.053 A 
BRANCH  21  26
HETATM   26  O1  UNL     1      27.510   1.081  54.457  1.00  0.00    -0.353 OA
HETATM   27  C1  UNL     1      27.963   2.244  53.760  1.00  0.00     0.210 C 
ENDBRANCH  21  26
BRANCH  24  28
HETATM   28  N1  UNL     1      28.415  -3.278  53.284  1.00  0.00     0.090 N 
HETATM   29  H8  UNL     1      28.114  -3.198  54.263  1.00  0.00     0.314 HD
HETATM   30  H9  UNL     1      29.447  -3.418  53.189  1.00  0.00     0.314 HD
ENDBRANCH  24  28
ENDBRANCH  19  20
ENDBRANCH  16  19
ENDBRANCH   4   6
ENDBRANCH   1   4
TORSDOF 6
ENDMDL
MODEL 2
REMARK VINA RESULT:      -8.1      1.357      1.892
REMARK  6 active torsions:
REMARK  status: ('A' for Active; 'I' for Inactive)
REMARK    1  A    between atoms: O1_2  and  C2_3 
REMARK    2  A    between atoms: C5_6  and  N1_7 
REMARK    3  A    between atoms: C7_9  and  O2_10 
REMARK    4  A    between atoms: O2_10  and  C8_11 
REMARK    5  A    between atoms: C13_20  and  N5_21 
REMARK    6  A    between atoms: N5_21  and  C14_22 
ROOT
HETATM    1  C14 UNL     1      25.627   5.211  49.439  1.00  0.00     0.188 C 
HETATM    2  C15 UNL     1      26.956   4.938  48.841  1.00  0.00     0.250 C 
HETATM    3  O4  UNL     1      28.085   4.661  48.492  1.00  0.00    -0.305 OA
ENDROOT
BRANCH   1   4
HETATM    4  N5  UNL     1      25.568   4.841  50.833  1.00  0.00    -0.387 N 
HETATM    5  H18 UNL     1      26.390   4.881  51.472  1.00  0.00     0.159 HD
BRANCH   4   6
HETATM    6  C13 UNL     1      24.360   4.392  51.426  1.00  0.00     0.004 C 
HETATM    7  C12 UNL     1      23.221   5.049  51.130  1.00  0.00     0.026 C 
HETATM    8  C11 UNL     1      21.779   4.947  51.487  1.00  0.00     0.230 C 
HETATM    9  O3  UNL     1      21.532   3.899  52.359  1.00  0.00    -0.280 OA
HETATM   10  N4  UNL     1      20.590   3.105  51.894  1.00  0.00    -0.282 N 
HETATM   11  C10 UNL     1      20.347   1.929  52.684  1.00  0.00     0.296 C 
HETATM   12  H14 UNL     1      20.550   2.941  50.886  1.00  0.00     0.189 HD
HETATM   13  N3  UNL     1      21.587   1.201  52.826  1.00  0.00    -0.262 NA
HETATM   14  C9  UNL     1      22.044   0.478  51.868  1.00  0.00     0.231 C 
HETATM   15  N2  UNL     1      23.124   0.182  52.747  1.00  0.00    -0.222 NA
HETATM   16  C8  UNL     1      24.270   0.817  52.726  1.00  0.00     0.147 C 
HETATM   17  C17 UNL     1      24.435   1.906  51.726  1.00  0.00     0.092 C 
HETATM   18  C16 UNL     1      24.300   3.262  52.384  1.00  0.00     0.064 C 
BRANCH  16  19
HETATM   19  O2  UNL     1      24.876   0.123  53.750  1.00  0.00    -0.293 OA
BRANCH  19  20
HETATM   20  C7  UNL     1      26.237   0.066  54.000  1.00  0.00     0.109 A 
HETATM   21  C2  UNL     1      27.299  -0.537  53.177  1.00  0.00     0.106 A 
HETATM   22  C3  UNL     1      28.484  -0.390  53.752  1.00  0.00    -0.011 A 
HETATM   23  C4  UNL     1      29.840  -0.819  53.322  1.00  0.00     0.049 C 
HETATM   24  C5  UNL     1      28.302   0.335  55.024  1.00  0.00     0.275 A 
HETATM   25  C6  UNL     1      26.830   0.566  55.062  1.00  0.00     0.053 A 
BRANCH  21  26
HETATM   26  O1  UNL     1      26.956  -1.158  51.960  1.00  0.00    -0.353 OA
HETATM   27  C1  UNL     1      26.580  -2.533  52.053  1.00  0.00     0.210 C 
ENDBRANCH  21  26
BRANCH  24  28
HETATM   28  N1  UNL     1      29.029   1.587  55.020  1.00  0.00     0.090 N 
HETATM   29  H8  UNL     1      28.584   2.212  55.702  1.00  0.00     0.314 HD
HETATM   30  H9  UNL     1      28.988   1.959  54.043  1.00  0.00     0.314 HD
ENDBRANCH  24  28
ENDBRANCH  19  20
ENDBRANCH  16  19
ENDBRANCH   4   6
ENDBRANCH   1   4
TORSDOF 6
ENDMDL
MODEL 3
REMARK VINA RESULT:      -7.7      2.400      6.586
REMARK  6 active torsions:
REMARK  status: ('A' for Active; 'I' for Inactive)
REMARK    1  A    between atoms: O1_2  and  C2_3 
REMARK    2  A    between atoms: C5_6  and  N1_7 
REMARK    3  A    between atoms: C7_9  and  O2_10 
REMARK    4  A    between atoms: O2_10  and  C8_11 
REMARK    5  A    between atoms: C13_20  and  N5_21 
REMARK    6  A    between atoms: N5_21  and  C14_22 
ROOT
HETATM    1  C14 UNL     1      28.767   2.203  53.631  1.00  0.00     0.188 C 
HETATM    2  C15 UNL     1      29.280   0.814  53.713  1.00  0.00     0.250 C 
HETATM    3  O4  UNL     1      29.564  -0.358  53.847  1.00  0.00    -0.305 OA
ENDROOT
BRANCH   1   4
HETATM    4  N5  UNL     1      27.439   2.329  54.183  1.00  0.00    -0.387 N 
HETATM    5  H18 UNL     1      27.186   3.032  54.910  1.00  0.00     0.159 HD
BRANCH   4   6
HETATM    6  C13 UNL     1      26.382   1.485  53.758  1.00  0.00     0.004 C 
HETATM    7  C12 UNL     1      26.028   0.455  54.552  1.00  0.00     0.026 C 
HETATM    8  C11 UNL     1      25.023  -0.644  54.530  1.00  0.00     0.230 C 
HETATM    9  O3  UNL     1      24.237  -0.607  53.390  1.00  0.00    -0.280 OA
HETATM   10  N4  UNL     1      22.956  -0.600  53.696  1.00  0.00    -0.282 N 
HETATM   11  C10 UNL     1      22.068  -0.451  52.576  1.00  0.00     0.296 C 
HETATM   12  H14 UNL     1      22.659  -0.085  54.528  1.00  0.00     0.189 HD
HETATM   13  N3  UNL     1      22.417   0.758  51.864  1.00  0.00    -0.262 NA
HETATM   14  C9  UNL     1      22.070   1.912  52.309  1.00  0.00     0.231 C 
HETATM   15  N2  UNL     1      22.729   2.437  51.161  1.00  0.00    -0.222 NA
HETATM   16  C8  UNL     1      23.963   2.877  51.173  1.00  0.00     0.147 C 
HETATM   17  C17 UNL     1      24.703   2.817  52.462  1.00  0.00     0.092 C 
HETATM   18  C16 UNL     1      25.678   1.659  52.465  1.00  0.00     0.064 C 
BRANCH  16  19
HETATM   19  O2  UNL     1      24.035   3.235  49.845  1.00  0.00    -0.293 OA
BRANCH  19  20
HETATM   20  C7  UNL     1      24.624   4.384  49.343  1.00  0.00     0.109 A 
HETATM   21  C2  UNL     1      23.990   5.511  48.640  1.00  0.00     0.106 A 
HETATM   22  C3  UNL     1      24.887   6.431  48.313  1.00  0.00    -0.011 A 
HETATM   23  C4  UNL     1      24.744   7.730  47.606  1.00  0.00     0.049 C 
HETATM   24  C5  UNL     1      26.212   5.980  48.780  1.00  0.00     0.275 A 
HETATM   25  C6  UNL     1      25.906   4.667  49.417  1.00  0.00     0.053 A 
BRANCH  21  26
HETATM   26  O1  UNL     1      22.600   5.485  48.412  1.00  0.00    -0.353 OA
HETATM   27  C1  UNL     1      22.192   4.958  47.148  1.00  0.00     0.210 C 
ENDBRANCH  21  26
BRANCH  24  28
HETATM   28  N1  UNL     1      26.772   6.909  49.738  1.00  0.00     0.090 N 
HETATM   29  H8  UNL     1      26.235   6.826  50.609  1.00  0.00     0.314 HD
HETATM   30  H9  UNL     1      26.705   7.863  49.312  1.00  0.00     0.314 HD
ENDBRANCH  24  28
ENDBRANCH  19  20
ENDBRANCH  16  19
ENDBRANCH   4   6
ENDBRANCH   1   4
TORSDOF 6
ENDMDL
MODEL 4
REMARK VINA RESULT:      -7.6      2.283      6.085
REMARK  6 active torsions:
REMARK  status: ('A' for Active; 'I' for Inactive)
REMARK    1  A    between atoms: O1_2  and  C2_3 
REMARK    2  A    between atoms: C5_6  and  N1_7 
REMARK    3  A    between atoms: C7_9  and  O2_10 
REMARK    4  A    between atoms: O2_10  and  C8_11 
REMARK    5  A    between atoms: C13_20  and  N5_21 
REMARK    6  A    between atoms: N5_21  and  C14_22 
ROOT
HETATM    1  C14 UNL     1      26.459  -0.447  53.803  1.00  0.00     0.188 C 
HETATM    2  C15 UNL     1      27.589   0.312  54.390  1.00  0.00     0.250 C 
HETATM    3  O4  UNL     1      28.420   0.961  54.991  1.00  0.00    -0.305 OA
ENDROOT
BRANCH   1   4
HETATM    4  N5  UNL     1      25.299  -0.452  54.662  1.00  0.00    -0.387 N 
HETATM    5  H18 UNL     1      25.355  -0.391  55.700  1.00  0.00     0.159 HD
BRANCH   4   6
HETATM    6  C13 UNL     1      23.988  -0.540  54.127  1.00  0.00     0.004 C 
HETATM    7  C12 UNL     1      23.084  -1.301  54.776  1.00  0.00     0.026 C 
HETATM    8  C11 UNL     1      21.653  -1.676  54.607  1.00  0.00     0.230 C 
HETATM    9  O3  UNL     1      21.092  -1.094  53.482  1.00  0.00    -0.280 OA
HETATM   10  N4  UNL     1      19.993  -0.434  53.786  1.00  0.00    -0.282 N 
HETATM   11  C10 UNL     1      19.404   0.295  52.696  1.00  0.00     0.296 C 
HETATM   12  H14 UNL     1      19.957   0.061  54.681  1.00  0.00     0.189 HD
HETATM   13  N3  UNL     1      20.394   1.199  52.154  1.00  0.00    -0.262 NA
HETATM   14  C9  UNL     1      20.684   2.298  52.750  1.00  0.00     0.231 C 
HETATM   15  N2  UNL     1      21.601   2.513  51.683  1.00  0.00    -0.222 NA
HETATM   16  C8  UNL     1      22.876   2.217  51.753  1.00  0.00     0.147 C 
HETATM   17  C17 UNL     1      23.375   1.622  53.022  1.00  0.00     0.092 C 
HETATM   18  C16 UNL     1      23.580   0.131  52.870  1.00  0.00     0.064 C 
BRANCH  16  19
HETATM   19  O2  UNL     1      23.223   2.628  50.486  1.00  0.00    -0.293 OA
BRANCH  19  20
HETATM   20  C7  UNL     1      24.097   3.656  50.175  1.00  0.00     0.109 A 
HETATM   21  C2  UNL     1      24.109   5.039  50.682  1.00  0.00     0.106 A 
HETATM   22  C3  UNL     1      25.107   5.730  50.149  1.00  0.00    -0.011 A 
HETATM   23  C4  UNL     1      25.531   7.141  50.340  1.00  0.00     0.049 C 
HETATM   24  C5  UNL     1      25.850   4.847  49.229  1.00  0.00     0.275 A 
HETATM   25  C6  UNL     1      25.107   3.560  49.338  1.00  0.00     0.053 A 
BRANCH  21  26
HETATM   26  O1  UNL     1      23.128   5.439  51.610  1.00  0.00    -0.353 OA
HETATM   27  C1  UNL     1      22.025   6.168  51.067  1.00  0.00     0.210 C 
ENDBRANCH  21  26
BRANCH  24  28
HETATM   28  N1  UNL     1      27.226   4.696  49.650  1.00  0.00     0.090 N 
HETATM   29  H8  UNL     1      27.767   4.357  48.846  1.00  0.00     0.314 HD
HETATM   30  H9  UNL     1      27.227   4.022  50.451  1.00  0.00     0.314 HD
ENDBRANCH  24  28
ENDBRANCH  19  20
ENDBRANCH  16  19
ENDBRANCH   4   6
ENDBRANCH   1   4
TORSDOF 6
ENDMDL
MODEL 5
REMARK VINA RESULT:      -7.5      2.170      4.713
REMARK  6 active torsions:
REMARK  status: ('A' for Active; 'I' for Inactive)
REMARK    1  A    between atoms: O1_2  and  C2_3 
REMARK    2  A    between atoms: C5_6  and  N1_7 
REMARK    3  A    between atoms: C7_9  and  O2_10 
REMARK    4  A    between atoms: O2_10  and  C8_11 
REMARK    5  A    between atoms: C13_20  and  N5_21 
REMARK    6  A    between atoms: N5_21  and  C14_22 
ROOT
HETATM    1  C14 UNL     1      20.180   0.072  53.290  1.00  0.00     0.188 C 
HETATM    2  C15 UNL     1      20.757  -0.894  54.256  1.00  0.00     0.250 C 
HETATM    3  O4  UNL     1      21.282  -1.762  54.923  1.00  0.00    -0.305 OA
ENDROOT
BRANCH   1   4
HETATM    4  N5  UNL     1      20.453  -0.295  51.921  1.00  0.00    -0.387 N 
HETATM    5  H18 UNL     1      19.989  -1.093  51.439  1.00  0.00     0.159 HD
BRANCH   4   6
HETATM    6  C13 UNL     1      21.390   0.427  51.138  1.00  0.00     0.004 C 
HETATM    7  C12 UNL     1      21.024   0.815  49.901  1.00  0.00     0.026 C 
HETATM    8  C11 UNL     1      21.634   1.562  48.766  1.00  0.00     0.230 C 
HETATM    9  O3  UNL     1      22.927   1.971  49.049  1.00  0.00    -0.280 OA
HETATM   10  N4  UNL     1      23.069   3.266  48.857  1.00  0.00    -0.282 N 
HETATM   11  C10 UNL     1      24.351   3.797  49.232  1.00  0.00     0.296 C 
HETATM   12  H14 UNL     1      22.285   3.880  49.089  1.00  0.00     0.189 HD
HETATM   13  N3  UNL     1      24.601   3.469  50.618  1.00  0.00    -0.262 NA
HETATM   14  C9  UNL     1      24.037   4.127  51.565  1.00  0.00     0.231 C 
HETATM   15  N2  UNL     1      24.745   3.261  52.446  1.00  0.00    -0.222 NA
HETATM   16  C8  UNL     1      24.223   2.181  52.974  1.00  0.00     0.147 C 
HETATM   17  C17 UNL     1      22.815   1.855  52.623  1.00  0.00     0.092 C 
HETATM   18  C16 UNL     1      22.763   0.738  51.603  1.00  0.00     0.064 C 
BRANCH  16  19
HETATM   19  O2  UNL     1      25.329   1.784  53.693  1.00  0.00    -0.293 OA
BRANCH  19  20
HETATM   20  C7  UNL     1      26.188   0.751  53.360  1.00  0.00     0.109 A 
HETATM   21  C2  UNL     1      27.604   0.578  53.725  1.00  0.00     0.106 A 
HETATM   22  C3  UNL     1      28.091  -0.545  53.216  1.00  0.00    -0.011 A 
HETATM   23  C4  UNL     1      29.444  -1.153  53.302  1.00  0.00     0.049 C 
HETATM   24  C5  UNL     1      27.019  -1.219  52.458  1.00  0.00     0.275 A 
HETATM   25  C6  UNL     1      25.864  -0.293  52.629  1.00  0.00     0.053 A 
BRANCH  21  26
HETATM   26  O1  UNL     1      28.234   1.556  54.519  1.00  0.00    -0.353 OA
HETATM   27  C1  UNL     1      28.972   2.549  53.804  1.00  0.00     0.210 C 
ENDBRANCH  21  26
BRANCH  24  28
HETATM   28  N1  UNL     1      26.731  -2.525  53.011  1.00  0.00     0.090 N 
HETATM   29  H8  UNL     1      26.349  -3.109  52.259  1.00  0.00     0.314 HD
HETATM   30  H9  UNL     1      26.053  -2.380  53.795  1.00  0.00     0.314 HD
ENDBRANCH  24  28
ENDBRANCH  19  20
ENDBRANCH  16  19
ENDBRANCH   4   6
ENDBRANCH   1   4
TORSDOF 6
ENDMDL
MODEL 6
REMARK VINA RESULT:      -7.3      2.734      3.476
REMARK  6 active torsions:
REMARK  status: ('A' for Active; 'I' for Inactive)
REMARK    1  A    between atoms: O1_2  and  C2_3 
REMARK    2  A    between atoms: C5_6  and  N1_7 
REMARK    3  A    between atoms: C7_9  and  O2_10 
REMARK    4  A    between atoms: O2_10  and  C8_11 
REMARK    5  A    between atoms: C13_20  and  N5_21 
REMARK    6  A    between atoms: N5_21  and  C14_22 
ROOT
HETATM    1  C14 UNL     1      27.786   7.915  48.604  1.00  0.00     0.188 C 
HETATM    2  C15 UNL     1      27.532   8.947  49.637  1.00  0.00     0.250 C 
HETATM    3  O4  UNL     1      27.260   9.678  50.568  1.00  0.00    -0.305 OA
ENDROOT
BRANCH   1   4
HETATM    4  N5  UNL     1      27.317   6.610  49.007  1.00  0.00    -0.387 N 
HETATM    5  H18 UNL     1      27.954   5.819  49.236  1.00  0.00     0.159 HD
BRANCH   4   6
HETATM    6  C13 UNL     1      25.931   6.328  49.117  1.00  0.00     0.004 C 
HETATM    7  C12 UNL     1      25.086   6.936  48.263  1.00  0.00     0.026 C 
HETATM    8  C11 UNL     1      23.620   6.949  48.004  1.00  0.00     0.230 C 
HETATM    9  O3  UNL     1      22.931   6.116  48.870  1.00  0.00    -0.280 OA
HETATM   10  N4  UNL     1      22.172   5.266  48.210  1.00  0.00    -0.282 N 
HETATM   11  C10 UNL     1      21.505   4.290  49.028  1.00  0.00     0.296 C 
HETATM   12  H14 UNL     1      22.520   4.893  47.324  1.00  0.00     0.189 HD
HETATM   13  N3  UNL     1      22.497   3.576  49.801  1.00  0.00    -0.262 NA
HETATM   14  C9  UNL     1      23.216   2.656  49.267  1.00  0.00     0.231 C 
HETATM   15  N2  UNL     1      23.815   2.525  50.551  1.00  0.00    -0.222 NA
HETATM   16  C8  UNL     1      24.936   3.112  50.891  1.00  0.00     0.147 C 
HETATM   17  C17 UNL     1      25.606   3.961  49.869  1.00  0.00     0.092 C 
HETATM   18  C16 UNL     1      25.369   5.428  50.153  1.00  0.00     0.064 C 
BRANCH  16  19
HETATM   19  O2  UNL     1      25.002   2.635  52.181  1.00  0.00    -0.293 OA
BRANCH  19  20
HETATM   20  C7  UNL     1      25.560   1.431  52.575  1.00  0.00     0.109 A 
HETATM   21  C2  UNL     1      26.984   1.068  52.685  1.00  0.00     0.106 A 
HETATM   22  C3  UNL     1      27.123  -0.183  53.099  1.00  0.00    -0.011 A 
HETATM   23  C4  UNL     1      28.338  -0.997  53.360  1.00  0.00     0.049 C 
HETATM   24  C5  UNL     1      25.781  -0.763  53.300  1.00  0.00     0.275 A 
HETATM   25  C6  UNL     1      24.878   0.365  52.933  1.00  0.00     0.053 A 
BRANCH  21  26
HETATM   26  O1  UNL     1      27.963   2.027  52.361  1.00  0.00    -0.353 OA
HETATM   27  C1  UNL     1      28.639   2.619  53.473  1.00  0.00     0.210 C 
ENDBRANCH  21  26
BRANCH  24  28
HETATM   28  N1  UNL     1      25.587  -1.164  54.677  1.00  0.00     0.090 N 
HETATM   29  H8  UNL     1      26.438  -0.924  55.199  1.00  0.00     0.314 HD
HETATM   30  H9  UNL     1      25.393  -2.192  54.670  1.00  0.00     0.314 HD
ENDBRANCH  24  28
ENDBRANCH  19  20
ENDBRANCH  16  19
ENDBRANCH   4   6
ENDBRANCH   1   4
TORSDOF 6
ENDMDL
MODEL 7
REMARK VINA RESULT:      -7.1      2.431      2.997
REMARK  6 active torsions:
REMARK  status: ('A' for Active; 'I' for Inactive)
REMARK    1  A    between atoms: O1_2  and  C2_3 
REMARK    2  A    between atoms: C5_6  and  N1_7 
REMARK    3  A    between atoms: C7_9  and  O2_10 
REMARK    4  A    between atoms: O2_10  and  C8_11 
REMARK    5  A    between atoms: C13_20  and  N5_21 
REMARK    6  A    between atoms: N5_21  and  C14_22 
ROOT
HETATM    1  C14 UNL     1      25.883   7.250  49.949  1.00  0.00     0.188 C 
HETATM    2  C15 UNL     1      26.147   8.706  49.853  1.00  0.00     0.250 C 
HETATM    3  O4  UNL     1      26.304   9.907  49.918  1.00  0.00    -0.305 OA
ENDROOT
BRANCH   1   4
HETATM    4  N5  UNL     1      25.289   6.884  51.213  1.00  0.00    -0.387 N 
HETATM    5  H18 UNL     1      25.701   7.142  52.134  1.00  0.00     0.159 HD
BRANCH   4   6
HETATM    6  C13 UNL     1      24.084   6.137  51.271  1.00  0.00     0.004 C 
HETATM    7  C12 UNL     1      22.945   6.730  50.863  1.00  0.00     0.026 C 
HETATM    8  C11 UNL     1      21.508   6.362  50.741  1.00  0.00     0.230 C 
HETATM    9  O3  UNL     1      21.266   5.064  51.160  1.00  0.00    -0.280 OA
HETATM   10  N4  UNL     1      20.636   4.373  50.231  1.00  0.00    -0.282 N 
HETATM   11  C10 UNL     1      20.442   2.983  50.539  1.00  0.00     0.296 C 
HETATM   12  H14 UNL     1      20.872   4.550  49.252  1.00  0.00     0.189 HD
HETATM   13  N3  UNL     1      21.729   2.385  50.817  1.00  0.00    -0.262 NA
HETATM   14  C9  UNL     1      22.534   2.076  49.866  1.00  0.00     0.231 C 
HETATM   15  N2  UNL     1      23.408   1.622  50.894  1.00  0.00    -0.222 NA
HETATM   16  C8  UNL     1      24.379   2.346  51.392  1.00  0.00     0.147 C 
HETATM   17  C17 UNL     1      24.566   3.717  50.844  1.00  0.00     0.092 C 
HETATM   18  C16 UNL     1      24.016   4.754  51.800  1.00  0.00     0.064 C 
BRANCH  16  19
HETATM   19  O2  UNL     1      24.843   1.420  52.300  1.00  0.00    -0.293 OA
BRANCH  19  20
HETATM   20  C7  UNL     1      26.129   1.355  52.809  1.00  0.00     0.109 A 
HETATM   21  C2  UNL     1      27.144   0.306  52.614  1.00  0.00     0.106 A 
HETATM   22  C3  UNL     1      28.261   0.600  53.266  1.00  0.00    -0.011 A 
HETATM   23  C4  UNL     1      29.550  -0.131  53.377  1.00  0.00     0.049 C 
HETATM   24  C5  UNL     1      28.074   1.889  53.958  1.00  0.00     0.275 A 
HETATM   25  C6  UNL     1      26.679   2.262  53.586  1.00  0.00     0.053 A 
BRANCH  21  26
HETATM   26  O1  UNL     1      26.833  -0.810  51.813  1.00  0.00    -0.353 OA
HETATM   27  C1  UNL     1      26.519  -2.011  52.523  1.00  0.00     0.210 C 
ENDBRANCH  21  26
BRANCH  24  28
HETATM   28  N1  UNL     1      29.023   2.876  53.489  1.00  0.00     0.090 N 
HETATM   29  H8  UNL     1      29.456   3.313  54.310  1.00  0.00     0.314 HD
HETATM   30  H9  UNL     1      28.488   3.558  52.903  1.00  0.00     0.314 HD
ENDBRANCH  24  28
ENDBRANCH  19  20
ENDBRANCH  16  19
ENDBRANCH   4   6
ENDBRANCH   1   4
TORSDOF 6
ENDMDL
MODEL 8
REMARK VINA RESULT:      -7.1      3.455      4.782
REMARK  6 active torsions:
REMARK  status: ('A' for Active; 'I' for Inactive)
REMARK    1  A    between atoms: O1_2  and  C2_3 
REMARK    2  A    between atoms: C5_6  and  N1_7 
REMARK    3  A    between atoms: C7_9  and  O2_10 
REMARK    4  A    between atoms: O2_10  and  C8_11 
REMARK    5  A    between atoms: C13_20  and  N5_21 
REMARK    6  A    between atoms: N5_21  and  C14_22 
ROOT
HETATM    1  C14 UNL     1      27.574   5.791  48.379  1.00  0.00     0.188 C 
HETATM    2  C15 UNL     1      29.013   5.478  48.206  1.00  0.00     0.250 C 
HETATM    3  O4  UNL     1      30.168   5.108  48.169  1.00  0.00    -0.305 OA
ENDROOT
BRANCH   1   4
HETATM    4  N5  UNL     1      26.933   4.912  49.329  1.00  0.00    -0.387 N 
HETATM    5  H18 UNL     1      27.341   4.003  49.633  1.00  0.00     0.159 HD
BRANCH   4   6
HETATM    6  C13 UNL     1      25.686   5.247  49.916  1.00  0.00     0.004 C 
HETATM    7  C12 UNL     1      25.433   6.543  50.181  1.00  0.00     0.026 C 
HETATM    8  C11 UNL     1      24.316   7.340  50.761  1.00  0.00     0.230 C 
HETATM    9  O3  UNL     1      23.246   6.541  51.132  1.00  0.00    -0.280 OA
HETATM   10  N4  UNL     1      22.125   6.964  50.586  1.00  0.00    -0.282 N 
HETATM   11  C10 UNL     1      20.981   6.129  50.830  1.00  0.00     0.296 C 
HETATM   12  H14 UNL     1      22.161   7.347  49.639  1.00  0.00     0.189 HD
HETATM   13  N3  UNL     1      21.281   4.788  50.378  1.00  0.00    -0.262 NA
HETATM   14  C9  UNL     1      21.250   4.488  49.130  1.00  0.00     0.231 C 
HETATM   15  N2  UNL     1      21.616   3.176  49.544  1.00  0.00    -0.222 NA
HETATM   16  C8  UNL     1      22.850   2.737  49.551  1.00  0.00     0.147 C 
HETATM   17  C17 UNL     1      23.917   3.673  49.102  1.00  0.00     0.092 C 
HETATM   18  C16 UNL     1      24.670   4.234  50.289  1.00  0.00     0.064 C 
BRANCH  16  19
HETATM   19  O2  UNL     1      22.585   1.471  50.024  1.00  0.00    -0.293 OA
BRANCH  19  20
HETATM   20  C7  UNL     1      22.689   1.057  51.342  1.00  0.00     0.109 A 
HETATM   21  C2  UNL     1      21.657   0.450  52.199  1.00  0.00     0.106 A 
HETATM   22  C3  UNL     1      22.138   0.188  53.406  1.00  0.00    -0.011 A 
HETATM   23  C4  UNL     1      21.500  -0.415  54.605  1.00  0.00     0.049 C 
HETATM   24  C5  UNL     1      23.552   0.608  53.448  1.00  0.00     0.275 A 
HETATM   25  C6  UNL     1      23.777   1.142  52.075  1.00  0.00     0.053 A 
BRANCH  21  26
HETATM   26  O1  UNL     1      20.368   0.233  51.675  1.00  0.00    -0.353 OA
HETATM   27  C1  UNL     1      19.419   1.273  51.917  1.00  0.00     0.210 C 
ENDBRANCH  21  26
BRANCH  24  28
HETATM   28  N1  UNL     1      24.422  -0.516  53.722  1.00  0.00     0.090 N 
HETATM   29  H8  UNL     1      25.173  -0.191  54.342  1.00  0.00     0.314 HD
HETATM   30  H9  UNL     1      24.779  -0.857  52.800  1.00  0.00     0.314 HD
ENDBRANCH  24  28
ENDBRANCH  19  20
ENDBRANCH  16  19
ENDBRANCH   4   6
ENDBRANCH   1   4
TORSDOF 6
ENDMDL
MODEL 9
REMARK VINA RESULT:      -7.0      3.450      6.337
REMARK  6 active torsions:
REMARK  status: ('A' for Active; 'I' for Inactive)
REMARK    1  A    between atoms: O1_2  and  C2_3 
REMARK    2  A    between atoms: C5_6  and  N1_7 
REMARK    3  A    between atoms: C7_9  and  O2_10 
REMARK    4  A    between atoms: O2_10  and  C8_11 
REMARK    5  A    between atoms: C13_20  and  N5_21 
REMARK    6  A    between atoms: N5_21  and  C14_22 
ROOT
HETATM    1  C14 UNL     1      18.029   2.099  49.338  1.00  0.00     0.188 C 
HETATM    2  C15 UNL     1      18.464   3.429  49.829  1.00  0.00     0.250 C 
HETATM    3  O4  UNL     1      18.950   4.446  50.279  1.00  0.00    -0.305 OA
ENDROOT
BRANCH   1   4
HETATM    4  N5  UNL     1      19.010   1.073  49.598  1.00  0.00    -0.387 N 
HETATM    5  H18 UNL     1      19.477   0.524  48.845  1.00  0.00     0.159 HD
BRANCH   4   6
HETATM    6  C13 UNL     1      19.402   0.747  50.921  1.00  0.00     0.004 C 
HETATM    7  C12 UNL     1      18.628  -0.103  51.625  1.00  0.00     0.026 C 
HETATM    8  C11 UNL     1      18.636  -0.714  52.983  1.00  0.00     0.230 C 
HETATM    9  O3  UNL     1      19.727  -0.304  53.732  1.00  0.00    -0.280 OA
HETATM   10  N4  UNL     1      20.397  -1.337  54.200  1.00  0.00    -0.282 N 
HETATM   11  C10 UNL     1      21.609  -1.005  54.898  1.00  0.00     0.296 C 
HETATM   12  H14 UNL     1      20.474  -2.171  53.614  1.00  0.00     0.189 HD
HETATM   13  N3  UNL     1      22.450  -0.221  54.020  1.00  0.00    -0.262 NA
HETATM   14  C9  UNL     1      23.127  -0.778  53.082  1.00  0.00     0.231 C 
HETATM   15  N2  UNL     1      23.586   0.534  52.777  1.00  0.00    -0.222 NA
HETATM   16  C8  UNL     1      23.051   1.292  51.851  1.00  0.00     0.147 C 
HETATM   17  C17 UNL     1      21.901   0.736  51.087  1.00  0.00     0.092 C 
HETATM   18  C16 UNL     1      20.597   1.329  51.577  1.00  0.00     0.064 C 
BRANCH  16  19
HETATM   19  O2  UNL     1      23.875   2.382  52.016  1.00  0.00    -0.293 OA
BRANCH  19  20
HETATM   20  C7  UNL     1      24.344   3.208  51.007  1.00  0.00     0.109 A 
HETATM   21  C2  UNL     1      23.621   4.256  50.266  1.00  0.00     0.106 A 
HETATM   22  C3  UNL     1      24.411   4.833  49.372  1.00  0.00    -0.011 A 
HETATM   23  C4  UNL     1      24.152   5.926  48.399  1.00  0.00     0.049 C 
HETATM   24  C5  UNL     1      25.744   4.204  49.448  1.00  0.00     0.275 A 
HETATM   25  C6  UNL     1      25.567   3.189  50.525  1.00  0.00     0.053 A 
BRANCH  21  26
HETATM   26  O1  UNL     1      22.270   4.506  50.573  1.00  0.00    -0.353 OA
HETATM   27  C1  UNL     1      22.039   5.347  51.706  1.00  0.00     0.210 C 
ENDBRANCH  21  26
BRANCH  24  28
HETATM   28  N1  UNL     1      26.759   5.173  49.803  1.00  0.00     0.090 N 
HETATM   29  H8  UNL     1      27.397   4.731  50.474  1.00  0.00     0.314 HD
HETATM   30  H9  UNL     1      26.261   6.002  50.204  1.00  0.00     0.314 HD
ENDBRANCH  24  28
ENDBRANCH  19  20
ENDBRANCH  16  19
ENDBRANCH   4   6
ENDBRANCH   1   4
TORSDOF 6
ENDMDL
