MODEL 1
REMARK VINA RESULT:      -9.6      0.000      0.000
REMARK  3 active torsions:
REMARK  status: ('A' for Active; 'I' for Inactive)
REMARK    1  A    between atoms: P1_1  and  O1_2 
REMARK    2  A    between atoms: O1_2  and  C1_3 
REMARK    3  A    between atoms: C7_10  and  N2_11 
ROOT
HETATM    1  C1  UNL     1      20.062   0.022  52.935  1.00  0.00     0.073 A 
HETATM    2  C2  UNL     1      20.051  -1.049  53.815  1.00  0.00     0.037 A 
HETATM    3  C3  UNL     1      21.189  -1.638  54.331  1.00  0.00     0.004 A 
HETATM    4  C4  UNL     1      22.387  -1.080  53.907  1.00  0.00     0.015 A 
HETATM    5  C5  UNL     1      22.478  -0.014  53.033  1.00  0.00     0.014 A 
HETATM    6  C6  UNL     1      23.768   0.510  52.639  1.00  0.00     0.162 A 
HETATM    7  N1  UNL     1      24.922   0.009  53.084  1.00  0.00    -0.208 NA
HETATM    8  C7  UNL     1      26.081   0.543  52.678  1.00  0.00     0.165 A 
HETATM    9  C12 UNL     1      26.179   1.612  51.802  1.00  0.00     0.153 A 
HETATM   10  O3  UNL     1      27.111   2.331  51.238  1.00  0.00    -0.285 OA
HETATM   11  C13 UNL     1      26.594   3.256  50.463  1.00  0.00     0.182 A 
HETATM   12  N3  UNL     1      27.100   4.225  49.681  1.00  0.00    -0.236 NA
HETATM   13  C14 UNL     1      26.311   5.070  48.964  1.00  0.00     0.119 A 
HETATM   14  C15 UNL     1      24.934   4.966  49.010  1.00  0.00     0.020 A 
HETATM   15  C16 UNL     1      24.354   3.986  49.799  1.00  0.00     0.020 A 
HETATM   16  C17 UNL     1      25.218   3.161  50.502  1.00  0.00     0.049 A 
HETATM   17  C18 UNL     1      24.961   2.108  51.360  1.00  0.00     0.111 A 
HETATM   18  N4  UNL     1      23.811   1.559  51.779  1.00  0.00    -0.225 NA
HETATM   19  C19 UNL     1      21.295   0.516  52.564  1.00  0.00     0.052 A 
ENDROOT
BRANCH   8  20
HETATM   20  N2  UNL     1      27.309  -0.004  53.163  1.00  0.00    -0.359 N 
HETATM   21  C8  UNL     1      27.938  -1.204  52.650  1.00  0.00     0.151 C 
HETATM   22  C9  UNL     1      29.082  -1.523  53.606  1.00  0.00     0.187 C 
HETATM   23  O2  UNL     1      29.965  -0.466  53.658  1.00  0.00    -0.388 OA
HETATM   24  C10 UNL     1      29.430   0.724  54.084  1.00  0.00     0.187 C 
HETATM   25  C11 UNL     1      27.928   0.721  54.237  1.00  0.00     0.151 C 
ENDBRANCH   8  20
BRANCH   1  26
HETATM   26  O1  UNL     1      18.885   0.563  52.457  1.00  0.00    -0.330 OA
BRANCH  26  27
HETATM   27  P1  UNL     1      17.564  -0.486  52.001  1.00  0.00     0.009 P 
HETATM   28  H1  UNL     1      17.112  -0.046  50.690  1.00  0.00     0.085 HD
HETATM   29  H2  UNL     1      16.460  -0.298  52.931  1.00  0.00     0.085 HD
ENDBRANCH  26  27
ENDBRANCH   1  26
TORSDOF 3
ENDMDL
MODEL 2
REMARK VINA RESULT:      -9.2      2.349      5.723
REMARK  3 active torsions:
REMARK  status: ('A' for Active; 'I' for Inactive)
REMARK    1  A    between atoms: P1_1  and  O1_2 
REMARK    2  A    between atoms: O1_2  and  C1_3 
REMARK    3  A    between atoms: C7_10  and  N2_11 
ROOT
HETATM    1  C1  UNL     1      24.539   5.176  49.032  1.00  0.00     0.073 A 
HETATM    2  C2  UNL     1      25.804   5.521  48.583  1.00  0.00     0.037 A 
HETATM    3  C3  UNL     1      26.964   4.879  48.969  1.00  0.00     0.004 A 
HETATM    4  C4  UNL     1      26.790   3.832  49.863  1.00  0.00     0.015 A 
HETATM    5  C5  UNL     1      25.563   3.430  50.355  1.00  0.00     0.014 A 
HETATM    6  C6  UNL     1      25.467   2.326  51.286  1.00  0.00     0.162 A 
HETATM    7  N1  UNL     1      26.529   1.645  51.717  1.00  0.00    -0.208 NA
HETATM    8  C7  UNL     1      26.368   0.634  52.580  1.00  0.00     0.165 A 
HETATM    9  C12 UNL     1      25.141   0.226  53.078  1.00  0.00     0.153 A 
HETATM   10  O3  UNL     1      24.667  -0.679  53.891  1.00  0.00    -0.285 OA
HETATM   11  C13 UNL     1      23.361  -0.594  53.987  1.00  0.00     0.182 A 
HETATM   12  N3  UNL     1      22.418  -1.267  54.669  1.00  0.00    -0.236 NA
HETATM   13  C14 UNL     1      21.095  -0.959  54.582  1.00  0.00     0.119 A 
HETATM   14  C15 UNL     1      20.659   0.075  53.777  1.00  0.00     0.020 A 
HETATM   15  C16 UNL     1      21.585   0.806  53.050  1.00  0.00     0.020 A 
HETATM   16  C17 UNL     1      22.914   0.437  53.186  1.00  0.00     0.049 A 
HETATM   17  C18 UNL     1      24.058   0.955  52.608  1.00  0.00     0.111 A 
HETATM   18  N4  UNL     1      24.242   1.965  51.744  1.00  0.00    -0.225 NA
HETATM   19  C19 UNL     1      24.454   4.124  49.919  1.00  0.00     0.052 A 
ENDROOT
BRANCH   8  20
HETATM   20  N2  UNL     1      27.516  -0.087  53.033  1.00  0.00    -0.359 N 
HETATM   21  C8  UNL     1      27.920  -1.389  52.541  1.00  0.00     0.151 C 
HETATM   22  C9  UNL     1      29.046  -1.856  53.458  1.00  0.00     0.187 C 
HETATM   23  O2  UNL     1      30.086  -0.952  53.428  1.00  0.00    -0.388 OA
HETATM   24  C10 UNL     1      29.769   0.322  53.829  1.00  0.00     0.187 C 
HETATM   25  C11 UNL     1      28.295   0.564  54.047  1.00  0.00     0.151 C 
ENDBRANCH   8  20
BRANCH   1  26
HETATM   26  O1  UNL     1      23.419   5.861  48.605  1.00  0.00    -0.330 OA
BRANCH  26  27
HETATM   27  P1  UNL     1      21.879   5.588  49.383  1.00  0.00     0.009 P 
HETATM   28  H1  UNL     1      21.162   4.621  48.567  1.00  0.00     0.085 HD
HETATM   29  H2  UNL     1      21.111   6.826  49.373  1.00  0.00     0.085 HD
ENDBRANCH  26  27
ENDBRANCH   1  26
TORSDOF 3
ENDMDL
MODEL 3
REMARK VINA RESULT:      -8.8      3.134      7.160
REMARK  3 active torsions:
REMARK  status: ('A' for Active; 'I' for Inactive)
REMARK    1  A    between atoms: P1_1  and  O1_2 
REMARK    2  A    between atoms: O1_2  and  C1_3 
REMARK    3  A    between atoms: C7_10  and  N2_11 
ROOT
HETATM    1  C1  UNL     1      25.733   6.044  48.781  1.00  0.00     0.073 A 
HETATM    2  C2  UNL     1      24.538   6.342  48.145  1.00  0.00     0.037 A 
HETATM    3  C3  UNL     1      23.354   5.668  48.369  1.00  0.00     0.004 A 
HETATM    4  C4  UNL     1      23.427   4.638  49.298  1.00  0.00     0.015 A 
HETATM    5  C5  UNL     1      24.580   4.283  49.971  1.00  0.00     0.014 A 
HETATM    6  C6  UNL     1      24.572   3.196  50.925  1.00  0.00     0.162 A 
HETATM    7  N1  UNL     1      23.479   2.486  51.209  1.00  0.00    -0.208 NA
HETATM    8  C7  UNL     1      23.542   1.492  52.104  1.00  0.00     0.165 A 
HETATM    9  C12 UNL     1      24.695   1.130  52.782  1.00  0.00     0.153 A 
HETATM   10  O3  UNL     1      25.071   0.253  53.672  1.00  0.00    -0.285 OA
HETATM   11  C13 UNL     1      26.346   0.382  53.957  1.00  0.00     0.182 A 
HETATM   12  N3  UNL     1      27.199  -0.252  54.781  1.00  0.00    -0.236 NA
HETATM   13  C14 UNL     1      28.511   0.098  54.883  1.00  0.00     0.119 A 
HETATM   14  C15 UNL     1      29.028   1.135  54.132  1.00  0.00     0.020 A 
HETATM   15  C16 UNL     1      28.198   1.826  53.264  1.00  0.00     0.020 A 
HETATM   16  C17 UNL     1      26.874   1.416  53.212  1.00  0.00     0.049 A 
HETATM   17  C18 UNL     1      25.813   1.889  52.464  1.00  0.00     0.111 A 
HETATM   18  N4  UNL     1      25.727   2.881  51.564  1.00  0.00    -0.225 NA
HETATM   19  C19 UNL     1      25.719   5.007  49.689  1.00  0.00     0.052 A 
ENDROOT
BRANCH   8  20
HETATM   20  N2  UNL     1      22.363   0.741  52.397  1.00  0.00    -0.359 N 
HETATM   21  C8  UNL     1      21.899   0.420  53.732  1.00  0.00     0.151 C 
HETATM   22  C9  UNL     1      20.753  -0.571  53.554  1.00  0.00     0.187 C 
HETATM   23  O2  UNL     1      19.756  -0.008  52.788  1.00  0.00    -0.388 OA
HETATM   24  C10 UNL     1      20.131   0.375  51.524  1.00  0.00     0.187 C 
HETATM   25  C11 UNL     1      21.614   0.294  51.257  1.00  0.00     0.151 C 
ENDBRANCH   8  20
BRANCH   1  26
HETATM   26  O1  UNL     1      26.882   6.760  48.510  1.00  0.00    -0.330 OA
BRANCH  26  27
HETATM   27  P1  UNL     1      28.402   5.924  48.297  1.00  0.00     0.009 P 
HETATM   28  H1  UNL     1      28.079   4.549  47.948  1.00  0.00     0.085 HD
HETATM   29  H2  UNL     1      29.117   5.898  49.566  1.00  0.00     0.085 HD
ENDBRANCH  26  27
ENDBRANCH   1  26
TORSDOF 3
ENDMDL
MODEL 4
REMARK VINA RESULT:      -8.4      4.133      8.547
REMARK  3 active torsions:
REMARK  status: ('A' for Active; 'I' for Inactive)
REMARK    1  A    between atoms: P1_1  and  O1_2 
REMARK    2  A    between atoms: O1_2  and  C1_3 
REMARK    3  A    between atoms: C7_10  and  N2_11 
ROOT
HETATM    1  C1  UNL     1      28.814   5.824  48.189  1.00  0.00     0.073 A 
HETATM    2  C2  UNL     1      28.285   6.953  47.583  1.00  0.00     0.037 A 
HETATM    3  C3  UNL     1      26.954   7.317  47.653  1.00  0.00     0.004 A 
HETATM    4  C4  UNL     1      26.147   6.461  48.390  1.00  0.00     0.015 A 
HETATM    5  C5  UNL     1      26.600   5.319  49.021  1.00  0.00     0.014 A 
HETATM    6  C6  UNL     1      25.691   4.479  49.770  1.00  0.00     0.162 A 
HETATM    7  N1  UNL     1      24.391   4.748  49.896  1.00  0.00    -0.208 NA
HETATM    8  C7  UNL     1      23.606   3.926  50.605  1.00  0.00     0.165 A 
HETATM    9  C12 UNL     1      24.054   2.780  51.240  1.00  0.00     0.153 A 
HETATM   10  O3  UNL     1      23.569   1.814  51.973  1.00  0.00    -0.285 OA
HETATM   11  C13 UNL     1      24.505   0.958  52.310  1.00  0.00     0.182 A 
HETATM   12  N3  UNL     1      24.533  -0.175  53.034  1.00  0.00    -0.236 NA
HETATM   13  C14 UNL     1      25.676  -0.888  53.230  1.00  0.00     0.119 A 
HETATM   14  C15 UNL     1      26.875  -0.469  52.686  1.00  0.00     0.020 A 
HETATM   15  C16 UNL     1      26.909   0.692  51.930  1.00  0.00     0.020 A 
HETATM   16  C17 UNL     1      25.708   1.366  51.772  1.00  0.00     0.049 A 
HETATM   17  C18 UNL     1      25.412   2.531  51.089  1.00  0.00     0.111 A 
HETATM   18  N4  UNL     1      26.180   3.367  50.375  1.00  0.00    -0.225 NA
HETATM   19  C19 UNL     1      27.943   5.028  48.901  1.00  0.00     0.052 A 
ENDROOT
BRANCH   8  20
HETATM   20  N2  UNL     1      22.215   4.227  50.731  1.00  0.00    -0.359 N 
HETATM   21  C8  UNL     1      21.322   4.485  49.618  1.00  0.00     0.151 C 
HETATM   22  C9  UNL     1      20.014   4.975  50.232  1.00  0.00     0.187 C 
HETATM   23  O2  UNL     1      19.505   4.022  51.086  1.00  0.00    -0.388 OA
HETATM   24  C10 UNL     1      20.318   3.682  52.138  1.00  0.00     0.187 C 
HETATM   25  C11 UNL     1      21.708   4.265  52.073  1.00  0.00     0.151 C 
ENDBRANCH   8  20
BRANCH   1  26
HETATM   26  O1  UNL     1      30.156   5.518  48.078  1.00  0.00    -0.330 OA
BRANCH  26  27
HETATM   27  P1  UNL     1      31.348   6.525  48.865  1.00  0.00     0.009 P 
HETATM   28  H1  UNL     1      31.852   5.767  50.001  1.00  0.00     0.085 HD
HETATM   29  H2  UNL     1      30.697   7.718  49.388  1.00  0.00     0.085 HD
ENDBRANCH  26  27
ENDBRANCH   1  26
TORSDOF 3
ENDMDL
MODEL 5
REMARK VINA RESULT:      -8.4      1.206      1.664
REMARK  3 active torsions:
REMARK  status: ('A' for Active; 'I' for Inactive)
REMARK    1  A    between atoms: P1_1  and  O1_2 
REMARK    2  A    between atoms: O1_2  and  C1_3 
REMARK    3  A    between atoms: C7_10  and  N2_11 
ROOT
HETATM    1  C1  UNL     1      18.911  -0.305  52.604  1.00  0.00     0.073 A 
HETATM    2  C2  UNL     1      18.987  -1.354  53.508  1.00  0.00     0.037 A 
HETATM    3  C3  UNL     1      20.161  -1.790  54.090  1.00  0.00     0.004 A 
HETATM    4  C4  UNL     1      21.302  -1.097  53.709  1.00  0.00     0.015 A 
HETATM    5  C5  UNL     1      21.306  -0.044  52.815  1.00  0.00     0.014 A 
HETATM    6  C6  UNL     1      22.541   0.627  52.470  1.00  0.00     0.162 A 
HETATM    7  N1  UNL     1      23.723   0.279  52.980  1.00  0.00    -0.208 NA
HETATM    8  C7  UNL     1      24.828   0.943  52.617  1.00  0.00     0.165 A 
HETATM    9  C12 UNL     1      24.839   2.000  51.721  1.00  0.00     0.153 A 
HETATM   10  O3  UNL     1      25.703   2.817  51.184  1.00  0.00    -0.285 OA
HETATM   11  C13 UNL     1      25.116   3.658  50.364  1.00  0.00     0.182 A 
HETATM   12  N3  UNL     1      25.539   4.668  49.583  1.00  0.00    -0.236 NA
HETATM   13  C14 UNL     1      24.690   5.397  48.810  1.00  0.00     0.119 A 
HETATM   14  C15 UNL     1      23.335   5.126  48.795  1.00  0.00     0.020 A 
HETATM   15  C16 UNL     1      22.840   4.097  49.578  1.00  0.00     0.020 A 
HETATM   16  C17 UNL     1      23.762   3.396  50.341  1.00  0.00     0.049 A 
HETATM   17  C18 UNL     1      23.592   2.336  51.211  1.00  0.00     0.111 A 
HETATM   18  N4  UNL     1      22.499   1.657  51.588  1.00  0.00    -0.225 NA
HETATM   19  C19 UNL     1      20.091   0.329  52.279  1.00  0.00     0.052 A 
ENDROOT
BRANCH   8  20
HETATM   20  N2  UNL     1      26.087   0.559  53.172  1.00  0.00    -0.359 N 
HETATM   21  C8  UNL     1      26.473   0.752  54.555  1.00  0.00     0.151 C 
HETATM   22  C9  UNL     1      27.957   0.406  54.631  1.00  0.00     0.187 C 
HETATM   23  O2  UNL     1      28.162  -0.893  54.220  1.00  0.00    -0.388 OA
HETATM   24  C10 UNL     1      27.769  -1.171  52.934  1.00  0.00     0.187 C 
HETATM   25  C11 UNL     1      27.003  -0.061  52.257  1.00  0.00     0.151 C 
ENDBRANCH   8  20
BRANCH   1  26
HETATM   26  O1  UNL     1      17.702   0.079  52.058  1.00  0.00    -0.330 OA
BRANCH  26  27
HETATM   27  P1  UNL     1      17.399  -0.158  50.353  1.00  0.00     0.009 P 
HETATM   28  H1  UNL     1      16.590   0.966  49.911  1.00  0.00     0.085 HD
HETATM   29  H2  UNL     1      16.607  -1.367  50.171  1.00  0.00     0.085 HD
ENDBRANCH  26  27
ENDBRANCH   1  26
TORSDOF 3
ENDMDL
MODEL 6
REMARK VINA RESULT:      -8.3      3.455      6.648
REMARK  3 active torsions:
REMARK  status: ('A' for Active; 'I' for Inactive)
REMARK    1  A    between atoms: P1_1  and  O1_2 
REMARK    2  A    between atoms: O1_2  and  C1_3 
REMARK    3  A    between atoms: C7_10  and  N2_11 
ROOT
HETATM    1  C1  UNL     1      26.721  -0.164  52.672  1.00  0.00     0.073 A 
HETATM    2  C2  UNL     1      25.674  -0.811  53.309  1.00  0.00     0.037 A 
HETATM    3  C3  UNL     1      24.361  -0.384  53.269  1.00  0.00     0.004 A 
HETATM    4  C4  UNL     1      24.138   0.769  52.529  1.00  0.00     0.015 A 
HETATM    5  C5  UNL     1      25.128   1.468  51.868  1.00  0.00     0.014 A 
HETATM    6  C6  UNL     1      24.812   2.664  51.117  1.00  0.00     0.162 A 
HETATM    7  N1  UNL     1      23.575   3.154  51.018  1.00  0.00    -0.208 NA
HETATM    8  C7  UNL     1      23.353   4.266  50.307  1.00  0.00     0.165 A 
HETATM    9  C12 UNL     1      24.341   4.972  49.641  1.00  0.00     0.153 A 
HETATM   10  O3  UNL     1      24.448   6.040  48.896  1.00  0.00    -0.285 OA
HETATM   11  C13 UNL     1      25.691   6.238  48.526  1.00  0.00     0.182 A 
HETATM   12  N3  UNL     1      26.319   7.163  47.779  1.00  0.00    -0.236 NA
HETATM   13  C14 UNL     1      27.660   7.128  47.548  1.00  0.00     0.119 A 
HETATM   14  C15 UNL     1      28.445   6.124  48.080  1.00  0.00     0.020 A 
HETATM   15  C16 UNL     1      27.855   5.141  48.859  1.00  0.00     0.020 A 
HETATM   16  C17 UNL     1      26.485   5.239  49.052  1.00  0.00     0.049 A 
HETATM   17  C18 UNL     1      25.615   4.435  49.763  1.00  0.00     0.111 A 
HETATM   18  N4  UNL     1      25.815   3.319  50.481  1.00  0.00    -0.225 NA
HETATM   19  C19 UNL     1      26.413   0.975  51.958  1.00  0.00     0.052 A 
ENDROOT
BRANCH   8  20
HETATM   20  N2  UNL     1      22.022   4.779  50.211  1.00  0.00    -0.359 N 
HETATM   21  C8  UNL     1      21.441   5.348  49.012  1.00  0.00     0.151 C 
HETATM   22  C9  UNL     1      20.110   5.959  49.437  1.00  0.00     0.187 C 
HETATM   23  O2  UNL     1      19.299   4.990  49.987  1.00  0.00    -0.388 OA
HETATM   24  C10 UNL     1      19.805   4.363  51.099  1.00  0.00     0.187 C 
HETATM   25  C11 UNL     1      21.242   4.703  51.413  1.00  0.00     0.151 C 
ENDBRANCH   8  20
BRANCH   1  26
HETATM   26  O1  UNL     1      28.012  -0.646  52.753  1.00  0.00    -0.330 OA
BRANCH  26  27
HETATM   27  P1  UNL     1      29.047  -0.150  54.071  1.00  0.00     0.009 P 
HETATM   28  H1  UNL     1      29.651  -1.359  54.609  1.00  0.00     0.085 HD
HETATM   29  H2  UNL     1      28.232   0.440  55.125  1.00  0.00     0.085 HD
ENDBRANCH  26  27
ENDBRANCH   1  26
TORSDOF 3
ENDMDL
MODEL 7
REMARK VINA RESULT:      -8.1      3.544      6.641
REMARK  3 active torsions:
REMARK  status: ('A' for Active; 'I' for Inactive)
REMARK    1  A    between atoms: P1_1  and  O1_2 
REMARK    2  A    between atoms: O1_2  and  C1_3 
REMARK    3  A    between atoms: C7_10  and  N2_11 
ROOT
HETATM    1  C1  UNL     1      25.894   6.953  47.919  1.00  0.00     0.073 A 
HETATM    2  C2  UNL     1      27.266   6.955  47.725  1.00  0.00     0.037 A 
HETATM    3  C3  UNL     1      28.132   6.055  48.314  1.00  0.00     0.004 A 
HETATM    4  C4  UNL     1      27.533   5.114  49.140  1.00  0.00     0.015 A 
HETATM    5  C5  UNL     1      26.175   5.048  49.382  1.00  0.00     0.014 A 
HETATM    6  C6  UNL     1      25.630   4.034  50.258  1.00  0.00     0.162 A 
HETATM    7  N1  UNL     1      26.385   3.121  50.871  1.00  0.00    -0.208 NA
HETATM    8  C7  UNL     1      25.814   2.211  51.670  1.00  0.00     0.165 A 
HETATM    9  C12 UNL     1      24.453   2.139  51.917  1.00  0.00     0.153 A 
HETATM   10  O3  UNL     1      23.621   1.408  52.609  1.00  0.00    -0.285 OA
HETATM   11  C13 UNL     1      22.385   1.822  52.456  1.00  0.00     0.182 A 
HETATM   12  N3  UNL     1      21.191   1.428  52.934  1.00  0.00    -0.236 NA
HETATM   13  C14 UNL     1      20.030   2.055  52.602  1.00  0.00     0.119 A 
HETATM   14  C15 UNL     1      20.029   3.139  51.746  1.00  0.00     0.020 A 
HETATM   15  C16 UNL     1      21.229   3.592  51.222  1.00  0.00     0.020 A 
HETATM   16  C17 UNL     1      22.372   2.906  51.603  1.00  0.00     0.049 A 
HETATM   17  C18 UNL     1      23.697   3.102  51.263  1.00  0.00     0.111 A 
HETATM   18  N4  UNL     1      24.290   4.005  50.467  1.00  0.00    -0.225 NA
HETATM   19  C19 UNL     1      25.380   5.984  48.755  1.00  0.00     0.052 A 
ENDROOT
BRANCH   8  20
HETATM   20  N2  UNL     1      26.636   1.240  52.320  1.00  0.00    -0.359 N 
HETATM   21  C8  UNL     1      26.707  -0.161  51.954  1.00  0.00     0.151 C 
HETATM   22  C9  UNL     1      27.522  -0.843  53.049  1.00  0.00     0.187 C 
HETATM   23  O2  UNL     1      28.773  -0.272  53.132  1.00  0.00    -0.388 OA
HETATM   24  C10 UNL     1      28.789   1.070  53.422  1.00  0.00     0.187 C 
HETATM   25  C11 UNL     1      27.433   1.732  53.408  1.00  0.00     0.151 C 
ENDBRANCH   8  20
BRANCH   1  26
HETATM   26  O1  UNL     1      25.084   7.883  47.298  1.00  0.00    -0.330 OA
BRANCH  26  27
HETATM   27  P1  UNL     1      25.641   8.701  45.857  1.00  0.00     0.009 P 
HETATM   28  H1  UNL     1      24.961   9.987  45.815  1.00  0.00     0.085 HD
HETATM   29  H2  UNL     1      25.222   7.945  44.685  1.00  0.00     0.085 HD
ENDBRANCH  26  27
ENDBRANCH   1  26
TORSDOF 3
ENDMDL
MODEL 8
REMARK VINA RESULT:      -8.0      3.331      6.174
REMARK  3 active torsions:
REMARK  status: ('A' for Active; 'I' for Inactive)
REMARK    1  A    between atoms: P1_1  and  O1_2 
REMARK    2  A    between atoms: O1_2  and  C1_3 
REMARK    3  A    between atoms: C7_10  and  N2_11 
ROOT
HETATM    1  C1  UNL     1      26.390  -0.185  54.227  1.00  0.00     0.073 A 
HETATM    2  C2  UNL     1      27.659   0.206  54.625  1.00  0.00     0.037 A 
HETATM    3  C3  UNL     1      28.354   1.261  54.066  1.00  0.00     0.004 A 
HETATM    4  C4  UNL     1      27.691   1.931  53.048  1.00  0.00     0.015 A 
HETATM    5  C5  UNL     1      26.428   1.601  52.597  1.00  0.00     0.014 A 
HETATM    6  C6  UNL     1      25.805   2.352  51.528  1.00  0.00     0.162 A 
HETATM    7  N1  UNL     1      26.397   3.386  50.927  1.00  0.00    -0.208 NA
HETATM    8  C7  UNL     1      25.762   4.037  49.944  1.00  0.00     0.165 A 
HETATM    9  C12 UNL     1      24.496   3.711  49.487  1.00  0.00     0.153 A 
HETATM   10  O3  UNL     1      23.642   4.127  48.591  1.00  0.00    -0.285 OA
HETATM   11  C13 UNL     1      22.548   3.402  48.606  1.00  0.00     0.182 A 
HETATM   12  N3  UNL     1      21.398   3.413  47.908  1.00  0.00    -0.236 NA
HETATM   13  C14 UNL     1      20.398   2.518  48.136  1.00  0.00     0.119 A 
HETATM   14  C15 UNL     1      20.524   1.547  49.111  1.00  0.00     0.020 A 
HETATM   15  C16 UNL     1      21.686   1.486  49.863  1.00  0.00     0.020 A 
HETATM   16  C17 UNL     1      22.662   2.428  49.576  1.00  0.00     0.049 A 
HETATM   17  C18 UNL     1      23.910   2.632  50.135  1.00  0.00     0.111 A 
HETATM   18  N4  UNL     1      24.563   1.994  51.117  1.00  0.00    -0.225 NA
HETATM   19  C19 UNL     1      25.803   0.535  53.208  1.00  0.00     0.052 A 
ENDROOT
BRANCH   8  20
HETATM   20  N2  UNL     1      26.409   5.143  49.309  1.00  0.00    -0.359 N 
HETATM   21  C8  UNL     1      27.633   5.052  48.539  1.00  0.00     0.151 C 
HETATM   22  C9  UNL     1      28.061   6.488  48.256  1.00  0.00     0.187 C 
HETATM   23  O2  UNL     1      27.069   7.149  47.564  1.00  0.00    -0.388 OA
HETATM   24  C10 UNL     1      25.858   7.230  48.206  1.00  0.00     0.187 C 
HETATM   25  C11 UNL     1      25.763   6.414  49.472  1.00  0.00     0.151 C 
ENDBRANCH   8  20
BRANCH   1  26
HETATM   26  O1  UNL     1      25.751  -1.250  54.830  1.00  0.00    -0.330 OA
BRANCH  26  27
HETATM   27  P1  UNL     1      24.053  -1.138  55.227  1.00  0.00     0.009 P 
HETATM   28  H1  UNL     1      23.596  -2.491  55.501  1.00  0.00     0.085 HD
HETATM   29  H2  UNL     1      23.320  -0.654  54.065  1.00  0.00     0.085 HD
ENDBRANCH  26  27
ENDBRANCH   1  26
TORSDOF 3
ENDMDL
MODEL 9
REMARK VINA RESULT:      -8.0      4.447      9.150
REMARK  3 active torsions:
REMARK  status: ('A' for Active; 'I' for Inactive)
REMARK    1  A    between atoms: P1_1  and  O1_2 
REMARK    2  A    between atoms: O1_2  and  C1_3 
REMARK    3  A    between atoms: C7_10  and  N2_11 
ROOT
HETATM    1  C1  UNL     1      29.810   5.867  47.947  1.00  0.00     0.073 A 
HETATM    2  C2  UNL     1      29.519   7.031  47.254  1.00  0.00     0.037 A 
HETATM    3  C3  UNL     1      28.256   7.583  47.166  1.00  0.00     0.004 A 
HETATM    4  C4  UNL     1      27.259   6.885  47.834  1.00  0.00     0.015 A 
HETATM    5  C5  UNL     1      27.472   5.721  48.545  1.00  0.00     0.014 A 
HETATM    6  C6  UNL     1      26.376   5.053  49.214  1.00  0.00     0.162 A 
HETATM    7  N1  UNL     1      25.123   5.509  49.187  1.00  0.00    -0.208 NA
HETATM    8  C7  UNL     1      24.156   4.841  49.829  1.00  0.00     0.165 A 
HETATM    9  C12 UNL     1      24.363   3.672  50.543  1.00  0.00     0.153 A 
HETATM   10  O3  UNL     1      23.667   2.820  51.247  1.00  0.00    -0.285 OA
HETATM   11  C13 UNL     1      24.427   1.855  51.711  1.00  0.00     0.182 A 
HETATM   12  N3  UNL     1      24.213   0.763  52.466  1.00  0.00    -0.236 NA
HETATM   13  C14 UNL     1      25.212  -0.095  52.808  1.00  0.00     0.119 A 
HETATM   14  C15 UNL     1      26.510   0.124  52.388  1.00  0.00     0.020 A 
HETATM   15  C16 UNL     1      26.793   1.233  51.606  1.00  0.00     0.020 A 
HETATM   16  C17 UNL     1      25.727   2.063  51.296  1.00  0.00     0.049 A 
HETATM   17  C18 UNL     1      25.677   3.226  50.551  1.00  0.00     0.111 A 
HETATM   18  N4  UNL     1      26.630   3.912  49.901  1.00  0.00    -0.225 NA
HETATM   19  C19 UNL     1      28.762   5.236  48.582  1.00  0.00     0.052 A 
ENDROOT
BRANCH   8  20
HETATM   20  N2  UNL     1      22.818   5.342  49.791  1.00  0.00    -0.359 N 
HETATM   21  C8  UNL     1      22.042   5.710  50.958  1.00  0.00     0.151 C 
HETATM   22  C9  UNL     1      20.624   5.966  50.457  1.00  0.00     0.187 C 
HETATM   23  O2  UNL     1      20.630   6.968  49.511  1.00  0.00    -0.388 OA
HETATM   24  C10 UNL     1      21.390   6.717  48.396  1.00  0.00     0.187 C 
HETATM   25  C11 UNL     1      22.244   5.475  48.483  1.00  0.00     0.151 C 
ENDBRANCH   8  20
BRANCH   1  26
HETATM   26  O1  UNL     1      31.098   5.369  47.994  1.00  0.00    -0.330 OA
BRANCH  26  27
HETATM   27  P1  UNL     1      32.410   6.392  48.528  1.00  0.00     0.009 P 
HETATM   28  H1  UNL     1      32.222   6.607  49.954  1.00  0.00     0.085 HD
HETATM   29  H2  UNL     1      32.304   7.688  47.872  1.00  0.00     0.085 HD
ENDBRANCH  26  27
ENDBRANCH   1  26
TORSDOF 3
ENDMDL
