MODEL 1
REMARK VINA RESULT:      -9.0      0.000      0.000
REMARK  3 active torsions:
REMARK  status: ('A' for Active; 'I' for Inactive)
REMARK    1  A    between atoms: C4_4  and  C5_5 
REMARK    2  A    between atoms: C9_10  and  C10_11 
REMARK       I    between atoms: C10_11  and  N2_13 
REMARK    3  A    between atoms: N2_13  and  C11_14 
ROOT
HETATM    1  C5  UNL     1      27.268   1.773  52.465  1.00  0.00     0.011 C 
HETATM    2  C6  UNL     1      27.432   0.490  52.818  1.00  0.00     0.093 C 
HETATM    3  C7  UNL     1      28.055   0.135  54.040  1.00  0.00     0.087 C 
HETATM    4  N1  UNL     1      28.567  -0.137  55.037  1.00  0.00    -0.192 NA
ENDROOT
BRANCH   1   5
HETATM    5  C4  UNL     1      26.619   2.055  51.197  1.00  0.00     0.006 C 
HETATM    6  C3  UNL     1      25.309   2.065  51.207  1.00  0.00    -0.049 A 
HETATM    7  C2  UNL     1      24.233   1.894  52.041  1.00  0.00     0.026 A 
HETATM    8  C8  UNL     1      23.967   2.218  50.577  1.00  0.00     0.050 A 
HETATM    9  C1  UNL     1      23.961   3.288  52.862  1.00  0.00     0.027 C 
HETATM   10  C22 UNL     1      23.122   1.039  52.358  1.00  0.00    -0.033 A 
HETATM   11  C16 UNL     1      22.151   1.446  51.474  1.00  0.00    -0.014 A 
HETATM   12  C21 UNL     1      22.999   0.178  53.424  1.00  0.00     0.011 A 
HETATM   13  C9  UNL     1      22.694   2.205  50.331  1.00  0.00     0.036 C 
HETATM   14  C17 UNL     1      20.900   0.885  51.756  1.00  0.00     0.035 A 
HETATM   15  C18 UNL     1      20.658   0.009  52.805  1.00  0.00     0.045 A 
HETATM   16  C19 UNL     1      19.356  -0.539  53.054  1.00  0.00     0.099 C 
HETATM   17  C20 UNL     1      21.722  -0.345  53.642  1.00  0.00     0.023 A 
HETATM   18  N3  UNL     1      18.310  -0.996  53.255  1.00  0.00    -0.191 NA
BRANCH  13  19
HETATM   19  C10 UNL     1      22.018   2.491  49.102  1.00  0.00     0.254 C 
HETATM   20  O1  UNL     1      21.929   1.428  48.386  1.00  0.00    -0.268 OA
HETATM   21  N2  UNL     1      21.432   3.571  48.450  1.00  0.00    -0.322 N 
HETATM   22  H7  UNL     1      21.523   4.428  49.023  1.00  0.00     0.169 HD
BRANCH  21  23
HETATM   23  C11 UNL     1      20.826   3.488  47.191  1.00  0.00     0.053 C 
HETATM   24  C12 UNL     1      19.560   3.215  47.075  1.00  0.00     0.051 C 
HETATM   25  S1  UNL     1      18.875   3.748  45.719  1.00  0.00    -0.098 SA
HETATM   26  C13 UNL     1      19.901   4.008  44.478  1.00  0.00     0.050 C 
HETATM   27  C14 UNL     1      21.303   3.961  44.825  1.00  0.00     0.009 C 
HETATM   28  C15 UNL     1      21.703   3.723  46.062  1.00  0.00     0.031 C 
ENDBRANCH  21  23
ENDBRANCH  13  19
ENDBRANCH   1   5
TORSDOF 3
ENDMDL
MODEL 2
REMARK VINA RESULT:      -8.7      3.464      6.503
REMARK  3 active torsions:
REMARK  status: ('A' for Active; 'I' for Inactive)
REMARK    1  A    between atoms: C4_4  and  C5_5 
REMARK    2  A    between atoms: C9_10  and  C10_11 
REMARK       I    between atoms: C10_11  and  N2_13 
REMARK    3  A    between atoms: N2_13  and  C11_14 
ROOT
HETATM    1  C5  UNL     1      19.063   1.516  52.349  1.00  0.00     0.011 C 
HETATM    2  C6  UNL     1      18.367   0.708  51.536  1.00  0.00     0.093 C 
HETATM    3  C7  UNL     1      17.560  -0.338  52.049  1.00  0.00     0.087 C 
HETATM    4  N1  UNL     1      16.911  -1.185  52.483  1.00  0.00    -0.192 NA
ENDROOT
BRANCH   1   5
HETATM    5  C4  UNL     1      19.866   2.565  51.747  1.00  0.00     0.006 C 
HETATM    6  C3  UNL     1      21.127   2.280  51.537  1.00  0.00    -0.049 A 
HETATM    7  C2  UNL     1      22.048   1.272  51.690  1.00  0.00     0.026 A 
HETATM    8  C8  UNL     1      22.509   2.585  51.070  1.00  0.00     0.050 A 
HETATM    9  C1  UNL     1      21.903   0.219  50.440  1.00  0.00     0.027 C 
HETATM   10  C22 UNL     1      23.222   0.858  52.407  1.00  0.00    -0.033 A 
HETATM   11  C16 UNL     1      24.244   1.451  51.703  1.00  0.00    -0.014 A 
HETATM   12  C21 UNL     1      23.308  -0.072  53.416  1.00  0.00     0.011 A 
HETATM   13  C9  UNL     1      23.785   2.558  50.843  1.00  0.00     0.036 C 
HETATM   14  C17 UNL     1      25.505   0.998  52.107  1.00  0.00     0.035 A 
HETATM   15  C18 UNL     1      25.712   0.060  53.110  1.00  0.00     0.045 A 
HETATM   16  C19 UNL     1      27.027  -0.373  53.488  1.00  0.00     0.099 C 
HETATM   17  C20 UNL     1      24.599  -0.474  53.768  1.00  0.00     0.023 A 
HETATM   18  N3  UNL     1      28.085  -0.719  53.807  1.00  0.00    -0.191 NA
BRANCH  13  19
HETATM   19  C10 UNL     1      24.608   3.563  50.240  1.00  0.00     0.254 C 
HETATM   20  O1  UNL     1      24.077   3.974  49.145  1.00  0.00    -0.268 OA
HETATM   21  N2  UNL     1      25.807   4.225  50.481  1.00  0.00    -0.322 N 
HETATM   22  H7  UNL     1      26.239   3.877  51.354  1.00  0.00     0.169 HD
BRANCH  21  23
HETATM   23  C11 UNL     1      26.340   5.207  49.638  1.00  0.00     0.053 C 
HETATM   24  C12 UNL     1      25.812   6.393  49.575  1.00  0.00     0.051 C 
HETATM   25  S1  UNL     1      26.818   7.558  49.103  1.00  0.00    -0.098 SA
HETATM   26  C13 UNL     1      28.108   7.054  48.242  1.00  0.00     0.050 C 
HETATM   27  C14 UNL     1      28.309   5.624  48.223  1.00  0.00     0.009 C 
HETATM   28  C15 UNL     1      27.496   4.801  48.863  1.00  0.00     0.031 C 
ENDBRANCH  21  23
ENDBRANCH  13  19
ENDBRANCH   1   5
TORSDOF 3
ENDMDL
MODEL 3
REMARK VINA RESULT:      -8.3      4.408      9.058
REMARK  3 active torsions:
REMARK  status: ('A' for Active; 'I' for Inactive)
REMARK    1  A    between atoms: C4_4  and  C5_5 
REMARK    2  A    between atoms: C9_10  and  C10_11 
REMARK       I    between atoms: C10_11  and  N2_13 
REMARK    3  A    between atoms: N2_13  and  C11_14 
ROOT
HETATM    1  C5  UNL     1      20.971   3.146  47.054  1.00  0.00     0.011 C 
HETATM    2  C6  UNL     1      19.731   3.281  47.547  1.00  0.00     0.093 C 
HETATM    3  C7  UNL     1      18.740   4.024  46.858  1.00  0.00     0.087 C 
HETATM    4  N1  UNL     1      17.947   4.635  46.286  1.00  0.00    -0.192 NA
ENDROOT
BRANCH   1   5
HETATM    5  C4  UNL     1      21.930   2.369  47.819  1.00  0.00     0.006 C 
HETATM    6  C3  UNL     1      22.789   3.052  48.534  1.00  0.00    -0.049 A 
HETATM    7  C2  UNL     1      23.149   4.338  48.854  1.00  0.00     0.026 A 
HETATM    8  C8  UNL     1      23.936   3.191  49.475  1.00  0.00     0.050 A 
HETATM    9  C1  UNL     1      22.161   4.892  50.042  1.00  0.00     0.027 C 
HETATM   10  C22 UNL     1      24.165   5.341  48.700  1.00  0.00    -0.033 A 
HETATM   11  C16 UNL     1      25.069   5.026  49.688  1.00  0.00    -0.014 A 
HETATM   12  C21 UNL     1      24.130   6.460  47.902  1.00  0.00     0.011 A 
HETATM   13  C9  UNL     1      24.919   3.646  50.187  1.00  0.00     0.036 C 
HETATM   14  C17 UNL     1      26.043   6.017  49.859  1.00  0.00     0.035 A 
HETATM   15  C18 UNL     1      26.103   7.187  49.114  1.00  0.00     0.045 A 
HETATM   16  C19 UNL     1      27.123   8.173  49.328  1.00  0.00     0.099 C 
HETATM   17  C20 UNL     1      25.135   7.403  48.127  1.00  0.00     0.023 A 
HETATM   18  N3  UNL     1      27.949   8.970  49.486  1.00  0.00    -0.191 NA
BRANCH  13  19
HETATM   19  C10 UNL     1      25.874   2.915  50.964  1.00  0.00     0.254 C 
HETATM   20  O1  UNL     1      26.852   2.534  50.224  1.00  0.00    -0.268 OA
HETATM   21  N2  UNL     1      26.060   2.493  52.277  1.00  0.00    -0.322 N 
HETATM   22  H7  UNL     1      25.261   2.786  52.864  1.00  0.00     0.169 HD
BRANCH  21  23
HETATM   23  C11 UNL     1      27.171   1.761  52.711  1.00  0.00     0.053 C 
HETATM   24  C12 UNL     1      28.198   2.356  53.241  1.00  0.00     0.051 C 
HETATM   25  S1  UNL     1      29.077   1.437  54.229  1.00  0.00    -0.098 SA
HETATM   26  C13 UNL     1      28.940  -0.170  53.988  1.00  0.00     0.050 C 
HETATM   27  C14 UNL     1      27.876  -0.565  53.094  1.00  0.00     0.009 C 
HETATM   28  C15 UNL     1      27.084   0.326  52.524  1.00  0.00     0.031 C 
ENDBRANCH  21  23
ENDBRANCH  13  19
ENDBRANCH   1   5
TORSDOF 3
ENDMDL
MODEL 4
REMARK VINA RESULT:      -8.3      3.416      6.252
REMARK  3 active torsions:
REMARK  status: ('A' for Active; 'I' for Inactive)
REMARK    1  A    between atoms: C4_4  and  C5_5 
REMARK    2  A    between atoms: C9_10  and  C10_11 
REMARK       I    between atoms: C10_11  and  N2_13 
REMARK    3  A    between atoms: N2_13  and  C11_14 
ROOT
HETATM    1  C5  UNL     1      24.298   6.415  49.916  1.00  0.00     0.011 C 
HETATM    2  C6  UNL     1      24.157   7.726  50.162  1.00  0.00     0.093 C 
HETATM    3  C7  UNL     1      25.266   8.606  50.130  1.00  0.00     0.087 C 
HETATM    4  N1  UNL     1      26.180   9.309  50.103  1.00  0.00    -0.192 NA
ENDROOT
BRANCH   1   5
HETATM    5  C4  UNL     1      23.113   5.578  49.968  1.00  0.00     0.006 C 
HETATM    6  C3  UNL     1      23.201   4.495  50.700  1.00  0.00    -0.049 A 
HETATM    7  C2  UNL     1      24.071   3.801  51.504  1.00  0.00     0.026 A 
HETATM    8  C8  UNL     1      22.672   3.236  51.296  1.00  0.00     0.050 A 
HETATM    9  C1  UNL     1      24.064   4.466  53.004  1.00  0.00     0.027 C 
HETATM   10  C22 UNL     1      24.857   2.604  51.618  1.00  0.00    -0.033 A 
HETATM   11  C16 UNL     1      23.955   1.681  52.093  1.00  0.00    -0.014 A 
HETATM   12  C21 UNL     1      26.220   2.476  51.487  1.00  0.00     0.011 A 
HETATM   13  C9  UNL     1      22.552   2.089  51.888  1.00  0.00     0.036 C 
HETATM   14  C17 UNL     1      24.568   0.486  52.486  1.00  0.00     0.035 A 
HETATM   15  C18 UNL     1      25.933   0.246  52.402  1.00  0.00     0.045 A 
HETATM   16  C19 UNL     1      26.514  -0.998  52.818  1.00  0.00     0.099 C 
HETATM   17  C20 UNL     1      26.761   1.254  51.895  1.00  0.00     0.023 A 
HETATM   18  N3  UNL     1      26.990  -2.003  53.141  1.00  0.00    -0.191 NA
BRANCH  13  19
HETATM   19  C10 UNL     1      21.400   1.243  51.973  1.00  0.00     0.254 C 
HETATM   20  O1  UNL     1      21.483   0.291  51.115  1.00  0.00    -0.268 OA
HETATM   21  N2  UNL     1      20.220   1.143  52.703  1.00  0.00    -0.322 N 
HETATM   22  H7  UNL     1      20.149   1.922  53.379  1.00  0.00     0.169 HD
BRANCH  21  23
HETATM   23  C11 UNL     1      19.270   0.131  52.517  1.00  0.00     0.053 C 
HETATM   24  C12 UNL     1      19.244  -0.911  53.292  1.00  0.00     0.051 C 
HETATM   25  S1  UNL     1      17.813  -1.642  53.395  1.00  0.00    -0.098 SA
HETATM   26  C13 UNL     1      16.804  -1.373  52.143  1.00  0.00     0.050 C 
HETATM   27  C14 UNL     1      17.225  -0.333  51.232  1.00  0.00     0.009 C 
HETATM   28  C15 UNL     1      18.348   0.338  51.418  1.00  0.00     0.031 C 
ENDBRANCH  21  23
ENDBRANCH  13  19
ENDBRANCH   1   5
TORSDOF 3
ENDMDL
MODEL 5
REMARK VINA RESULT:      -8.2      3.659      7.392
REMARK  3 active torsions:
REMARK  status: ('A' for Active; 'I' for Inactive)
REMARK    1  A    between atoms: C4_4  and  C5_5 
REMARK    2  A    between atoms: C9_10  and  C10_11 
REMARK       I    between atoms: C10_11  and  N2_13 
REMARK    3  A    between atoms: N2_13  and  C11_14 
ROOT
HETATM    1  C5  UNL     1      23.010   6.259  49.701  1.00  0.00     0.011 C 
HETATM    2  C6  UNL     1      22.096   6.785  50.529  1.00  0.00     0.093 C 
HETATM    3  C7  UNL     1      20.988   7.518  50.036  1.00  0.00     0.087 C 
HETATM    4  N1  UNL     1      20.094   8.113  49.618  1.00  0.00    -0.192 NA
ENDROOT
BRANCH   1   5
HETATM    5  C4  UNL     1      24.117   5.522  50.284  1.00  0.00     0.006 C 
HETATM    6  C3  UNL     1      23.879   4.272  50.595  1.00  0.00    -0.049 A 
HETATM    7  C2  UNL     1      22.889   3.321  50.572  1.00  0.00     0.026 A 
HETATM    8  C8  UNL     1      24.252   2.930  51.126  1.00  0.00     0.050 A 
HETATM    9  C1  UNL     1      22.813   2.659  49.072  1.00  0.00     0.027 C 
HETATM   10  C22 UNL     1      22.004   2.532  51.385  1.00  0.00    -0.033 A 
HETATM   11  C16 UNL     1      22.786   1.460  51.747  1.00  0.00    -0.014 A 
HETATM   12  C21 UNL     1      20.653   2.705  51.571  1.00  0.00     0.011 A 
HETATM   13  C9  UNL     1      24.229   1.716  51.579  1.00  0.00     0.036 C 
HETATM   14  C17 UNL     1      22.049   0.447  52.371  1.00  0.00     0.035 A 
HETATM   15  C18 UNL     1      20.683   0.511  52.609  1.00  0.00     0.045 A 
HETATM   16  C19 UNL     1      19.971  -0.555  53.253  1.00  0.00     0.099 C 
HETATM   17  C20 UNL     1      19.985   1.655  52.204  1.00  0.00     0.023 A 
HETATM   18  N3  UNL     1      19.391  -1.407  53.783  1.00  0.00    -0.191 NA
BRANCH  13  19
HETATM   19  C10 UNL     1      25.300   0.952  52.145  1.00  0.00     0.254 C 
HETATM   20  O1  UNL     1      26.405   1.227  51.552  1.00  0.00    -0.268 OA
HETATM   21  N2  UNL     1      25.502   0.002  53.141  1.00  0.00    -0.322 N 
HETATM   22  H7  UNL     1      24.606  -0.229  53.603  1.00  0.00     0.169 HD
BRANCH  21  23
HETATM   23  C11 UNL     1      26.748  -0.558  53.444  1.00  0.00     0.053 C 
HETATM   24  C12 UNL     1      27.108  -1.701  52.940  1.00  0.00     0.051 C 
HETATM   25  S1  UNL     1      28.699  -1.925  52.839  1.00  0.00    -0.098 SA
HETATM   26  C13 UNL     1      29.594  -1.022  53.861  1.00  0.00     0.050 C 
HETATM   27  C14 UNL     1      28.870   0.024  54.544  1.00  0.00     0.009 C 
HETATM   28  C15 UNL     1      27.578   0.220  54.343  1.00  0.00     0.031 C 
ENDBRANCH  21  23
ENDBRANCH  13  19
ENDBRANCH   1   5
TORSDOF 3
ENDMDL
MODEL 6
REMARK VINA RESULT:      -8.0      3.253      7.502
REMARK  3 active torsions:
REMARK  status: ('A' for Active; 'I' for Inactive)
REMARK    1  A    between atoms: C4_4  and  C5_5 
REMARK    2  A    between atoms: C9_10  and  C10_11 
REMARK       I    between atoms: C10_11  and  N2_13 
REMARK    3  A    between atoms: N2_13  and  C11_14 
ROOT
HETATM    1  C5  UNL     1      21.519   5.096  47.418  1.00  0.00     0.011 C 
HETATM    2  C6  UNL     1      21.635   4.763  46.125  1.00  0.00     0.093 C 
HETATM    3  C7  UNL     1      20.548   4.900  45.227  1.00  0.00     0.087 C 
HETATM    4  N1  UNL     1      19.652   5.016  44.510  1.00  0.00    -0.192 NA
ENDROOT
BRANCH   1   5
HETATM    5  C4  UNL     1      22.679   4.927  48.275  1.00  0.00     0.006 C 
HETATM    6  C3  UNL     1      22.703   3.841  49.008  1.00  0.00    -0.049 A 
HETATM    7  C2  UNL     1      21.977   2.710  49.290  1.00  0.00     0.026 A 
HETATM    8  C8  UNL     1      23.306   2.913  50.006  1.00  0.00     0.050 A 
HETATM    9  C1  UNL     1      22.264   1.585  48.131  1.00  0.00     0.027 C 
HETATM   10  C22 UNL     1      21.202   2.038  50.296  1.00  0.00    -0.033 A 
HETATM   11  C16 UNL     1      22.158   1.404  51.055  1.00  0.00    -0.014 A 
HETATM   12  C21 UNL     1      19.836   1.893  50.349  1.00  0.00     0.011 A 
HETATM   13  C9  UNL     1      23.509   1.966  50.867  1.00  0.00     0.036 C 
HETATM   14  C17 UNL     1      21.603   0.505  51.973  1.00  0.00     0.035 A 
HETATM   15  C18 UNL     1      20.241   0.275  52.113  1.00  0.00     0.045 A 
HETATM   16  C19 UNL     1      19.720  -0.658  53.070  1.00  0.00     0.099 C 
HETATM   17  C20 UNL     1      19.354   0.981  51.292  1.00  0.00     0.023 A 
HETATM   18  N3  UNL     1      19.291  -1.402  53.847  1.00  0.00    -0.191 NA
BRANCH  13  19
HETATM   19  C10 UNL     1      24.642   1.757  51.717  1.00  0.00     0.254 C 
HETATM   20  O1  UNL     1      24.426   2.263  52.877  1.00  0.00    -0.268 OA
HETATM   21  N2  UNL     1      25.904   1.174  51.664  1.00  0.00    -0.322 N 
HETATM   22  H7  UNL     1      26.080   0.785  50.722  1.00  0.00     0.169 HD
BRANCH  21  23
HETATM   23  C11 UNL     1      26.798   1.147  52.741  1.00  0.00     0.053 C 
HETATM   24  C12 UNL     1      26.823   0.141  53.563  1.00  0.00     0.051 C 
HETATM   25  S1  UNL     1      28.225  -0.076  54.324  1.00  0.00    -0.098 SA
HETATM   26  C13 UNL     1      29.172   1.248  54.425  1.00  0.00     0.050 C 
HETATM   27  C14 UNL     1      28.746   2.367  53.617  1.00  0.00     0.009 C 
HETATM   28  C15 UNL     1      27.665   2.303  52.859  1.00  0.00     0.031 C 
ENDBRANCH  21  23
ENDBRANCH  13  19
ENDBRANCH   1   5
TORSDOF 3
ENDMDL
MODEL 7
REMARK VINA RESULT:      -7.9      7.424     10.741
REMARK  3 active torsions:
REMARK  status: ('A' for Active; 'I' for Inactive)
REMARK    1  A    between atoms: C4_4  and  C5_5 
REMARK    2  A    between atoms: C9_10  and  C10_11 
REMARK       I    between atoms: C10_11  and  N2_13 
REMARK    3  A    between atoms: N2_13  and  C11_14 
ROOT
HETATM    1  C5  UNL     1      24.137   4.549  49.532  1.00  0.00     0.011 C 
HETATM    2  C6  UNL     1      23.567   4.427  50.740  1.00  0.00     0.093 C 
HETATM    3  C7  UNL     1      22.207   4.762  50.951  1.00  0.00     0.087 C 
HETATM    4  N1  UNL     1      21.099   5.041  51.106  1.00  0.00    -0.192 NA
ENDROOT
BRANCH   1   5
HETATM    5  C4  UNL     1      25.536   4.185  49.396  1.00  0.00     0.006 C 
HETATM    6  C3  UNL     1      26.340   5.128  48.970  1.00  0.00    -0.049 A 
HETATM    7  C2  UNL     1      26.351   6.441  48.570  1.00  0.00     0.026 A 
HETATM    8  C8  UNL     1      27.667   5.676  48.573  1.00  0.00     0.050 A 
HETATM    9  C1  UNL     1      26.395   7.406  49.897  1.00  0.00     0.027 C 
HETATM   10  C22 UNL     1      26.525   7.322  47.449  1.00  0.00    -0.033 A 
HETATM   11  C16 UNL     1      27.891   7.469  47.377  1.00  0.00    -0.014 A 
HETATM   12  C21 UNL     1      25.555   8.011  46.760  1.00  0.00     0.011 A 
HETATM   13  C9  UNL     1      28.624   6.413  48.101  1.00  0.00     0.036 C 
HETATM   14  C17 UNL     1      28.275   8.471  46.477  1.00  0.00     0.035 A 
HETATM   15  C18 UNL     1      27.385   9.231  45.731  1.00  0.00     0.045 A 
HETATM   16  C19 UNL     1      27.828  10.248  44.822  1.00  0.00     0.099 C 
HETATM   17  C20 UNL     1      26.013   8.993  45.878  1.00  0.00     0.023 A 
HETATM   18  N3  UNL     1      28.178  11.063  44.076  1.00  0.00    -0.191 NA
BRANCH  13  19
HETATM   19  C10 UNL     1      30.014   6.096  47.964  1.00  0.00     0.254 C 
HETATM   20  O1  UNL     1      30.423   5.443  48.991  1.00  0.00    -0.268 OA
HETATM   21  N2  UNL     1      31.051   6.284  47.057  1.00  0.00    -0.322 N 
HETATM   22  H7  UNL     1      30.720   6.826  46.241  1.00  0.00     0.169 HD
BRANCH  21  23
HETATM   23  C11 UNL     1      32.354   5.811  47.253  1.00  0.00     0.053 C 
HETATM   24  C12 UNL     1      33.231   6.517  47.901  1.00  0.00     0.051 C 
HETATM   25  S1  UNL     1      34.415   5.665  48.584  1.00  0.00    -0.098 SA
HETATM   26  C13 UNL     1      34.688   4.201  47.921  1.00  0.00     0.050 C 
HETATM   27  C14 UNL     1      33.686   3.762  46.977  1.00  0.00     0.009 C 
HETATM   28  C15 UNL     1      32.634   4.506  46.686  1.00  0.00     0.031 C 
ENDBRANCH  21  23
ENDBRANCH  13  19
ENDBRANCH   1   5
TORSDOF 3
ENDMDL
MODEL 8
REMARK VINA RESULT:      -7.9      3.486      6.688
REMARK  3 active torsions:
REMARK  status: ('A' for Active; 'I' for Inactive)
REMARK    1  A    between atoms: C4_4  and  C5_5 
REMARK    2  A    between atoms: C9_10  and  C10_11 
REMARK       I    between atoms: C10_11  and  N2_13 
REMARK    3  A    between atoms: N2_13  and  C11_14 
ROOT
HETATM    1  C5  UNL     1      17.168   2.736  51.952  1.00  0.00     0.011 C 
HETATM    2  C6  UNL     1      16.315   2.101  51.135  1.00  0.00     0.093 C 
HETATM    3  C7  UNL     1      15.261   1.304  51.644  1.00  0.00     0.087 C 
HETATM    4  N1  UNL     1      14.409   0.657  52.075  1.00  0.00    -0.192 NA
ENDROOT
BRANCH   1   5
HETATM    5  C4  UNL     1      18.223   3.535  51.353  1.00  0.00     0.006 C 
HETATM    6  C3  UNL     1      19.412   2.987  51.315  1.00  0.00    -0.049 A 
HETATM    7  C2  UNL     1      20.087   1.842  51.661  1.00  0.00     0.026 A 
HETATM    8  C8  UNL     1      20.864   2.962  50.982  1.00  0.00     0.050 A 
HETATM    9  C1  UNL     1      19.845   0.705  50.503  1.00  0.00     0.027 C 
HETATM   10  C22 UNL     1      21.078   1.288  52.541  1.00  0.00    -0.033 A 
HETATM   11  C16 UNL     1      22.262   1.588  51.908  1.00  0.00    -0.014 A 
HETATM   12  C21 UNL     1      20.876   0.477  53.633  1.00  0.00     0.011 A 
HETATM   13  C9  UNL     1      22.123   2.661  50.905  1.00  0.00     0.036 C 
HETATM   14  C17 UNL     1      23.359   0.945  52.491  1.00  0.00     0.035 A 
HETATM   15  C18 UNL     1      23.274   0.102  53.592  1.00  0.00     0.045 A 
HETATM   16  C19 UNL     1      24.430  -0.535  54.154  1.00  0.00     0.099 C 
HETATM   17  C20 UNL     1      22.018  -0.128  54.164  1.00  0.00     0.023 A 
HETATM   18  N3  UNL     1      25.360  -1.044  54.621  1.00  0.00    -0.191 NA
BRANCH  13  19
HETATM   19  C10 UNL     1      23.188   3.413  50.312  1.00  0.00     0.254 C 
HETATM   20  O1  UNL     1      23.337   3.077  49.081  1.00  0.00    -0.268 OA
HETATM   21  N2  UNL     1      24.108   4.393  50.666  1.00  0.00    -0.322 N 
HETATM   22  H7  UNL     1      23.996   4.647  51.663  1.00  0.00     0.169 HD
BRANCH  21  23
HETATM   23  C11 UNL     1      25.053   4.932  49.786  1.00  0.00     0.053 C 
HETATM   24  C12 UNL     1      24.907   6.127  49.297  1.00  0.00     0.051 C 
HETATM   25  S1  UNL     1      26.274   6.846  48.845  1.00  0.00    -0.098 SA
HETATM   26  C13 UNL     1      27.512   5.838  48.513  1.00  0.00     0.050 C 
HETATM   27  C14 UNL     1      27.299   4.462  48.897  1.00  0.00     0.009 C 
HETATM   28  C15 UNL     1      26.176   4.069  49.474  1.00  0.00     0.031 C 
ENDBRANCH  21  23
ENDBRANCH  13  19
ENDBRANCH   1   5
TORSDOF 3
ENDMDL
MODEL 9
REMARK VINA RESULT:      -7.7      8.574     11.307
REMARK  3 active torsions:
REMARK  status: ('A' for Active; 'I' for Inactive)
REMARK    1  A    between atoms: C4_4  and  C5_5 
REMARK    2  A    between atoms: C9_10  and  C10_11 
REMARK       I    between atoms: C10_11  and  N2_13 
REMARK    3  A    between atoms: N2_13  and  C11_14 
ROOT
HETATM    1  C5  UNL     1      27.625  11.778  46.896  1.00  0.00     0.011 C 
HETATM    2  C6  UNL     1      27.105  12.230  48.046  1.00  0.00     0.093 C 
HETATM    3  C7  UNL     1      25.856  12.897  48.080  1.00  0.00     0.087 C 
HETATM    4  N1  UNL     1      24.839  13.441  48.088  1.00  0.00    -0.192 NA
ENDROOT
BRANCH   1   5
HETATM    5  C4  UNL     1      28.910  11.103  46.945  1.00  0.00     0.006 C 
HETATM    6  C3  UNL     1      28.875   9.796  47.012  1.00  0.00    -0.049 A 
HETATM    7  C2  UNL     1      28.000   8.738  47.058  1.00  0.00     0.026 A 
HETATM    8  C8  UNL     1      29.493   8.442  47.087  1.00  0.00     0.050 A 
HETATM    9  C1  UNL     1      27.506   8.383  45.534  1.00  0.00     0.027 C 
HETATM   10  C22 UNL     1      27.476   7.687  47.886  1.00  0.00    -0.033 A 
HETATM   11  C16 UNL     1      28.409   6.686  47.747  1.00  0.00    -0.014 A 
HETATM   12  C21 UNL     1      26.243   7.627  48.492  1.00  0.00     0.011 A 
HETATM   13  C9  UNL     1      29.703   7.171  47.231  1.00  0.00     0.036 C 
HETATM   14  C17 UNL     1      27.982   5.475  48.305  1.00  0.00     0.035 A 
HETATM   15  C18 UNL     1      26.759   5.297  48.937  1.00  0.00     0.045 A 
HETATM   16  C19 UNL     1      26.366   4.035  49.494  1.00  0.00     0.099 C 
HETATM   17  C20 UNL     1      25.887   6.388  49.030  1.00  0.00     0.023 A 
HETATM   18  N3  UNL     1      26.046   3.022  49.957  1.00  0.00    -0.191 NA
BRANCH  13  19
HETATM   19  C10 UNL     1      30.951   6.468  47.270  1.00  0.00     0.254 C 
HETATM   20  O1  UNL     1      31.163   6.005  48.448  1.00  0.00    -0.268 OA
HETATM   21  N2  UNL     1      32.000   6.140  46.417  1.00  0.00    -0.322 N 
HETATM   22  H7  UNL     1      31.832   6.532  45.475  1.00  0.00     0.169 HD
BRANCH  21  23
HETATM   23  C11 UNL     1      33.120   5.398  46.808  1.00  0.00     0.053 C 
HETATM   24  C12 UNL     1      34.109   5.961  47.436  1.00  0.00     0.051 C 
HETATM   25  S1  UNL     1      34.986   4.966  48.348  1.00  0.00    -0.098 SA
HETATM   26  C13 UNL     1      34.910   3.392  47.930  1.00  0.00     0.050 C 
HETATM   27  C14 UNL     1      33.889   3.066  46.961  1.00  0.00     0.009 C 
HETATM   28  C15 UNL     1      33.086   3.990  46.464  1.00  0.00     0.031 C 
ENDBRANCH  21  23
ENDBRANCH  13  19
ENDBRANCH   1   5
TORSDOF 3
ENDMDL
