MODEL 1
REMARK VINA RESULT:      -9.4      0.000      0.000
REMARK  5 active torsions:
REMARK  status: ('A' for Active; 'I' for Inactive)
REMARK    1  A    between atoms: C6_6  and  C7_7 
REMARK    2  A    between atoms: C7_7  and  N1_8 
REMARK    3  A    between atoms: C15_17  and  N2_18 
REMARK    4  A    between atoms: N2_18  and  C16_19 
REMARK    5  A    between atoms: C22_25  and  O1_26 
ROOT
HETATM    1  N1  UNL     1      23.511   2.330  51.560  1.00  0.00    -0.380 N 
HETATM    2  C8  UNL     1      22.199   2.370  52.078  1.00  0.00     0.159 A 
HETATM    3  C9  UNL     1      22.131   1.196  53.040  1.00  0.00    -0.030 A 
HETATM    4  C10 UNL     1      21.111   0.686  53.814  1.00  0.00     0.012 A 
HETATM    5  C11 UNL     1      21.315  -0.436  54.612  1.00  0.00     0.043 A 
HETATM    6  C12 UNL     1      22.588  -0.999  54.578  1.00  0.00     0.117 A 
HETATM    7  F1  UNL     1      22.775  -2.105  55.369  1.00  0.00    -0.206 F 
HETATM    8  C13 UNL     1      23.647  -0.536  53.826  1.00  0.00     0.054 A 
HETATM    9  C14 UNL     1      23.359   0.578  53.068  1.00  0.00    -0.006 A 
HETATM   10  C15 UNL     1      24.303   1.329  52.164  1.00  0.00     0.215 A 
ENDROOT
BRANCH   1  11
HETATM   11  C7  UNL     1      23.569   2.508  50.168  1.00  0.00     0.161 C 
BRANCH  11  12
HETATM   12  C6  UNL     1      24.400   3.623  49.662  1.00  0.00    -0.007 A 
HETATM   13  C5  UNL     1      23.662   4.741  49.230  1.00  0.00     0.011 A 
HETATM   14  C4  UNL     1      24.161   5.888  48.692  1.00  0.00     0.001 A 
HETATM   15  C3  UNL     1      25.521   6.009  48.540  1.00  0.00     0.009 A 
HETATM   16  C2  UNL     1      26.307   4.952  48.943  1.00  0.00    -0.028 A 
HETATM   17  C1  UNL     1      27.787   4.984  48.821  1.00  0.00     0.051 C 
HETATM   18  C22 UNL     1      25.743   3.826  49.475  1.00  0.00     0.079 A 
BRANCH  18  19
HETATM   19  O1  UNL     1      26.557   2.785  49.875  1.00  0.00    -0.360 OA
HETATM   20  H21 UNL     1      27.432   2.617  49.397  1.00  0.00     0.217 HD
ENDBRANCH  18  19
ENDBRANCH  11  12
ENDBRANCH   1  11
BRANCH  10  21
HETATM   21  N2  UNL     1      25.469   1.742  52.868  1.00  0.00    -0.365 N 
HETATM   22  H15 UNL     1      25.252   2.691  53.299  1.00  0.00     0.162 HD
BRANCH  21  23
HETATM   23  C16 UNL     1      26.782   1.306  53.162  1.00  0.00     0.029 A 
HETATM   24  C17 UNL     1      27.218   0.004  53.057  1.00  0.00     0.029 A 
HETATM   25  C18 UNL     1      28.502  -0.428  53.337  1.00  0.00     0.002 A 
HETATM   26  C19 UNL     1      29.369   0.535  53.743  1.00  0.00     0.000 A 
HETATM   27  C20 UNL     1      29.021   1.849  53.875  1.00  0.00     0.002 A 
HETATM   28  C21 UNL     1      27.734   2.200  53.580  1.00  0.00     0.029 A 
ENDBRANCH  21  23
ENDBRANCH  10  21
TORSDOF 5
ENDMDL
MODEL 2
REMARK VINA RESULT:      -9.2      0.951      1.750
REMARK  5 active torsions:
REMARK  status: ('A' for Active; 'I' for Inactive)
REMARK    1  A    between atoms: C6_6  and  C7_7 
REMARK    2  A    between atoms: C7_7  and  N1_8 
REMARK    3  A    between atoms: C15_17  and  N2_18 
REMARK    4  A    between atoms: N2_18  and  C16_19 
REMARK    5  A    between atoms: C22_25  and  O1_26 
ROOT
HETATM    1  N1  UNL     1      23.510   2.285  51.561  1.00  0.00    -0.380 N 
HETATM    2  C8  UNL     1      22.179   2.318  52.026  1.00  0.00     0.159 A 
HETATM    3  C9  UNL     1      22.085   1.158  53.003  1.00  0.00    -0.030 A 
HETATM    4  C10 UNL     1      21.041   0.648  53.744  1.00  0.00     0.012 A 
HETATM    5  C11 UNL     1      21.224  -0.459  54.566  1.00  0.00     0.043 A 
HETATM    6  C12 UNL     1      22.503  -1.010  54.590  1.00  0.00     0.117 A 
HETATM    7  F1  UNL     1      22.670  -2.102  55.404  1.00  0.00    -0.206 F 
HETATM    8  C13 UNL     1      23.586  -0.546  53.873  1.00  0.00     0.054 A 
HETATM    9  C14 UNL     1      23.317   0.553  53.088  1.00  0.00    -0.006 A 
HETATM   10  C15 UNL     1      24.288   1.301  52.210  1.00  0.00     0.215 A 
ENDROOT
BRANCH   1  11
HETATM   11  C7  UNL     1      23.620   2.443  50.169  1.00  0.00     0.161 C 
BRANCH  11  12
HETATM   12  C6  UNL     1      24.497   3.530  49.679  1.00  0.00    -0.007 A 
HETATM   13  C5  UNL     1      25.866   3.207  49.673  1.00  0.00     0.011 A 
HETATM   14  C4  UNL     1      26.895   4.021  49.306  1.00  0.00     0.001 A 
HETATM   15  C3  UNL     1      26.608   5.299  48.890  1.00  0.00     0.009 A 
HETATM   16  C2  UNL     1      25.286   5.684  48.868  1.00  0.00    -0.028 A 
HETATM   17  C1  UNL     1      24.872   7.043  48.434  1.00  0.00     0.051 C 
HETATM   18  C22 UNL     1      24.300   4.818  49.251  1.00  0.00     0.079 A 
BRANCH  18  19
HETATM   19  O1  UNL     1      22.983   5.231  49.215  1.00  0.00    -0.360 OA
HETATM   20  H21 UNL     1      22.409   5.159  50.044  1.00  0.00     0.217 HD
ENDBRANCH  18  19
ENDBRANCH  11  12
ENDBRANCH   1  11
BRANCH  10  21
HETATM   21  N2  UNL     1      25.422   1.736  52.953  1.00  0.00    -0.365 N 
HETATM   22  H15 UNL     1      25.138   2.631  53.456  1.00  0.00     0.162 HD
BRANCH  21  23
HETATM   23  C16 UNL     1      26.761   1.370  53.220  1.00  0.00     0.029 A 
HETATM   24  C17 UNL     1      27.756   2.248  53.587  1.00  0.00     0.029 A 
HETATM   25  C18 UNL     1      29.066   1.896  53.855  1.00  0.00     0.002 A 
HETATM   26  C19 UNL     1      29.355   0.575  53.735  1.00  0.00     0.000 A 
HETATM   27  C20 UNL     1      28.430  -0.364  53.376  1.00  0.00     0.002 A 
HETATM   28  C21 UNL     1      27.155   0.060  53.127  1.00  0.00     0.029 A 
ENDBRANCH  21  23
ENDBRANCH  10  21
TORSDOF 5
ENDMDL
MODEL 3
REMARK VINA RESULT:      -8.8      2.328      5.862
REMARK  5 active torsions:
REMARK  status: ('A' for Active; 'I' for Inactive)
REMARK    1  A    between atoms: C6_6  and  C7_7 
REMARK    2  A    between atoms: C7_7  and  N1_8 
REMARK    3  A    between atoms: C15_17  and  N2_18 
REMARK    4  A    between atoms: N2_18  and  C16_19 
REMARK    5  A    between atoms: C22_25  and  O1_26 
ROOT
HETATM    1  N1  UNL     1      25.228   3.162  51.124  1.00  0.00    -0.380 N 
HETATM    2  C8  UNL     1      24.954   4.181  50.188  1.00  0.00     0.159 A 
HETATM    3  C9  UNL     1      23.686   3.724  49.485  1.00  0.00    -0.030 A 
HETATM    4  C10 UNL     1      22.950   4.262  48.451  1.00  0.00     0.012 A 
HETATM    5  C11 UNL     1      21.813   3.618  47.976  1.00  0.00     0.043 A 
HETATM    6  C12 UNL     1      21.472   2.419  48.597  1.00  0.00     0.117 A 
HETATM    7  F1  UNL     1      20.349   1.794  48.118  1.00  0.00    -0.206 F 
HETATM    8  C13 UNL     1      22.166   1.832  49.633  1.00  0.00     0.054 A 
HETATM    9  C14 UNL     1      23.277   2.536  50.043  1.00  0.00    -0.006 A 
HETATM   10  C15 UNL     1      24.223   2.171  51.159  1.00  0.00     0.215 A 
ENDROOT
BRANCH   1  11
HETATM   11  C7  UNL     1      26.579   2.774  51.148  1.00  0.00     0.161 C 
BRANCH  11  12
HETATM   12  C6  UNL     1      26.937   1.624  52.009  1.00  0.00    -0.007 A 
HETATM   13  C5  UNL     1      26.569   0.373  51.480  1.00  0.00     0.011 A 
HETATM   14  C4  UNL     1      26.745  -0.843  52.067  1.00  0.00     0.001 A 
HETATM   15  C3  UNL     1      27.341  -0.899  53.304  1.00  0.00     0.009 A 
HETATM   16  C2  UNL     1      27.729   0.289  53.882  1.00  0.00    -0.028 A 
HETATM   17  C1  UNL     1      28.382   0.335  55.215  1.00  0.00     0.051 C 
HETATM   18  C22 UNL     1      27.523   1.478  53.239  1.00  0.00     0.079 A 
BRANCH  18  19
HETATM   19  O1  UNL     1      27.927   2.652  53.843  1.00  0.00    -0.360 OA
HETATM   20  H21 UNL     1      28.817   3.066  53.598  1.00  0.00     0.217 HD
ENDBRANCH  18  19
ENDBRANCH  11  12
ENDBRANCH   1  11
BRANCH  10  21
HETATM   21  N2  UNL     1      23.523   1.980  52.384  1.00  0.00    -0.365 N 
HETATM   22  H15 UNL     1      23.469   2.930  52.862  1.00  0.00     0.162 HD
BRANCH  21  23
HETATM   23  C16 UNL     1      22.904   0.960  53.142  1.00  0.00     0.029 A 
HETATM   24  C17 UNL     1      23.572  -0.063  53.777  1.00  0.00     0.029 A 
HETATM   25  C18 UNL     1      22.974  -1.059  54.524  1.00  0.00     0.002 A 
HETATM   26  C19 UNL     1      21.620  -0.992  54.615  1.00  0.00     0.000 A 
HETATM   27  C20 UNL     1      20.878  -0.014  54.018  1.00  0.00     0.002 A 
HETATM   28  C21 UNL     1      21.540   0.938  53.295  1.00  0.00     0.029 A 
ENDBRANCH  21  23
ENDBRANCH  10  21
TORSDOF 5
ENDMDL
MODEL 4
REMARK VINA RESULT:      -8.7      2.106      5.252
REMARK  5 active torsions:
REMARK  status: ('A' for Active; 'I' for Inactive)
REMARK    1  A    between atoms: C6_6  and  C7_7 
REMARK    2  A    between atoms: C7_7  and  N1_8 
REMARK    3  A    between atoms: C15_17  and  N2_18 
REMARK    4  A    between atoms: N2_18  and  C16_19 
REMARK    5  A    between atoms: C22_25  and  O1_26 
ROOT
HETATM    1  N1  UNL     1      23.778  -0.028  52.989  1.00  0.00    -0.380 N 
HETATM    2  C8  UNL     1      22.638  -0.846  53.131  1.00  0.00     0.159 A 
HETATM    3  C9  UNL     1      21.475   0.044  52.722  1.00  0.00    -0.030 A 
HETATM    4  C10 UNL     1      20.113  -0.162  52.690  1.00  0.00     0.012 A 
HETATM    5  C11 UNL     1      19.249   0.848  52.281  1.00  0.00     0.043 A 
HETATM    6  C12 UNL     1      19.836   2.057  51.915  1.00  0.00     0.117 A 
HETATM    7  F1  UNL     1      18.973   3.045  51.514  1.00  0.00    -0.206 F 
HETATM    8  C13 UNL     1      21.189   2.323  51.925  1.00  0.00     0.054 A 
HETATM    9  C14 UNL     1      21.971   1.268  52.341  1.00  0.00    -0.006 A 
HETATM   10  C15 UNL     1      23.475   1.237  52.441  1.00  0.00     0.215 A 
ENDROOT
BRANCH   1  11
HETATM   11  C7  UNL     1      24.667  -0.114  54.074  1.00  0.00     0.161 C 
BRANCH  11  12
HETATM   12  C6  UNL     1      26.098   0.146  53.798  1.00  0.00    -0.007 A 
HETATM   13  C5  UNL     1      26.837  -1.001  53.458  1.00  0.00     0.011 A 
HETATM   14  C4  UNL     1      28.170  -1.062  53.187  1.00  0.00     0.001 A 
HETATM   15  C3  UNL     1      28.907   0.096  53.239  1.00  0.00     0.009 A 
HETATM   16  C2  UNL     1      28.248   1.261  53.565  1.00  0.00    -0.028 A 
HETATM   17  C1  UNL     1      28.955   2.565  53.648  1.00  0.00     0.051 C 
HETATM   18  C22 UNL     1      26.906   1.253  53.827  1.00  0.00     0.079 A 
BRANCH  18  19
HETATM   19  O1  UNL     1      26.272   2.438  54.147  1.00  0.00    -0.360 OA
HETATM   20  H21 UNL     1      25.314   2.590  53.862  1.00  0.00     0.217 HD
ENDBRANCH  18  19
ENDBRANCH  11  12
ENDBRANCH   1  11
BRANCH  10  21
HETATM   21  N2  UNL     1      24.079   1.584  51.199  1.00  0.00    -0.365 N 
HETATM   22  H15 UNL     1      24.036   0.718  50.580  1.00  0.00     0.162 HD
BRANCH  21  23
HETATM   23  C16 UNL     1      24.701   2.676  50.552  1.00  0.00     0.029 A 
HETATM   24  C17 UNL     1      24.030   3.715  49.946  1.00  0.00     0.029 A 
HETATM   25  C18 UNL     1      24.632   4.789  49.317  1.00  0.00     0.002 A 
HETATM   26  C19 UNL     1      25.990   4.783  49.316  1.00  0.00     0.000 A 
HETATM   27  C20 UNL     1      26.734   3.793  49.893  1.00  0.00     0.002 A 
HETATM   28  C21 UNL     1      26.069   2.764  50.496  1.00  0.00     0.029 A 
ENDBRANCH  21  23
ENDBRANCH  10  21
TORSDOF 5
ENDMDL
MODEL 5
REMARK VINA RESULT:      -8.6      2.090      5.249
REMARK  5 active torsions:
REMARK  status: ('A' for Active; 'I' for Inactive)
REMARK    1  A    between atoms: C6_6  and  C7_7 
REMARK    2  A    between atoms: C7_7  and  N1_8 
REMARK    3  A    between atoms: C15_17  and  N2_18 
REMARK    4  A    between atoms: N2_18  and  C16_19 
REMARK    5  A    between atoms: C22_25  and  O1_26 
ROOT
HETATM    1  N1  UNL     1      24.296   0.814  53.198  1.00  0.00    -0.380 N 
HETATM    2  C8  UNL     1      23.456  -0.265  53.545  1.00  0.00     0.159 A 
HETATM    3  C9  UNL     1      22.081   0.143  53.041  1.00  0.00    -0.030 A 
HETATM    4  C10 UNL     1      20.846  -0.463  53.117  1.00  0.00     0.012 A 
HETATM    5  C11 UNL     1      19.719   0.146  52.576  1.00  0.00     0.043 A 
HETATM    6  C12 UNL     1      19.914   1.383  51.966  1.00  0.00     0.117 A 
HETATM    7  F1  UNL     1      18.794   1.973  51.437  1.00  0.00    -0.206 F 
HETATM    8  C13 UNL     1      21.122   2.038  51.858  1.00  0.00     0.054 A 
HETATM    9  C14 UNL     1      22.185   1.364  52.419  1.00  0.00    -0.006 A 
HETATM   10  C15 UNL     1      23.627   1.803  52.445  1.00  0.00     0.215 A 
ENDROOT
BRANCH   1  11
HETATM   11  C7  UNL     1      25.162   1.205  54.233  1.00  0.00     0.161 C 
BRANCH  11  12
HETATM   12  C6  UNL     1      26.613   1.020  54.007  1.00  0.00    -0.007 A 
HETATM   13  C5  UNL     1      27.336   2.222  53.897  1.00  0.00     0.011 A 
HETATM   14  C4  UNL     1      28.671   2.351  53.657  1.00  0.00     0.001 A 
HETATM   15  C3  UNL     1      29.426   1.214  53.503  1.00  0.00     0.009 A 
HETATM   16  C2  UNL     1      28.784   0.000  53.601  1.00  0.00    -0.028 A 
HETATM   17  C1  UNL     1      29.512  -1.286  53.450  1.00  0.00     0.051 C 
HETATM   18  C22 UNL     1      27.440  -0.061  53.842  1.00  0.00     0.079 A 
BRANCH  18  19
HETATM   19  O1  UNL     1      26.825  -1.294  53.939  1.00  0.00    -0.360 OA
HETATM   20  H21 UNL     1      26.314  -1.538  54.777  1.00  0.00     0.217 HD
ENDBRANCH  18  19
ENDBRANCH  11  12
ENDBRANCH   1  11
BRANCH  10  21
HETATM   21  N2  UNL     1      24.105   2.073  51.131  1.00  0.00    -0.365 N 
HETATM   22  H15 UNL     1      23.760   1.283  50.507  1.00  0.00     0.162 HD
BRANCH  21  23
HETATM   23  C16 UNL     1      24.873   3.025  50.420  1.00  0.00     0.029 A 
HETATM   24  C17 UNL     1      26.245   3.008  50.319  1.00  0.00     0.029 A 
HETATM   25  C18 UNL     1      27.001   3.931  49.621  1.00  0.00     0.002 A 
HETATM   26  C19 UNL     1      26.300   4.916  49.002  1.00  0.00     0.000 A 
HETATM   27  C20 UNL     1      24.938   5.009  49.051  1.00  0.00     0.002 A 
HETATM   28  C21 UNL     1      24.259   4.059  49.761  1.00  0.00     0.029 A 
ENDBRANCH  21  23
ENDBRANCH  10  21
TORSDOF 5
ENDMDL
MODEL 6
REMARK VINA RESULT:      -8.5      2.217      4.701
REMARK  5 active torsions:
REMARK  status: ('A' for Active; 'I' for Inactive)
REMARK    1  A    between atoms: C6_6  and  C7_7 
REMARK    2  A    between atoms: C7_7  and  N1_8 
REMARK    3  A    between atoms: C15_17  and  N2_18 
REMARK    4  A    between atoms: N2_18  and  C16_19 
REMARK    5  A    between atoms: C22_25  and  O1_26 
ROOT
HETATM    1  N1  UNL     1      23.846   1.877  52.116  1.00  0.00    -0.380 N 
HETATM    2  C8  UNL     1      24.411   0.966  53.034  1.00  0.00     0.159 A 
HETATM    3  C9  UNL     1      23.250   0.082  53.459  1.00  0.00    -0.030 A 
HETATM    4  C10 UNL     1      23.154  -0.956  54.361  1.00  0.00     0.012 A 
HETATM    5  C11 UNL     1      21.939  -1.599  54.580  1.00  0.00     0.043 A 
HETATM    6  C12 UNL     1      20.851  -1.136  53.846  1.00  0.00     0.117 A 
HETATM    7  F1  UNL     1      19.659  -1.779  54.071  1.00  0.00    -0.206 F 
HETATM    8  C13 UNL     1      20.884  -0.105  52.931  1.00  0.00     0.054 A 
HETATM    9  C14 UNL     1      22.124   0.474  52.775  1.00  0.00    -0.006 A 
HETATM   10  C15 UNL     1      22.489   1.600  51.841  1.00  0.00     0.215 A 
ENDROOT
BRANCH   1  11
HETATM   11  C7  UNL     1      24.250   3.206  52.328  1.00  0.00     0.161 C 
BRANCH  11  12
HETATM   12  C6  UNL     1      24.718   3.967  51.147  1.00  0.00    -0.007 A 
HETATM   13  C5  UNL     1      23.733   4.781  50.559  1.00  0.00     0.011 A 
HETATM   14  C4  UNL     1      23.875   5.560  49.451  1.00  0.00     0.001 A 
HETATM   15  C3  UNL     1      25.090   5.583  48.811  1.00  0.00     0.009 A 
HETATM   16  C2  UNL     1      26.103   4.810  49.334  1.00  0.00    -0.028 A 
HETATM   17  C1  UNL     1      27.454   4.766  48.717  1.00  0.00     0.051 C 
HETATM   18  C22 UNL     1      25.896   4.049  50.450  1.00  0.00     0.079 A 
BRANCH  18  19
HETATM   19  O1  UNL     1      26.932   3.287  50.953  1.00  0.00    -0.360 OA
HETATM   20  H21 UNL     1      27.524   3.661  51.683  1.00  0.00     0.217 HD
ENDBRANCH  18  19
ENDBRANCH  11  12
ENDBRANCH   1  11
BRANCH  10  21
HETATM   21  N2  UNL     1      22.135   1.289  50.498  1.00  0.00    -0.365 N 
HETATM   22  H15 UNL     1      22.193   0.231  50.399  1.00  0.00     0.162 HD
BRANCH  21  23
HETATM   23  C16 UNL     1      21.750   1.922  49.293  1.00  0.00     0.029 A 
HETATM   24  C17 UNL     1      22.614   2.277  48.282  1.00  0.00     0.029 A 
HETATM   25  C18 UNL     1      22.243   2.890  47.100  1.00  0.00     0.002 A 
HETATM   26  C19 UNL     1      20.916   3.148  46.964  1.00  0.00     0.000 A 
HETATM   27  C20 UNL     1      19.991   2.831  47.916  1.00  0.00     0.002 A 
HETATM   28  C21 UNL     1      20.433   2.226  49.059  1.00  0.00     0.029 A 
ENDBRANCH  21  23
ENDBRANCH  10  21
TORSDOF 5
ENDMDL
MODEL 7
REMARK VINA RESULT:      -8.3      2.919      6.608
REMARK  5 active torsions:
REMARK  status: ('A' for Active; 'I' for Inactive)
REMARK    1  A    between atoms: C6_6  and  C7_7 
REMARK    2  A    between atoms: C7_7  and  N1_8 
REMARK    3  A    between atoms: C15_17  and  N2_18 
REMARK    4  A    between atoms: N2_18  and  C16_19 
REMARK    5  A    between atoms: C22_25  and  O1_26 
ROOT
HETATM    1  N1  UNL     1      24.061   3.265  51.140  1.00  0.00    -0.380 N 
HETATM    2  C8  UNL     1      23.791   2.219  50.233  1.00  0.00     0.159 A 
HETATM    3  C9  UNL     1      23.129   2.902  49.048  1.00  0.00    -0.030 A 
HETATM    4  C10 UNL     1      22.598   2.417  47.872  1.00  0.00     0.012 A 
HETATM    5  C11 UNL     1      22.022   3.277  46.942  1.00  0.00     0.043 A 
HETATM    6  C12 UNL     1      22.014   4.631  47.269  1.00  0.00     0.117 A 
HETATM    7  F1  UNL     1      21.443   5.467  46.343  1.00  0.00    -0.206 F 
HETATM    8  C13 UNL     1      22.528   5.175  48.426  1.00  0.00     0.054 A 
HETATM    9  C14 UNL     1      23.080   4.255  49.289  1.00  0.00    -0.006 A 
HETATM   10  C15 UNL     1      23.738   4.536  50.617  1.00  0.00     0.215 A 
ENDROOT
BRANCH   1  11
HETATM   11  C7  UNL     1      23.715   2.957  52.467  1.00  0.00     0.161 C 
BRANCH  11  12
HETATM   12  C6  UNL     1      24.393   1.799  53.092  1.00  0.00    -0.007 A 
HETATM   13  C5  UNL     1      23.573   0.667  53.248  1.00  0.00     0.011 A 
HETATM   14  C4  UNL     1      23.922  -0.520  53.817  1.00  0.00     0.001 A 
HETATM   15  C3  UNL     1      25.199  -0.670  54.301  1.00  0.00     0.009 A 
HETATM   16  C2  UNL     1      26.058   0.399  54.181  1.00  0.00    -0.028 A 
HETATM   17  C1  UNL     1      27.459   0.338  54.672  1.00  0.00     0.051 C 
HETATM   18  C22 UNL     1      25.645   1.565  53.599  1.00  0.00     0.079 A 
BRANCH  18  19
HETATM   19  O1  UNL     1      26.532   2.618  53.489  1.00  0.00    -0.360 OA
HETATM   20  H21 UNL     1      27.495   2.443  53.233  1.00  0.00     0.217 HD
ENDBRANCH  18  19
ENDBRANCH  11  12
ENDBRANCH   1  11
BRANCH  10  21
HETATM   21  N2  UNL     1      24.792   5.483  50.478  1.00  0.00    -0.365 N 
HETATM   22  H15 UNL     1      24.629   6.239  51.209  1.00  0.00     0.162 HD
BRANCH  21  23
HETATM   23  C16 UNL     1      25.945   5.729  49.698  1.00  0.00     0.029 A 
HETATM   24  C17 UNL     1      26.371   6.976  49.299  1.00  0.00     0.029 A 
HETATM   25  C18 UNL     1      27.501   7.225  48.542  1.00  0.00     0.002 A 
HETATM   26  C19 UNL     1      28.218   6.130  48.181  1.00  0.00     0.000 A 
HETATM   27  C20 UNL     1      27.868   4.857  48.531  1.00  0.00     0.002 A 
HETATM   28  C21 UNL     1      26.739   4.690  49.282  1.00  0.00     0.029 A 
ENDBRANCH  21  23
ENDBRANCH  10  21
TORSDOF 5
ENDMDL
MODEL 8
REMARK VINA RESULT:      -8.3      3.202      7.326
REMARK  5 active torsions:
REMARK  status: ('A' for Active; 'I' for Inactive)
REMARK    1  A    between atoms: C6_6  and  C7_7 
REMARK    2  A    between atoms: C7_7  and  N1_8 
REMARK    3  A    between atoms: C15_17  and  N2_18 
REMARK    4  A    between atoms: N2_18  and  C16_19 
REMARK    5  A    between atoms: C22_25  and  O1_26 
ROOT
HETATM    1  N1  UNL     1      24.036   4.614  51.497  1.00  0.00    -0.380 N 
HETATM    2  C8  UNL     1      24.138   6.019  51.418  1.00  0.00     0.159 A 
HETATM    3  C9  UNL     1      25.246   6.266  50.407  1.00  0.00    -0.030 A 
HETATM    4  C10 UNL     1      25.836   7.420  49.938  1.00  0.00     0.012 A 
HETATM    5  C11 UNL     1      26.866   7.364  49.005  1.00  0.00     0.043 A 
HETATM    6  C12 UNL     1      27.256   6.095  48.584  1.00  0.00     0.117 A 
HETATM    7  F1  UNL     1      28.272   6.054  47.664  1.00  0.00    -0.206 F 
HETATM    8  C13 UNL     1      26.705   4.907  49.016  1.00  0.00     0.054 A 
HETATM    9  C14 UNL     1      25.691   5.054  49.937  1.00  0.00    -0.006 A 
HETATM   10  C15 UNL     1      24.881   3.955  50.578  1.00  0.00     0.215 A 
ENDROOT
BRANCH   1  11
HETATM   11  C7  UNL     1      23.943   4.133  52.815  1.00  0.00     0.161 C 
BRANCH  11  12
HETATM   12  C6  UNL     1      24.272   2.707  53.039  1.00  0.00    -0.007 A 
HETATM   13  C5  UNL     1      23.216   1.822  52.757  1.00  0.00     0.011 A 
HETATM   14  C4  UNL     1      23.227   0.468  52.903  1.00  0.00     0.001 A 
HETATM   15  C3  UNL     1      24.369  -0.136  53.370  1.00  0.00     0.009 A 
HETATM   16  C2  UNL     1      25.445   0.670  53.665  1.00  0.00    -0.028 A 
HETATM   17  C1  UNL     1      26.725   0.115  54.175  1.00  0.00     0.051 C 
HETATM   18  C22 UNL     1      25.369   2.025  53.497  1.00  0.00     0.079 A 
BRANCH  18  19
HETATM   19  O1  UNL     1      26.467   2.807  53.797  1.00  0.00    -0.360 OA
HETATM   20  H21 UNL     1      27.400   2.445  53.651  1.00  0.00     0.217 HD
ENDBRANCH  18  19
ENDBRANCH  11  12
ENDBRANCH   1  11
BRANCH  10  21
HETATM   21  N2  UNL     1      24.272   3.126  49.594  1.00  0.00    -0.365 N 
HETATM   22  H15 UNL     1      25.025   2.463  49.237  1.00  0.00     0.162 HD
BRANCH  21  23
HETATM   23  C16 UNL     1      23.025   2.916  48.960  1.00  0.00     0.029 A 
HETATM   24  C17 UNL     1      22.472   3.755  48.020  1.00  0.00     0.029 A 
HETATM   25  C18 UNL     1      21.257   3.553  47.392  1.00  0.00     0.002 A 
HETATM   26  C19 UNL     1      20.587   2.430  47.759  1.00  0.00     0.000 A 
HETATM   27  C20 UNL     1      21.061   1.544  48.683  1.00  0.00     0.002 A 
HETATM   28  C21 UNL     1      22.270   1.810  49.261  1.00  0.00     0.029 A 
ENDBRANCH  21  23
ENDBRANCH  10  21
TORSDOF 5
ENDMDL
MODEL 9
REMARK VINA RESULT:      -8.1      2.465      5.025
REMARK  5 active torsions:
REMARK  status: ('A' for Active; 'I' for Inactive)
REMARK    1  A    between atoms: C6_6  and  C7_7 
REMARK    2  A    between atoms: C7_7  and  N1_8 
REMARK    3  A    between atoms: C15_17  and  N2_18 
REMARK    4  A    between atoms: N2_18  and  C16_19 
REMARK    5  A    between atoms: C22_25  and  O1_26 
ROOT
HETATM    1  N1  UNL     1      23.225   1.699  51.662  1.00  0.00    -0.380 N 
HETATM    2  C8  UNL     1      23.171   0.842  52.781  1.00  0.00     0.159 A 
HETATM    3  C9  UNL     1      24.622   0.480  53.055  1.00  0.00    -0.030 A 
HETATM    4  C10 UNL     1      25.213  -0.351  53.982  1.00  0.00     0.012 A 
HETATM    5  C11 UNL     1      26.594  -0.522  54.006  1.00  0.00     0.043 A 
HETATM    6  C12 UNL     1      27.324   0.183  53.054  1.00  0.00     0.117 A 
HETATM    7  F1  UNL     1      28.684   0.005  53.089  1.00  0.00    -0.206 F 
HETATM    8  C13 UNL     1      26.791   1.028  52.103  1.00  0.00     0.054 A 
HETATM    9  C14 UNL     1      25.419   1.141  52.151  1.00  0.00    -0.006 A 
HETATM   10  C15 UNL     1      24.547   1.996  51.267  1.00  0.00     0.215 A 
ENDROOT
BRANCH   1  11
HETATM   11  C7  UNL     1      22.264   1.399  50.681  1.00  0.00     0.161 C 
BRANCH  11  12
HETATM   12  C6  UNL     1      21.983   2.441  49.668  1.00  0.00    -0.007 A 
HETATM   13  C5  UNL     1      22.394   2.104  48.366  1.00  0.00     0.011 A 
HETATM   14  C4  UNL     1      22.290   2.880  47.252  1.00  0.00     0.001 A 
HETATM   15  C3  UNL     1      21.731   4.130  47.368  1.00  0.00     0.009 A 
HETATM   16  C2  UNL     1      21.303   4.526  48.615  1.00  0.00    -0.028 A 
HETATM   17  C1  UNL     1      20.684   5.857  48.846  1.00  0.00     0.051 C 
HETATM   18  C22 UNL     1      21.437   3.698  49.695  1.00  0.00     0.079 A 
BRANCH  18  19
HETATM   19  O1  UNL     1      20.995   4.122  50.933  1.00  0.00    -0.360 OA
HETATM   20  H21 UNL     1      20.013   4.318  51.078  1.00  0.00     0.217 HD
ENDBRANCH  18  19
ENDBRANCH  11  12
ENDBRANCH   1  11
BRANCH  10  21
HETATM   21  N2  UNL     1      24.959   3.359  51.303  1.00  0.00    -0.365 N 
HETATM   22  H15 UNL     1      25.669   3.448  52.092  1.00  0.00     0.162 HD
BRANCH  21  23
HETATM   23  C16 UNL     1      24.727   4.590  50.648  1.00  0.00     0.029 A 
HETATM   24  C17 UNL     1      25.033   4.848  49.331  1.00  0.00     0.029 A 
HETATM   25  C18 UNL     1      24.803   6.047  48.682  1.00  0.00     0.002 A 
HETATM   26  C19 UNL     1      24.230   7.021  49.436  1.00  0.00     0.000 A 
HETATM   27  C20 UNL     1      23.894   6.851  50.748  1.00  0.00     0.002 A 
HETATM   28  C21 UNL     1      24.152   5.638  51.321  1.00  0.00     0.029 A 
ENDBRANCH  21  23
ENDBRANCH  10  21
TORSDOF 5
ENDMDL
