MODEL 1
REMARK VINA RESULT:      -8.5      0.000      0.000
REMARK  4 active torsions:
REMARK  status: ('A' for Active; 'I' for Inactive)
REMARK    1  A    between atoms: C3_3  and  C4_4 
REMARK       I    between atoms: C4_4  and  N1_6 
REMARK    2  A    between atoms: N1_6  and  C5_7 
REMARK    3  A    between atoms: C10_13  and  N3_14 
REMARK    4  A    between atoms: C11_15  and  C12_16 
ROOT
HETATM    1  C5  UNL     1      23.483   2.018  51.099  1.00  0.00     0.035 A 
HETATM    2  C6  UNL     1      22.095   2.094  51.242  1.00  0.00     0.032 A 
HETATM    3  C7  UNL     1      21.452   1.389  52.260  1.00  0.00     0.035 A 
HETATM    4  C8  UNL     1      22.192   0.608  53.133  1.00  0.00     0.068 A 
HETATM    5  N2  UNL     1      21.660  -0.106  54.143  1.00  0.00    -0.258 NA
HETATM    6  C9  UNL     1      22.395  -0.856  54.979  1.00  0.00     0.147 A 
HETATM    7  C10 UNL     1      23.782  -0.911  54.808  1.00  0.00     0.055 A 
HETATM    8  C11 UNL     1      24.383  -0.198  53.786  1.00  0.00     0.014 A 
HETATM    9  C18 UNL     1      23.561   0.557  52.961  1.00  0.00     0.008 A 
HETATM   10  C19 UNL     1      24.223   1.242  51.964  1.00  0.00     0.044 A 
ENDROOT
BRANCH   1  11
HETATM   11  N1  UNL     1      23.915   2.816  49.996  1.00  0.00    -0.324 N 
HETATM   12  C4  UNL     1      24.394   4.122  50.264  1.00  0.00     0.245 C 
HETATM   13  O1  UNL     1      24.375   4.420  51.492  1.00  0.00    -0.268 OA
HETATM   14  H6  UNL     1      23.891   2.474  48.998  1.00  0.00     0.169 HD
BRANCH  12  15
HETATM   15  C3  UNL     1      24.864   5.039  49.231  1.00  0.00     0.070 C 
HETATM   16  C2  UNL     1      25.934   5.809  49.281  1.00  0.00    -0.026 C 
HETATM   17  C1  UNL     1      26.348   6.720  48.184  1.00  0.00     0.036 C 
ENDBRANCH  12  15
ENDBRANCH   1  11
BRANCH   8  18
HETATM   18  C12 UNL     1      25.817  -0.278  53.639  1.00  0.00    -0.021 A 
HETATM   19  C13 UNL     1      26.334  -1.393  52.981  1.00  0.00     0.012 A 
HETATM   20  C14 UNL     1      27.699  -1.528  52.808  1.00  0.00     0.002 A 
HETATM   21  C15 UNL     1      28.588  -0.569  53.278  1.00  0.00     0.019 A 
HETATM   22  C16 UNL     1      28.062   0.545  53.936  1.00  0.00     0.011 A 
HETATM   23 BR1  UNL     1      29.254   1.873  54.589  1.00  0.00    -0.051 Br
HETATM   24  C17 UNL     1      26.689   0.682  54.110  1.00  0.00     0.031 A 
ENDBRANCH   8  18
BRANCH   7  25
HETATM   25  N3  UNL     1      24.592  -1.705  55.686  1.00  0.00    -0.397 N 
HETATM   26  H10 UNL     1      25.449  -1.467  56.210  1.00  0.00     0.156 HD
HETATM   27  H11 UNL     1      24.201  -2.676  55.770  1.00  0.00     0.156 HD
ENDBRANCH   7  25
TORSDOF 4
ENDMDL
MODEL 2
REMARK VINA RESULT:      -8.1      2.463      5.807
REMARK  4 active torsions:
REMARK  status: ('A' for Active; 'I' for Inactive)
REMARK    1  A    between atoms: C3_3  and  C4_4 
REMARK       I    between atoms: C4_4  and  N1_6 
REMARK    2  A    between atoms: N1_6  and  C5_7 
REMARK    3  A    between atoms: C10_13  and  N3_14 
REMARK    4  A    between atoms: C11_15  and  C12_16 
ROOT
HETATM    1  C5  UNL     1      24.637  -0.026  53.380  1.00  0.00     0.035 A 
HETATM    2  C6  UNL     1      23.924  -0.830  54.274  1.00  0.00     0.032 A 
HETATM    3  C7  UNL     1      22.550  -0.651  54.441  1.00  0.00     0.035 A 
HETATM    4  C8  UNL     1      21.888   0.328  53.718  1.00  0.00     0.068 A 
HETATM    5  N2  UNL     1      20.568   0.573  53.812  1.00  0.00    -0.258 NA
HETATM    6  C9  UNL     1      19.945   1.527  53.102  1.00  0.00     0.147 A 
HETATM    7  C10 UNL     1      20.687   2.315  52.217  1.00  0.00     0.055 A 
HETATM    8  C11 UNL     1      22.048   2.108  52.079  1.00  0.00     0.014 A 
HETATM    9  C18 UNL     1      22.625   1.103  52.845  1.00  0.00     0.008 A 
HETATM   10  C19 UNL     1      23.983   0.949  52.660  1.00  0.00     0.044 A 
ENDROOT
BRANCH   1  11
HETATM   11  N1  UNL     1      26.018  -0.387  53.377  1.00  0.00    -0.324 N 
HETATM   12  C4  UNL     1      26.901   0.339  54.213  1.00  0.00     0.245 C 
HETATM   13  O1  UNL     1      26.327   1.249  54.876  1.00  0.00    -0.268 OA
HETATM   14  H6  UNL     1      26.403  -1.169  52.781  1.00  0.00     0.169 HD
BRANCH  12  15
HETATM   15  C3  UNL     1      28.332   0.072  54.304  1.00  0.00     0.070 C 
HETATM   16  C2  UNL     1      29.012  -0.844  53.642  1.00  0.00    -0.026 C 
HETATM   17  C1  UNL     1      30.475  -1.057  53.790  1.00  0.00     0.036 C 
ENDBRANCH  12  15
ENDBRANCH   1  11
BRANCH   8  18
HETATM   18  C12 UNL     1      22.784   2.939  51.156  1.00  0.00    -0.021 A 
HETATM   19  C13 UNL     1      23.051   2.415  49.892  1.00  0.00     0.012 A 
HETATM   20  C14 UNL     1      23.750   3.162  48.963  1.00  0.00     0.002 A 
HETATM   21  C15 UNL     1      24.204   4.442  49.254  1.00  0.00     0.019 A 
HETATM   22  C16 UNL     1      23.932   4.960  50.523  1.00  0.00     0.011 A 
HETATM   23 BR1  UNL     1      24.540   6.710  50.950  1.00  0.00    -0.051 Br
HETATM   24  C17 UNL     1      23.228   4.209  51.459  1.00  0.00     0.031 A 
ENDBRANCH   8  18
BRANCH   7  25
HETATM   25  N3  UNL     1      20.048   3.341  51.446  1.00  0.00    -0.397 N 
HETATM   26  H10 UNL     1      19.218   3.305  50.833  1.00  0.00     0.156 HD
HETATM   27  H11 UNL     1      20.550   4.255  51.564  1.00  0.00     0.156 HD
ENDBRANCH   7  25
TORSDOF 4
ENDMDL
MODEL 3
REMARK VINA RESULT:      -7.9      3.139      6.062
REMARK  4 active torsions:
REMARK  status: ('A' for Active; 'I' for Inactive)
REMARK    1  A    between atoms: C3_3  and  C4_4 
REMARK       I    between atoms: C4_4  and  N1_6 
REMARK    2  A    between atoms: N1_6  and  C5_7 
REMARK    3  A    between atoms: C10_13  and  N3_14 
REMARK    4  A    between atoms: C11_15  and  C12_16 
ROOT
HETATM    1  C5  UNL     1      24.016  -0.037  53.976  1.00  0.00     0.035 A 
HETATM    2  C6  UNL     1      23.605  -0.990  54.912  1.00  0.00     0.032 A 
HETATM    3  C7  UNL     1      22.282  -1.436  54.928  1.00  0.00     0.035 A 
HETATM    4  C8  UNL     1      21.372  -0.932  54.013  1.00  0.00     0.068 A 
HETATM    5  N2  UNL     1      20.079  -1.302  53.953  1.00  0.00    -0.258 NA
HETATM    6  C9  UNL     1      19.213  -0.802  53.058  1.00  0.00     0.147 A 
HETATM    7  C10 UNL     1      19.656   0.151  52.136  1.00  0.00     0.055 A 
HETATM    8  C11 UNL     1      20.975   0.569  52.152  1.00  0.00     0.014 A 
HETATM    9  C18 UNL     1      21.815   0.008  53.104  1.00  0.00     0.008 A 
HETATM   10  C19 UNL     1      23.114   0.467  53.065  1.00  0.00     0.044 A 
ENDROOT
BRANCH   1  11
HETATM   11  N1  UNL     1      25.401   0.265  54.149  1.00  0.00    -0.324 N 
HETATM   12  C4  UNL     1      26.339  -0.409  53.330  1.00  0.00     0.245 C 
HETATM   13  O1  UNL     1      25.806  -1.222  52.523  1.00  0.00    -0.268 OA
HETATM   14  H6  UNL     1      25.749   0.966  54.858  1.00  0.00     0.169 HD
BRANCH  12  15
HETATM   15  C3  UNL     1      27.780  -0.193  53.405  1.00  0.00     0.070 C 
HETATM   16  C2  UNL     1      28.720  -1.119  53.442  1.00  0.00    -0.026 C 
HETATM   17  C1  UNL     1      30.172  -0.819  53.519  1.00  0.00     0.036 C 
ENDBRANCH  12  15
ENDBRANCH   1  11
BRANCH   8  18
HETATM   18  C12 UNL     1      21.399   1.554  51.185  1.00  0.00    -0.021 A 
HETATM   19  C13 UNL     1      21.801   1.093  49.932  1.00  0.00     0.012 A 
HETATM   20  C14 UNL     1      22.217   1.986  48.963  1.00  0.00     0.002 A 
HETATM   21  C15 UNL     1      22.249   3.354  49.202  1.00  0.00     0.019 A 
HETATM   22  C16 UNL     1      21.844   3.807  50.460  1.00  0.00     0.011 A 
HETATM   23 BR1  UNL     1      21.877   5.675  50.817  1.00  0.00    -0.051 Br
HETATM   24  C17 UNL     1      21.425   2.910  51.436  1.00  0.00     0.031 A 
ENDBRANCH   8  18
BRANCH   7  25
HETATM   25  N3  UNL     1      18.752   0.703  51.169  1.00  0.00    -0.397 N 
HETATM   26  H10 UNL     1      17.938   1.326  51.287  1.00  0.00     0.156 HD
HETATM   27  H11 UNL     1      19.010   0.385  50.202  1.00  0.00     0.156 HD
ENDBRANCH   7  25
TORSDOF 4
ENDMDL
MODEL 4
REMARK VINA RESULT:      -7.9      3.038      5.857
REMARK  4 active torsions:
REMARK  status: ('A' for Active; 'I' for Inactive)
REMARK    1  A    between atoms: C3_3  and  C4_4 
REMARK       I    between atoms: C4_4  and  N1_6 
REMARK    2  A    between atoms: N1_6  and  C5_7 
REMARK    3  A    between atoms: C10_13  and  N3_14 
REMARK    4  A    between atoms: C11_15  and  C12_16 
ROOT
HETATM    1  C5  UNL     1      22.620  -0.270  52.853  1.00  0.00     0.035 A 
HETATM    2  C6  UNL     1      22.728  -1.180  53.909  1.00  0.00     0.032 A 
HETATM    3  C7  UNL     1      23.870  -1.195  54.711  1.00  0.00     0.035 A 
HETATM    4  C8  UNL     1      24.902  -0.306  54.460  1.00  0.00     0.068 A 
HETATM    5  N2  UNL     1      26.039  -0.247  55.179  1.00  0.00    -0.258 NA
HETATM    6  C9  UNL     1      27.027   0.624  54.921  1.00  0.00     0.147 A 
HETATM    7  C10 UNL     1      26.888   1.520  53.858  1.00  0.00     0.055 A 
HETATM    8  C11 UNL     1      25.741   1.505  53.084  1.00  0.00     0.014 A 
HETATM    9  C18 UNL     1      24.760   0.578  53.410  1.00  0.00     0.008 A 
HETATM   10  C19 UNL     1      23.644   0.616  52.600  1.00  0.00     0.044 A 
ENDROOT
BRANCH   1  11
HETATM   11  N1  UNL     1      21.374  -0.439  52.176  1.00  0.00    -0.324 N 
HETATM   12  C4  UNL     1      20.219   0.148  52.747  1.00  0.00     0.245 C 
HETATM   13  O1  UNL     1      20.452   0.767  53.824  1.00  0.00    -0.268 OA
HETATM   14  H6  UNL     1      21.282  -0.979  51.274  1.00  0.00     0.169 HD
BRANCH  12  15
HETATM   15  C3  UNL     1      18.887   0.051  52.159  1.00  0.00     0.070 C 
HETATM   16  C2  UNL     1      17.906  -0.743  52.543  1.00  0.00    -0.026 C 
HETATM   17  C1  UNL     1      16.573  -0.784  51.890  1.00  0.00     0.036 C 
ENDBRANCH  12  15
ENDBRANCH   1  11
BRANCH   8  18
HETATM   18  C12 UNL     1      25.630   2.445  51.994  1.00  0.00    -0.021 A 
HETATM   19  C13 UNL     1      26.456   2.247  50.888  1.00  0.00     0.012 A 
HETATM   20  C14 UNL     1      26.397   3.112  49.812  1.00  0.00     0.002 A 
HETATM   21  C15 UNL     1      25.526   4.194  49.797  1.00  0.00     0.019 A 
HETATM   22  C16 UNL     1      24.702   4.385  50.909  1.00  0.00     0.011 A 
HETATM   23 BR1  UNL     1      23.498   5.857  50.917  1.00  0.00    -0.051 Br
HETATM   24  C17 UNL     1      24.759   3.515  51.992  1.00  0.00     0.031 A 
ENDBRANCH   8  18
BRANCH   7  25
HETATM   25  N3  UNL     1      27.928   2.461  53.558  1.00  0.00    -0.397 N 
HETATM   26  H10 UNL     1      28.416   3.141  54.163  1.00  0.00     0.156 HD
HETATM   27  H11 UNL     1      28.196   2.403  52.545  1.00  0.00     0.156 HD
ENDBRANCH   7  25
TORSDOF 4
ENDMDL
MODEL 5
REMARK VINA RESULT:      -7.8      2.401      4.595
REMARK  4 active torsions:
REMARK  status: ('A' for Active; 'I' for Inactive)
REMARK    1  A    between atoms: C3_3  and  C4_4 
REMARK       I    between atoms: C4_4  and  N1_6 
REMARK    2  A    between atoms: N1_6  and  C5_7 
REMARK    3  A    between atoms: C10_13  and  N3_14 
REMARK    4  A    between atoms: C11_15  and  C12_16 
ROOT
HETATM    1  C5  UNL     1      26.101   1.052  52.031  1.00  0.00     0.035 A 
HETATM    2  C6  UNL     1      27.035   0.456  52.884  1.00  0.00     0.032 A 
HETATM    3  C7  UNL     1      26.608  -0.306  53.973  1.00  0.00     0.035 A 
HETATM    4  C8  UNL     1      25.253  -0.472  54.211  1.00  0.00     0.068 A 
HETATM    5  N2  UNL     1      24.749  -1.188  55.233  1.00  0.00    -0.258 NA
HETATM    6  C9  UNL     1      23.433  -1.338  55.446  1.00  0.00     0.147 A 
HETATM    7  C10 UNL     1      22.525  -0.728  54.575  1.00  0.00     0.055 A 
HETATM    8  C11 UNL     1      22.987   0.021  53.506  1.00  0.00     0.014 A 
HETATM    9  C18 UNL     1      24.361   0.131  53.347  1.00  0.00     0.008 A 
HETATM   10  C19 UNL     1      24.754   0.890  52.264  1.00  0.00     0.044 A 
ENDROOT
BRANCH   1  11
HETATM   11  N1  UNL     1      26.765   1.777  50.996  1.00  0.00    -0.324 N 
HETATM   12  C4  UNL     1      26.220   3.022  50.596  1.00  0.00     0.245 C 
HETATM   13  O1  UNL     1      25.175   3.338  51.233  1.00  0.00    -0.268 OA
HETATM   14  H6  UNL     1      27.640   1.425  50.521  1.00  0.00     0.169 HD
BRANCH  12  15
HETATM   15  C3  UNL     1      26.799   3.861  49.553  1.00  0.00     0.070 C 
HETATM   16  C2  UNL     1      26.612   5.156  49.382  1.00  0.00    -0.026 C 
HETATM   17  C1  UNL     1      27.239   5.944  48.290  1.00  0.00     0.036 C 
ENDBRANCH  12  15
ENDBRANCH   1  11
BRANCH   8  18
HETATM   18  C12 UNL     1      22.022   0.636  52.626  1.00  0.00    -0.021 A 
HETATM   19  C13 UNL     1      21.249  -0.207  51.830  1.00  0.00     0.012 A 
HETATM   20  C14 UNL     1      20.307   0.321  50.967  1.00  0.00     0.002 A 
HETATM   21  C15 UNL     1      20.104   1.692  50.866  1.00  0.00     0.019 A 
HETATM   22  C16 UNL     1      20.883   2.530  51.667  1.00  0.00     0.011 A 
HETATM   23 BR1  UNL     1      20.626   4.410  51.550  1.00  0.00    -0.051 Br
HETATM   24  C17 UNL     1      21.830   1.999  52.536  1.00  0.00     0.031 A 
ENDBRANCH   8  18
BRANCH   7  25
HETATM   25  N3  UNL     1      21.113  -0.870  54.779  1.00  0.00    -0.397 N 
HETATM   26  H10 UNL     1      20.341  -0.968  54.100  1.00  0.00     0.156 HD
HETATM   27  H11 UNL     1      20.887  -0.867  55.804  1.00  0.00     0.156 HD
ENDBRANCH   7  25
TORSDOF 4
ENDMDL
MODEL 6
REMARK VINA RESULT:      -7.7      3.016      5.273
REMARK  4 active torsions:
REMARK  status: ('A' for Active; 'I' for Inactive)
REMARK    1  A    between atoms: C3_3  and  C4_4 
REMARK       I    between atoms: C4_4  and  N1_6 
REMARK    2  A    between atoms: N1_6  and  C5_7 
REMARK    3  A    between atoms: C10_13  and  N3_14 
REMARK    4  A    between atoms: C11_15  and  C12_16 
ROOT
HETATM    1  C5  UNL     1      25.957   2.500  51.400  1.00  0.00     0.035 A 
HETATM    2  C6  UNL     1      26.802   1.573  52.017  1.00  0.00     0.032 A 
HETATM    3  C7  UNL     1      26.269   0.465  52.677  1.00  0.00     0.035 A 
HETATM    4  C8  UNL     1      24.896   0.282  52.721  1.00  0.00     0.068 A 
HETATM    5  N2  UNL     1      24.293  -0.755  53.332  1.00  0.00    -0.258 NA
HETATM    6  C9  UNL     1      22.961  -0.915  53.364  1.00  0.00     0.147 A 
HETATM    7  C10 UNL     1      22.143   0.030  52.737  1.00  0.00     0.055 A 
HETATM    8  C11 UNL     1      22.709   1.117  52.093  1.00  0.00     0.014 A 
HETATM    9  C18 UNL     1      24.094   1.217  52.100  1.00  0.00     0.008 A 
HETATM   10  C19 UNL     1      24.592   2.322  51.442  1.00  0.00     0.044 A 
ENDROOT
BRANCH   1  11
HETATM   11  N1  UNL     1      26.720   3.543  50.794  1.00  0.00    -0.324 N 
HETATM   12  C4  UNL     1      26.283   4.054  49.547  1.00  0.00     0.245 C 
HETATM   13  O1  UNL     1      25.233   3.496  49.118  1.00  0.00    -0.268 OA
HETATM   14  H6  UNL     1      27.591   3.945  51.235  1.00  0.00     0.169 HD
BRANCH  12  15
HETATM   15  C3  UNL     1      26.971   5.117  48.822  1.00  0.00     0.070 C 
HETATM   16  C2  UNL     1      28.258   5.180  48.540  1.00  0.00    -0.026 C 
HETATM   17  C1  UNL     1      28.886   6.301  47.794  1.00  0.00     0.036 C 
ENDBRANCH  12  15
ENDBRANCH   1  11
BRANCH   8  18
HETATM   18  C12 UNL     1      21.835   2.074  51.456  1.00  0.00    -0.021 A 
HETATM   19  C13 UNL     1      21.307   3.090  52.252  1.00  0.00     0.012 A 
HETATM   20  C14 UNL     1      20.465   4.037  51.701  1.00  0.00     0.002 A 
HETATM   21  C15 UNL     1      20.121   4.008  50.355  1.00  0.00     0.019 A 
HETATM   22  C16 UNL     1      20.654   2.986  49.566  1.00  0.00     0.011 A 
HETATM   23 BR1  UNL     1      20.202   2.921  47.720  1.00  0.00    -0.051 Br
HETATM   24  C17 UNL     1      21.503   2.033  50.119  1.00  0.00     0.031 A 
ENDBRANCH   8  18
BRANCH   7  25
HETATM   25  N3  UNL     1      20.717  -0.115  52.755  1.00  0.00    -0.397 N 
HETATM   26  H10 UNL     1      20.084  -0.631  52.122  1.00  0.00     0.156 HD
HETATM   27  H11 UNL     1      20.304   0.410  53.565  1.00  0.00     0.156 HD
ENDBRANCH   7  25
TORSDOF 4
ENDMDL
MODEL 7
REMARK VINA RESULT:      -7.6      3.411      6.904
REMARK  4 active torsions:
REMARK  status: ('A' for Active; 'I' for Inactive)
REMARK    1  A    between atoms: C3_3  and  C4_4 
REMARK       I    between atoms: C4_4  and  N1_6 
REMARK    2  A    between atoms: N1_6  and  C5_7 
REMARK    3  A    between atoms: C10_13  and  N3_14 
REMARK    4  A    between atoms: C11_15  and  C12_16 
ROOT
HETATM    1  C5  UNL     1      22.161   0.575  52.892  1.00  0.00     0.035 A 
HETATM    2  C6  UNL     1      22.890  -0.466  53.474  1.00  0.00     0.032 A 
HETATM    3  C7  UNL     1      24.282  -0.491  53.375  1.00  0.00     0.035 A 
HETATM    4  C8  UNL     1      24.945   0.519  52.698  1.00  0.00     0.068 A 
HETATM    5  N2  UNL     1      26.282   0.579  52.552  1.00  0.00    -0.258 NA
HETATM    6  C9  UNL     1      26.906   1.567  51.892  1.00  0.00     0.147 A 
HETATM    7  C10 UNL     1      26.147   2.594  51.322  1.00  0.00     0.055 A 
HETATM    8  C11 UNL     1      24.768   2.584  51.440  1.00  0.00     0.014 A 
HETATM    9  C18 UNL     1      24.191   1.531  52.137  1.00  0.00     0.008 A 
HETATM   10  C19 UNL     1      22.816   1.581  52.218  1.00  0.00     0.044 A 
ENDROOT
BRANCH   1  11
HETATM   11  N1  UNL     1      20.763   0.391  53.119  1.00  0.00    -0.324 N 
HETATM   12  C4  UNL     1      19.922   0.205  51.995  1.00  0.00     0.245 C 
HETATM   13  O1  UNL     1      20.544   0.230  50.895  1.00  0.00    -0.268 OA
HETATM   14  H6  UNL     1      20.336   0.387  54.084  1.00  0.00     0.169 HD
BRANCH  12  15
HETATM   15  C3  UNL     1      18.480   0.007  52.087  1.00  0.00     0.070 C 
HETATM   16  C2  UNL     1      17.853  -1.037  52.594  1.00  0.00    -0.026 C 
HETATM   17  C1  UNL     1      16.375  -1.167  52.652  1.00  0.00     0.036 C 
ENDBRANCH  12  15
ENDBRANCH   1  11
BRANCH   8  18
HETATM   18  C12 UNL     1      24.016   3.660  50.839  1.00  0.00    -0.021 A 
HETATM   19  C13 UNL     1      23.761   4.783  51.625  1.00  0.00     0.012 A 
HETATM   20  C14 UNL     1      23.047   5.846  51.107  1.00  0.00     0.002 A 
HETATM   21  C15 UNL     1      22.564   5.831  49.804  1.00  0.00     0.019 A 
HETATM   22  C16 UNL     1      22.823   4.702  49.024  1.00  0.00     0.011 A 
HETATM   23 BR1  UNL     1      22.176   4.652  47.237  1.00  0.00    -0.051 Br
HETATM   24  C17 UNL     1      23.543   3.631  49.544  1.00  0.00     0.031 A 
ENDBRANCH   8  18
BRANCH   7  25
HETATM   25  N3  UNL     1      26.786   3.662  50.611  1.00  0.00    -0.397 N 
HETATM   26  H10 UNL     1      27.517   4.327  50.910  1.00  0.00     0.156 HD
HETATM   27  H11 UNL     1      26.409   3.732  49.634  1.00  0.00     0.156 HD
ENDBRANCH   7  25
TORSDOF 4
ENDMDL
MODEL 8
REMARK VINA RESULT:      -7.4      3.181      5.541
REMARK  4 active torsions:
REMARK  status: ('A' for Active; 'I' for Inactive)
REMARK    1  A    between atoms: C3_3  and  C4_4 
REMARK       I    between atoms: C4_4  and  N1_6 
REMARK    2  A    between atoms: N1_6  and  C5_7 
REMARK    3  A    between atoms: C10_13  and  N3_14 
REMARK    4  A    between atoms: C11_15  and  C12_16 
ROOT
HETATM    1  C5  UNL     1      24.158   1.829  51.363  1.00  0.00     0.035 A 
HETATM    2  C6  UNL     1      25.219   1.202  52.024  1.00  0.00     0.032 A 
HETATM    3  C7  UNL     1      24.968   0.239  53.003  1.00  0.00     0.035 A 
HETATM    4  C8  UNL     1      23.662  -0.096  53.324  1.00  0.00     0.068 A 
HETATM    5  N2  UNL     1      23.325  -1.010  54.252  1.00  0.00    -0.258 NA
HETATM    6  C9  UNL     1      22.053  -1.322  54.548  1.00  0.00     0.147 A 
HETATM    7  C10 UNL     1      21.015  -0.676  53.869  1.00  0.00     0.055 A 
HETATM    8  C11 UNL     1      21.304   0.274  52.904  1.00  0.00     0.014 A 
HETATM    9  C18 UNL     1      22.641   0.544  52.650  1.00  0.00     0.008 A 
HETATM   10  C19 UNL     1      22.859   1.499  51.679  1.00  0.00     0.044 A 
ENDROOT
BRANCH   1  11
HETATM   11  N1  UNL     1      24.652   2.770  50.411  1.00  0.00    -0.324 N 
HETATM   12  C4  UNL     1      24.614   4.145  50.748  1.00  0.00     0.245 C 
HETATM   13  O1  UNL     1      24.128   4.367  51.894  1.00  0.00    -0.268 OA
HETATM   14  H6  UNL     1      25.041   2.484  49.472  1.00  0.00     0.169 HD
BRANCH  12  15
HETATM   15  C3  UNL     1      25.087   5.208  49.867  1.00  0.00     0.070 C 
HETATM   16  C2  UNL     1      26.267   5.289  49.284  1.00  0.00    -0.026 C 
HETATM   17  C1  UNL     1      26.676   6.408  48.397  1.00  0.00     0.036 C 
ENDBRANCH  12  15
ENDBRANCH   1  11
BRANCH   8  18
HETATM   18  C12 UNL     1      20.208   0.921  52.223  1.00  0.00    -0.021 A 
HETATM   19  C13 UNL     1      20.068   2.298  52.395  1.00  0.00     0.012 A 
HETATM   20  C14 UNL     1      19.039   2.975  51.768  1.00  0.00     0.002 A 
HETATM   21  C15 UNL     1      18.122   2.316  50.959  1.00  0.00     0.019 A 
HETATM   22  C16 UNL     1      18.269   0.937  50.793  1.00  0.00     0.011 A 
HETATM   23 BR1  UNL     1      17.030   0.008  49.691  1.00  0.00    -0.051 Br
HETATM   24  C17 UNL     1      19.305   0.254  51.422  1.00  0.00     0.031 A 
ENDBRANCH   8  18
BRANCH   7  25
HETATM   25  N3  UNL     1      19.647  -0.988  54.165  1.00  0.00    -0.397 N 
HETATM   26  H10 UNL     1      18.855  -1.202  53.539  1.00  0.00     0.156 HD
HETATM   27  H11 UNL     1      19.485  -0.984  55.202  1.00  0.00     0.156 HD
ENDBRANCH   7  25
TORSDOF 4
ENDMDL
MODEL 9
REMARK VINA RESULT:      -7.2      3.071      5.349
REMARK  4 active torsions:
REMARK  status: ('A' for Active; 'I' for Inactive)
REMARK    1  A    between atoms: C3_3  and  C4_4 
REMARK       I    between atoms: C4_4  and  N1_6 
REMARK    2  A    between atoms: N1_6  and  C5_7 
REMARK    3  A    between atoms: C10_13  and  N3_14 
REMARK    4  A    between atoms: C11_15  and  C12_16 
ROOT
HETATM    1  C5  UNL     1      25.822   3.021  50.354  1.00  0.00     0.035 A 
HETATM    2  C6  UNL     1      26.768   2.588  51.287  1.00  0.00     0.032 A 
HETATM    3  C7  UNL     1      26.391   1.742  52.331  1.00  0.00     0.035 A 
HETATM    4  C8  UNL     1      25.073   1.331  52.445  1.00  0.00     0.068 A 
HETATM    5  N2  UNL     1      24.618   0.518  53.417  1.00  0.00    -0.258 NA
HETATM    6  C9  UNL     1      23.337   0.129  53.510  1.00  0.00     0.147 A 
HETATM    7  C10 UNL     1      22.415   0.581  52.561  1.00  0.00     0.055 A 
HETATM    8  C11 UNL     1      22.827   1.419  51.539  1.00  0.00     0.014 A 
HETATM    9  C18 UNL     1      24.167   1.779  51.505  1.00  0.00     0.008 A 
HETATM   10  C19 UNL     1      24.511   2.614  50.464  1.00  0.00     0.044 A 
ENDROOT
BRANCH   1  11
HETATM   11  N1  UNL     1      26.433   3.872  49.384  1.00  0.00    -0.324 N 
HETATM   12  C4  UNL     1      26.151   5.259  49.440  1.00  0.00     0.245 C 
HETATM   13  O1  UNL     1      25.364   5.573  50.378  1.00  0.00    -0.268 OA
HETATM   14  H6  UNL     1      27.081   3.511  48.633  1.00  0.00     0.169 HD
BRANCH  12  15
HETATM   15  C3  UNL     1      26.709   6.236  48.511  1.00  0.00     0.070 C 
HETATM   16  C2  UNL     1      27.983   6.415  48.217  1.00  0.00    -0.026 C 
HETATM   17  C1  UNL     1      28.474   7.435  47.256  1.00  0.00     0.036 C 
ENDBRANCH  12  15
ENDBRANCH   1  11
BRANCH   8  18
HETATM   18  C12 UNL     1      21.848   1.866  50.576  1.00  0.00    -0.021 A 
HETATM   19  C13 UNL     1      21.763   1.165  49.374  1.00  0.00     0.012 A 
HETATM   20  C14 UNL     1      20.846   1.543  48.412  1.00  0.00     0.002 A 
HETATM   21  C15 UNL     1      19.992   2.621  48.607  1.00  0.00     0.019 A 
HETATM   22  C16 UNL     1      20.084   3.319  49.814  1.00  0.00     0.011 A 
HETATM   23 BR1  UNL     1      18.927   4.798  50.110  1.00  0.00    -0.051 Br
HETATM   24  C17 UNL     1      21.006   2.938  50.784  1.00  0.00     0.031 A 
ENDBRANCH   8  18
BRANCH   7  25
HETATM   25  N3  UNL     1      21.039   0.183  52.635  1.00  0.00    -0.397 N 
HETATM   26  H10 UNL     1      20.503  -0.494  52.070  1.00  0.00     0.156 HD
HETATM   27  H11 UNL     1      20.549   0.697  53.408  1.00  0.00     0.156 HD
ENDBRANCH   7  25
TORSDOF 4
ENDMDL
