MODEL 1
REMARK VINA RESULT:      -7.1      0.000      0.000
REMARK  8 active torsions:
REMARK  status: ('A' for Active; 'I' for Inactive)
REMARK    1  A    between atoms: C5_6  and  N1_7 
REMARK    2  A    between atoms: N1_7  and  C6_8 
REMARK    3  A    between atoms: C9_13  and  C10_14 
REMARK    4  A    between atoms: C10_14  and  O1_15 
REMARK    5  A    between atoms: O1_15  and  C11_16 
REMARK    6  A    between atoms: C11_16  and  C12_17 
REMARK    7  A    between atoms: C12_17  and  C13_18 
REMARK    8  A    between atoms: C13_18  and  N4_19 
ROOT
HETATM    1  C6  UNL     1      26.925   1.820  51.766  1.00  0.00     0.111 A 
HETATM    2  N2  UNL     1      27.921   2.511  52.270  1.00  0.00    -0.228 NA
HETATM    3  C7  UNL     1      28.314   2.366  53.619  1.00  0.00     0.235 A 
HETATM    4  N3  UNL     1      27.722   1.562  54.401  1.00  0.00    -0.246 NA
HETATM    5  C8  UNL     1      26.638   0.780  53.930  1.00  0.00     0.041 A 
HETATM    6  C9  UNL     1      26.053  -0.065  54.799  1.00  0.00     0.026 C 
HETATM    7  C17 UNL     1      26.114   0.833  52.550  1.00  0.00     0.137 A 
ENDROOT
BRANCH   6   8
HETATM    8  C10 UNL     1      24.917  -0.987  54.572  1.00  0.00     0.197 C 
BRANCH   8   9
HETATM    9  O1  UNL     1      24.119  -1.135  55.686  1.00  0.00    -0.387 OA
BRANCH   9  10
HETATM   10  C11 UNL     1      22.833  -1.543  55.465  1.00  0.00     0.169 C 
BRANCH  10  11
HETATM   11  C12 UNL     1      22.350  -1.049  54.096  1.00  0.00     0.056 C 
BRANCH  11  12
HETATM   12  C13 UNL     1      21.357   0.063  54.360  1.00  0.00     0.277 C 
BRANCH  12  13
HETATM   13  N4  UNL     1      21.170   0.912  53.218  1.00  0.00     0.113 N 
HETATM   14  C14 UNL     1      22.496   1.386  52.800  1.00  0.00     0.301 C 
HETATM   15  C15 UNL     1      22.315   1.546  51.302  1.00  0.00     0.200 C 
HETATM   16  O2  UNL     1      21.558   0.393  51.018  1.00  0.00    -0.361 OA
HETATM   17  C16 UNL     1      20.652   0.231  52.052  1.00  0.00     0.440 C 
ENDBRANCH  12  13
ENDBRANCH  11  12
ENDBRANCH  10  11
ENDBRANCH   9  10
ENDBRANCH   8   9
ENDBRANCH   6   8
BRANCH   1  18
HETATM   18  N1  UNL     1      26.638   2.071  50.377  1.00  0.00    -0.344 N 
HETATM   19  H4  UNL     1      26.711   1.228  49.729  1.00  0.00     0.167 HD
BRANCH  18  20
HETATM   20  C5  UNL     1      26.287   3.430  50.028  1.00  0.00     0.034 A 
HETATM   21  C4  UNL     1      27.040   4.232  49.166  1.00  0.00     0.029 A 
HETATM   22  C3  UNL     1      26.597   5.525  48.916  1.00  0.00     0.004 A 
HETATM   23  C2  UNL     1      25.455   6.037  49.482  1.00  0.00     0.019 A 
HETATM   24  C1  UNL     1      24.680   5.270  50.345  1.00  0.00     0.013 A 
HETATM   25 BR1  UNL     1      23.092   5.925  51.161  1.00  0.00    -0.051 Br
HETATM   26  C18 UNL     1      25.131   3.986  50.585  1.00  0.00     0.048 A 
ENDBRANCH  18  20
ENDBRANCH   1  18
TORSDOF 8
ENDMDL
MODEL 2
REMARK VINA RESULT:      -7.0      2.492      5.053
REMARK  8 active torsions:
REMARK  status: ('A' for Active; 'I' for Inactive)
REMARK    1  A    between atoms: C5_6  and  N1_7 
REMARK    2  A    between atoms: N1_7  and  C6_8 
REMARK    3  A    between atoms: C9_13  and  C10_14 
REMARK    4  A    between atoms: C10_14  and  O1_15 
REMARK    5  A    between atoms: O1_15  and  C11_16 
REMARK    6  A    between atoms: C11_16  and  C12_17 
REMARK    7  A    between atoms: C12_17  and  C13_18 
REMARK    8  A    between atoms: C13_18  and  N4_19 
ROOT
HETATM    1  C6  UNL     1      22.915   3.363  49.770  1.00  0.00     0.111 A 
HETATM    2  N2  UNL     1      22.680   3.232  48.486  1.00  0.00    -0.228 NA
HETATM    3  C7  UNL     1      22.011   2.100  47.967  1.00  0.00     0.235 A 
HETATM    4  N3  UNL     1      21.608   1.164  48.722  1.00  0.00    -0.246 NA
HETATM    5  C8  UNL     1      21.823   1.234  50.120  1.00  0.00     0.041 A 
HETATM    6  C9  UNL     1      21.365   0.219  50.876  1.00  0.00     0.026 C 
HETATM    7  C17 UNL     1      22.514   2.350  50.799  1.00  0.00     0.137 A 
ENDROOT
BRANCH   6   8
HETATM    8  C10 UNL     1      21.454   0.042  52.343  1.00  0.00     0.197 C 
BRANCH   8   9
HETATM    9  O1  UNL     1      22.539  -0.718  52.725  1.00  0.00    -0.387 OA
BRANCH   9  10
HETATM   10  C11 UNL     1      23.339  -0.191  53.699  1.00  0.00     0.169 C 
BRANCH  10  11
HETATM   11  C12 UNL     1      24.652   0.314  53.088  1.00  0.00     0.056 C 
BRANCH  11  12
HETATM   12  C13 UNL     1      25.715  -0.706  53.436  1.00  0.00     0.277 C 
BRANCH  12  13
HETATM   13  N4  UNL     1      27.042  -0.164  53.353  1.00  0.00     0.113 N 
HETATM   14  C14 UNL     1      26.963   1.074  52.567  1.00  0.00     0.301 C 
HETATM   15  C15 UNL     1      28.080   1.903  53.174  1.00  0.00     0.200 C 
HETATM   16  O2  UNL     1      27.902   1.601  54.537  1.00  0.00    -0.361 OA
HETATM   17  C16 UNL     1      27.591   0.255  54.623  1.00  0.00     0.440 C 
ENDBRANCH  12  13
ENDBRANCH  11  12
ENDBRANCH  10  11
ENDBRANCH   9  10
ENDBRANCH   8   9
ENDBRANCH   6   8
BRANCH   1  18
HETATM   18  N1  UNL     1      23.606   4.568  50.153  1.00  0.00    -0.344 N 
HETATM   19  H4  UNL     1      23.065   5.229  50.791  1.00  0.00     0.167 HD
BRANCH  18  20
HETATM   20  C5  UNL     1      24.943   4.737  49.628  1.00  0.00     0.034 A 
HETATM   21  C4  UNL     1      25.940   3.762  49.708  1.00  0.00     0.029 A 
HETATM   22  C3  UNL     1      27.188   4.051  49.168  1.00  0.00     0.004 A 
HETATM   23  C2  UNL     1      27.471   5.251  48.563  1.00  0.00     0.019 A 
HETATM   24  C1  UNL     1      26.503   6.246  48.464  1.00  0.00     0.013 A 
HETATM   25 BR1  UNL     1      26.837   7.928  47.640  1.00  0.00    -0.051 Br
HETATM   26  C18 UNL     1      25.268   5.946  49.005  1.00  0.00     0.048 A 
ENDBRANCH  18  20
ENDBRANCH   1  18
TORSDOF 8
ENDMDL
MODEL 3
REMARK VINA RESULT:      -6.7      2.492      5.201
REMARK  8 active torsions:
REMARK  status: ('A' for Active; 'I' for Inactive)
REMARK    1  A    between atoms: C5_6  and  N1_7 
REMARK    2  A    between atoms: N1_7  and  C6_8 
REMARK    3  A    between atoms: C9_13  and  C10_14 
REMARK    4  A    between atoms: C10_14  and  O1_15 
REMARK    5  A    between atoms: O1_15  and  C11_16 
REMARK    6  A    between atoms: C11_16  and  C12_17 
REMARK    7  A    between atoms: C12_17  and  C13_18 
REMARK    8  A    between atoms: C13_18  and  N4_19 
ROOT
HETATM    1  C6  UNL     1      24.854   2.926  51.653  1.00  0.00     0.111 A 
HETATM    2  N2  UNL     1      25.474   3.762  50.854  1.00  0.00    -0.228 NA
HETATM    3  C7  UNL     1      25.036   3.985  49.530  1.00  0.00     0.235 A 
HETATM    4  N3  UNL     1      24.023   3.387  49.057  1.00  0.00    -0.246 NA
HETATM    5  C8  UNL     1      23.299   2.470  49.858  1.00  0.00     0.041 A 
HETATM    6  C9  UNL     1      22.225   1.872  49.309  1.00  0.00     0.026 C 
HETATM    7  C17 UNL     1      23.646   2.132  51.254  1.00  0.00     0.137 A 
ENDROOT
BRANCH   6   8
HETATM    8  C10 UNL     1      21.303   0.886  49.917  1.00  0.00     0.197 C 
BRANCH   8   9
HETATM    9  O1  UNL     1      20.025   1.377  50.078  1.00  0.00    -0.387 OA
BRANCH   9  10
HETATM   10  C11 UNL     1      19.352   0.972  51.196  1.00  0.00     0.169 C 
BRANCH  10  11
HETATM   11  C12 UNL     1      20.213   1.203  52.444  1.00  0.00     0.056 C 
BRANCH  11  12
HETATM   12  C13 UNL     1      20.024  -0.007  53.333  1.00  0.00     0.277 C 
BRANCH  12  13
HETATM   13  N4  UNL     1      21.205  -0.820  53.407  1.00  0.00     0.113 N 
HETATM   14  C14 UNL     1      22.318   0.054  53.799  1.00  0.00     0.301 C 
HETATM   15  C15 UNL     1      23.207  -0.897  54.579  1.00  0.00     0.200 C 
HETATM   16  O2  UNL     1      22.232  -1.615  55.298  1.00  0.00    -0.361 OA
HETATM   17  C16 UNL     1      21.165  -1.830  54.442  1.00  0.00     0.440 C 
ENDBRANCH  12  13
ENDBRANCH  11  12
ENDBRANCH  10  11
ENDBRANCH   9  10
ENDBRANCH   8   9
ENDBRANCH   6   8
BRANCH   1  18
HETATM   18  N1  UNL     1      25.413   2.800  52.974  1.00  0.00    -0.344 N 
HETATM   19  H4  UNL     1      24.938   3.376  53.735  1.00  0.00     0.167 HD
BRANCH  18  20
HETATM   20  C5  UNL     1      26.548   1.914  53.110  1.00  0.00     0.034 A 
HETATM   21  C4  UNL     1      27.816   2.331  53.522  1.00  0.00     0.029 A 
HETATM   22  C3  UNL     1      28.826   1.380  53.607  1.00  0.00     0.004 A 
HETATM   23  C2  UNL     1      28.621   0.056  53.304  1.00  0.00     0.019 A 
HETATM   24  C1  UNL     1      27.372  -0.397  52.890  1.00  0.00     0.013 A 
HETATM   25 BR1  UNL     1      27.029  -2.216  52.454  1.00  0.00    -0.051 Br
HETATM   26  C18 UNL     1      26.378   0.559  52.810  1.00  0.00     0.048 A 
ENDBRANCH  18  20
ENDBRANCH   1  18
TORSDOF 8
ENDMDL
MODEL 4
REMARK VINA RESULT:      -6.7      3.466      5.159
REMARK  8 active torsions:
REMARK  status: ('A' for Active; 'I' for Inactive)
REMARK    1  A    between atoms: C5_6  and  N1_7 
REMARK    2  A    between atoms: N1_7  and  C6_8 
REMARK    3  A    between atoms: C9_13  and  C10_14 
REMARK    4  A    between atoms: C10_14  and  O1_15 
REMARK    5  A    between atoms: O1_15  and  C11_16 
REMARK    6  A    between atoms: C11_16  and  C12_17 
REMARK    7  A    between atoms: C12_17  and  C13_18 
REMARK    8  A    between atoms: C13_18  and  N4_19 
ROOT
HETATM    1  C6  UNL     1      24.256  -0.415  53.461  1.00  0.00     0.111 A 
HETATM    2  N2  UNL     1      24.854  -0.773  54.573  1.00  0.00    -0.228 NA
HETATM    3  C7  UNL     1      24.132  -1.313  55.661  1.00  0.00     0.235 A 
HETATM    4  N3  UNL     1      22.876  -1.475  55.609  1.00  0.00    -0.246 NA
HETATM    5  C8  UNL     1      22.159  -1.113  54.442  1.00  0.00     0.041 A 
HETATM    6  C9  UNL     1      20.828  -1.317  54.436  1.00  0.00     0.026 C 
HETATM    7  C17 UNL     1      22.779  -0.531  53.234  1.00  0.00     0.137 A 
ENDROOT
BRANCH   6   8
HETATM    8  C10 UNL     1      19.852  -1.033  53.360  1.00  0.00     0.197 C 
BRANCH   8   9
HETATM    9  O1  UNL     1      19.746   0.312  53.077  1.00  0.00    -0.387 OA
BRANCH   9  10
HETATM   10  C11 UNL     1      19.173   0.639  51.880  1.00  0.00     0.169 C 
BRANCH  10  11
HETATM   11  C12 UNL     1      20.254   0.824  50.808  1.00  0.00     0.056 C 
BRANCH  11  12
HETATM   12  C13 UNL     1      20.176   2.267  50.357  1.00  0.00     0.277 C 
BRANCH  12  13
HETATM   13  N4  UNL     1      21.464   2.902  50.331  1.00  0.00     0.113 N 
HETATM   14  C14 UNL     1      21.824   3.223  51.718  1.00  0.00     0.301 C 
HETATM   15  C15 UNL     1      23.338   3.116  51.682  1.00  0.00     0.200 C 
HETATM   16  O2  UNL     1      23.487   1.971  50.876  1.00  0.00    -0.361 OA
HETATM   17  C16 UNL     1      22.537   2.048  49.873  1.00  0.00     0.440 C 
ENDBRANCH  12  13
ENDBRANCH  11  12
ENDBRANCH  10  11
ENDBRANCH   9  10
ENDBRANCH   8   9
ENDBRANCH   6   8
BRANCH   1  18
HETATM   18  N1  UNL     1      25.118   0.120  52.438  1.00  0.00    -0.344 N 
HETATM   19  H4  UNL     1      24.728   0.100  51.447  1.00  0.00     0.167 HD
BRANCH  18  20
HETATM   20  C5  UNL     1      26.405   0.615  52.876  1.00  0.00     0.034 A 
HETATM   21  C4  UNL     1      26.675   1.961  53.132  1.00  0.00     0.029 A 
HETATM   22  C3  UNL     1      27.956   2.310  53.543  1.00  0.00     0.004 A 
HETATM   23  C2  UNL     1      28.956   1.382  53.706  1.00  0.00     0.019 A 
HETATM   24  C1  UNL     1      28.725   0.032  53.461  1.00  0.00     0.013 A 
HETATM   25 BR1  UNL     1      30.071  -1.296  53.666  1.00  0.00    -0.051 Br
HETATM   26  C18 UNL     1      27.448  -0.299  53.052  1.00  0.00     0.048 A 
ENDBRANCH  18  20
ENDBRANCH   1  18
TORSDOF 8
ENDMDL
MODEL 5
REMARK VINA RESULT:      -6.6      2.300      5.115
REMARK  8 active torsions:
REMARK  status: ('A' for Active; 'I' for Inactive)
REMARK    1  A    between atoms: C5_6  and  N1_7 
REMARK    2  A    between atoms: N1_7  and  C6_8 
REMARK    3  A    between atoms: C9_13  and  C10_14 
REMARK    4  A    between atoms: C10_14  and  O1_15 
REMARK    5  A    between atoms: O1_15  and  C11_16 
REMARK    6  A    between atoms: C11_16  and  C12_17 
REMARK    7  A    between atoms: C12_17  and  C13_18 
REMARK    8  A    between atoms: C13_18  and  N4_19 
ROOT
HETATM    1  C6  UNL     1      21.783   2.576  50.486  1.00  0.00     0.111 A 
HETATM    2  N2  UNL     1      20.992   3.603  50.691  1.00  0.00    -0.228 NA
HETATM    3  C7  UNL     1      20.152   3.676  51.825  1.00  0.00     0.235 A 
HETATM    4  N3  UNL     1      20.129   2.753  52.694  1.00  0.00    -0.246 NA
HETATM    5  C8  UNL     1      20.955   1.613  52.544  1.00  0.00     0.041 A 
HETATM    6  C9  UNL     1      20.899   0.668  53.502  1.00  0.00     0.026 C 
HETATM    7  C17 UNL     1      21.874   1.397  51.407  1.00  0.00     0.137 A 
ENDROOT
BRANCH   6   8
HETATM    8  C10 UNL     1      21.647  -0.607  53.591  1.00  0.00     0.197 C 
BRANCH   8   9
HETATM    9  O1  UNL     1      22.839  -0.480  54.272  1.00  0.00    -0.387 OA
BRANCH   9  10
HETATM   10  C11 UNL     1      23.977  -0.491  53.516  1.00  0.00     0.169 C 
BRANCH  10  11
HETATM   11  C12 UNL     1      25.209  -0.646  54.416  1.00  0.00     0.056 C 
BRANCH  11  12
HETATM   12  C13 UNL     1      26.413  -0.295  53.570  1.00  0.00     0.277 C 
BRANCH  12  13
HETATM   13  N4  UNL     1      27.096   0.874  54.047  1.00  0.00     0.113 N 
HETATM   14  C14 UNL     1      28.388   0.437  54.592  1.00  0.00     0.301 C 
HETATM   15  C15 UNL     1      29.268   1.643  54.320  1.00  0.00     0.200 C 
HETATM   16  O2  UNL     1      28.821   1.991  53.031  1.00  0.00    -0.361 OA
HETATM   17  C16 UNL     1      27.448   1.819  53.011  1.00  0.00     0.440 C 
ENDBRANCH  12  13
ENDBRANCH  11  12
ENDBRANCH  10  11
ENDBRANCH   9  10
ENDBRANCH   8   9
ENDBRANCH   6   8
BRANCH   1  18
HETATM   18  N1  UNL     1      22.582   2.638  49.289  1.00  0.00    -0.344 N 
HETATM   19  H4  UNL     1      22.202   2.099  48.451  1.00  0.00     0.167 HD
BRANCH  18  20
HETATM   20  C5  UNL     1      23.797   3.419  49.366  1.00  0.00     0.034 A 
HETATM   21  C4  UNL     1      24.975   2.967  49.967  1.00  0.00     0.029 A 
HETATM   22  C3  UNL     1      26.075   3.817  49.980  1.00  0.00     0.004 A 
HETATM   23  C2  UNL     1      26.043   5.074  49.427  1.00  0.00     0.019 A 
HETATM   24  C1  UNL     1      24.888   5.559  48.821  1.00  0.00     0.013 A 
HETATM   25 BR1  UNL     1      24.783   7.290  48.041  1.00  0.00    -0.051 Br
HETATM   26  C18 UNL     1      23.803   4.703  48.815  1.00  0.00     0.048 A 
ENDBRANCH  18  20
ENDBRANCH   1  18
TORSDOF 8
ENDMDL
MODEL 6
REMARK VINA RESULT:      -6.6      1.513      1.909
REMARK  8 active torsions:
REMARK  status: ('A' for Active; 'I' for Inactive)
REMARK    1  A    between atoms: C5_6  and  N1_7 
REMARK    2  A    between atoms: N1_7  and  C6_8 
REMARK    3  A    between atoms: C9_13  and  C10_14 
REMARK    4  A    between atoms: C10_14  and  O1_15 
REMARK    5  A    between atoms: O1_15  and  C11_16 
REMARK    6  A    between atoms: C11_16  and  C12_17 
REMARK    7  A    between atoms: C12_17  and  C13_18 
REMARK    8  A    between atoms: C13_18  and  N4_19 
ROOT
HETATM    1  C6  UNL     1      26.611   2.156  51.221  1.00  0.00     0.111 A 
HETATM    2  N2  UNL     1      27.606   2.578  51.965  1.00  0.00    -0.228 NA
HETATM    3  C7  UNL     1      27.690   2.258  53.339  1.00  0.00     0.235 A 
HETATM    4  N3  UNL     1      26.807   1.550  53.911  1.00  0.00    -0.246 NA
HETATM    5  C8  UNL     1      25.703   1.057  53.174  1.00  0.00     0.041 A 
HETATM    6  C9  UNL     1      24.801   0.300  53.828  1.00  0.00     0.026 C 
HETATM    7  C17 UNL     1      25.481   1.317  51.736  1.00  0.00     0.137 A 
ENDROOT
BRANCH   6   8
HETATM    8  C10 UNL     1      23.570  -0.334  53.304  1.00  0.00     0.197 C 
BRANCH   8   9
HETATM    9  O1  UNL     1      22.439   0.042  53.997  1.00  0.00    -0.387 OA
BRANCH   9  10
HETATM   10  C11 UNL     1      21.246  -0.120  53.351  1.00  0.00     0.169 C 
BRANCH  10  11
HETATM   11  C12 UNL     1      21.390   0.260  51.872  1.00  0.00     0.056 C 
BRANCH  11  12
HETATM   12  C13 UNL     1      20.577   1.520  51.666  1.00  0.00     0.277 C 
BRANCH  12  13
HETATM   13  N4  UNL     1      20.847   2.144  50.401  1.00  0.00     0.113 N 
HETATM   14  C14 UNL     1      22.278   2.471  50.368  1.00  0.00     0.301 C 
HETATM   15  C15 UNL     1      22.594   2.351  48.888  1.00  0.00     0.200 C 
HETATM   16  O2  UNL     1      21.849   1.200  48.568  1.00  0.00    -0.361 OA
HETATM   17  C16 UNL     1      20.653   1.278  49.260  1.00  0.00     0.440 C 
ENDBRANCH  12  13
ENDBRANCH  11  12
ENDBRANCH  10  11
ENDBRANCH   9  10
ENDBRANCH   8   9
ENDBRANCH   6   8
BRANCH   1  18
HETATM   18  N1  UNL     1      26.657   2.559  49.839  1.00  0.00    -0.344 N 
HETATM   19  H4  UNL     1      26.767   1.771  49.130  1.00  0.00     0.167 HD
BRANCH  18  20
HETATM   20  C5  UNL     1      26.553   3.979  49.579  1.00  0.00     0.034 A 
HETATM   21  C4  UNL     1      27.445   4.690  48.774  1.00  0.00     0.029 A 
HETATM   22  C3  UNL     1      27.238   6.054  48.607  1.00  0.00     0.004 A 
HETATM   23  C2  UNL     1      26.193   6.720  49.202  1.00  0.00     0.019 A 
HETATM   24  C1  UNL     1      25.284   6.045  50.010  1.00  0.00     0.013 A 
HETATM   25 BR1  UNL     1      23.820   6.913  50.860  1.00  0.00    -0.051 Br
HETATM   26  C18 UNL     1      25.503   4.690  50.167  1.00  0.00     0.048 A 
ENDBRANCH  18  20
ENDBRANCH   1  18
TORSDOF 8
ENDMDL
MODEL 7
REMARK VINA RESULT:      -6.6      2.293      4.926
REMARK  8 active torsions:
REMARK  status: ('A' for Active; 'I' for Inactive)
REMARK    1  A    between atoms: C5_6  and  N1_7 
REMARK    2  A    between atoms: N1_7  and  C6_8 
REMARK    3  A    between atoms: C9_13  and  C10_14 
REMARK    4  A    between atoms: C10_14  and  O1_15 
REMARK    5  A    between atoms: O1_15  and  C11_16 
REMARK    6  A    between atoms: C11_16  and  C12_17 
REMARK    7  A    between atoms: C12_17  and  C13_18 
REMARK    8  A    between atoms: C13_18  and  N4_19 
ROOT
HETATM    1  C6  UNL     1      24.159   3.120  50.933  1.00  0.00     0.111 A 
HETATM    2  N2  UNL     1      23.497   3.191  49.802  1.00  0.00    -0.228 NA
HETATM    3  C7  UNL     1      22.452   2.290  49.498  1.00  0.00     0.235 A 
HETATM    4  N3  UNL     1      22.108   1.375  50.305  1.00  0.00    -0.246 NA
HETATM    5  C8  UNL     1      22.774   1.235  51.547  1.00  0.00     0.041 A 
HETATM    6  C9  UNL     1      22.361   0.254  52.372  1.00  0.00     0.026 C 
HETATM    7  C17 UNL     1      23.888   2.097  51.995  1.00  0.00     0.137 A 
ENDROOT
BRANCH   6   8
HETATM    8  C10 UNL     1      22.876  -0.108  53.712  1.00  0.00     0.197 C 
BRANCH   8   9
HETATM    9  O1  UNL     1      23.977  -0.936  53.655  1.00  0.00    -0.387 OA
BRANCH   9  10
HETATM   10  C11 UNL     1      24.856  -0.853  54.698  1.00  0.00     0.169 C 
BRANCH  10  11
HETATM   11  C12 UNL     1      25.929   0.203  54.404  1.00  0.00     0.056 C 
BRANCH  11  12
HETATM   12  C13 UNL     1      26.898  -0.424  53.424  1.00  0.00     0.277 C 
BRANCH  12  13
HETATM   13  N4  UNL     1      28.104   0.342  53.282  1.00  0.00     0.113 N 
HETATM   14  C14 UNL     1      27.713   1.733  53.019  1.00  0.00     0.301 C 
HETATM   15  C15 UNL     1      28.857   2.506  53.650  1.00  0.00     0.200 C 
HETATM   16  O2  UNL     1      29.048   1.753  54.824  1.00  0.00    -0.361 OA
HETATM   17  C16 UNL     1      28.903   0.419  54.485  1.00  0.00     0.440 C 
ENDBRANCH  12  13
ENDBRANCH  11  12
ENDBRANCH  10  11
ENDBRANCH   9  10
ENDBRANCH   8   9
ENDBRANCH   6   8
BRANCH   1  18
HETATM   18  N1  UNL     1      25.197   4.103  51.106  1.00  0.00    -0.344 N 
HETATM   19  H4  UNL     1      26.103   3.748  51.541  1.00  0.00     0.167 HD
BRANCH  18  20
HETATM   20  C5  UNL     1      24.887   5.449  50.674  1.00  0.00     0.034 A 
HETATM   21  C4  UNL     1      23.963   6.278  51.313  1.00  0.00     0.029 A 
HETATM   22  C3  UNL     1      23.751   7.550  50.796  1.00  0.00     0.004 A 
HETATM   23  C2  UNL     1      24.415   8.015  49.686  1.00  0.00     0.019 A 
HETATM   24  C1  UNL     1      25.342   7.218  49.023  1.00  0.00     0.013 A 
HETATM   25 BR1  UNL     1      26.290   7.806  47.482  1.00  0.00    -0.051 Br
HETATM   26  C18 UNL     1      25.543   5.956  49.548  1.00  0.00     0.048 A 
ENDBRANCH  18  20
ENDBRANCH   1  18
TORSDOF 8
ENDMDL
MODEL 8
REMARK VINA RESULT:      -6.4      2.853      6.736
REMARK  8 active torsions:
REMARK  status: ('A' for Active; 'I' for Inactive)
REMARK    1  A    between atoms: C5_6  and  N1_7 
REMARK    2  A    between atoms: N1_7  and  C6_8 
REMARK    3  A    between atoms: C9_13  and  C10_14 
REMARK    4  A    between atoms: C10_14  and  O1_15 
REMARK    5  A    between atoms: O1_15  and  C11_16 
REMARK    6  A    between atoms: C11_16  and  C12_17 
REMARK    7  A    between atoms: C12_17  and  C13_18 
REMARK    8  A    between atoms: C13_18  and  N4_19 
ROOT
HETATM    1  C6  UNL     1      22.022   2.594  49.765  1.00  0.00     0.111 A 
HETATM    2  N2  UNL     1      21.216   3.571  50.109  1.00  0.00    -0.228 NA
HETATM    3  C7  UNL     1      21.704   4.864  50.405  1.00  0.00     0.235 A 
HETATM    4  N3  UNL     1      22.941   5.136  50.349  1.00  0.00    -0.246 NA
HETATM    5  C8  UNL     1      23.874   4.134  49.984  1.00  0.00     0.041 A 
HETATM    6  C9  UNL     1      25.174   4.480  49.929  1.00  0.00     0.026 C 
HETATM    7  C17 UNL     1      23.510   2.740  49.657  1.00  0.00     0.137 A 
ENDROOT
BRANCH   6   8
HETATM    8  C10 UNL     1      26.342   3.639  49.579  1.00  0.00     0.197 C 
BRANCH   8   9
HETATM    9  O1  UNL     1      27.070   3.250  50.684  1.00  0.00    -0.387 OA
BRANCH   9  10
HETATM   10  C11 UNL     1      26.740   2.045  51.237  1.00  0.00     0.169 C 
BRANCH  10  11
HETATM   11  C12 UNL     1      26.992   2.071  52.750  1.00  0.00     0.056 C 
BRANCH  11  12
HETATM   12  C13 UNL     1      27.957   0.944  53.049  1.00  0.00     0.277 C 
BRANCH  12  13
HETATM   13  N4  UNL     1      27.327  -0.147  53.738  1.00  0.00     0.113 N 
HETATM   14  C14 UNL     1      26.367   0.430  54.689  1.00  0.00     0.301 C 
HETATM   15  C15 UNL     1      25.294  -0.643  54.741  1.00  0.00     0.200 C 
HETATM   16  O2  UNL     1      25.226  -0.993  53.380  1.00  0.00    -0.361 OA
HETATM   17  C16 UNL     1      26.521  -0.997  52.890  1.00  0.00     0.440 C 
ENDBRANCH  12  13
ENDBRANCH  11  12
ENDBRANCH  10  11
ENDBRANCH   9  10
ENDBRANCH   8   9
ENDBRANCH   6   8
BRANCH   1  18
HETATM   18  N1  UNL     1      21.384   1.332  49.493  1.00  0.00    -0.344 N 
HETATM   19  H4  UNL     1      21.577   0.913  48.532  1.00  0.00     0.167 HD
BRANCH  18  20
HETATM   20  C5  UNL     1      20.561   0.786  50.551  1.00  0.00     0.034 A 
HETATM   21  C4  UNL     1      19.179   0.610  50.448  1.00  0.00     0.029 A 
HETATM   22  C3  UNL     1      18.500   0.080  51.539  1.00  0.00     0.004 A 
HETATM   23  C2  UNL     1      19.138  -0.274  52.704  1.00  0.00     0.019 A 
HETATM   24  C1  UNL     1      20.513  -0.113  52.843  1.00  0.00     0.013 A 
HETATM   25 BR1  UNL     1      21.449  -0.582  54.431  1.00  0.00    -0.051 Br
HETATM   26  C18 UNL     1      21.174   0.415  51.751  1.00  0.00     0.048 A 
ENDBRANCH  18  20
ENDBRANCH   1  18
TORSDOF 8
ENDMDL
MODEL 9
REMARK VINA RESULT:      -6.3      3.434      5.697
REMARK  8 active torsions:
REMARK  status: ('A' for Active; 'I' for Inactive)
REMARK    1  A    between atoms: C5_6  and  N1_7 
REMARK    2  A    between atoms: N1_7  and  C6_8 
REMARK    3  A    between atoms: C9_13  and  C10_14 
REMARK    4  A    between atoms: C10_14  and  O1_15 
REMARK    5  A    between atoms: O1_15  and  C11_16 
REMARK    6  A    between atoms: C11_16  and  C12_17 
REMARK    7  A    between atoms: C12_17  and  C13_18 
REMARK    8  A    between atoms: C13_18  and  N4_19 
ROOT
HETATM    1  C6  UNL     1      25.448   6.428  49.246  1.00  0.00     0.111 A 
HETATM    2  N2  UNL     1      25.052   7.459  49.955  1.00  0.00    -0.228 NA
HETATM    3  C7  UNL     1      24.268   7.300  51.120  1.00  0.00     0.235 A 
HETATM    4  N3  UNL     1      23.914   6.153  51.529  1.00  0.00    -0.246 NA
HETATM    5  C8  UNL     1      24.302   4.992  50.818  1.00  0.00     0.041 A 
HETATM    6  C9  UNL     1      23.908   3.799  51.303  1.00  0.00     0.026 C 
HETATM    7  C17 UNL     1      25.113   5.007  49.582  1.00  0.00     0.137 A 
ENDROOT
BRANCH   6   8
HETATM    8  C10 UNL     1      24.173   2.446  50.763  1.00  0.00     0.197 C 
BRANCH   8   9
HETATM    9  O1  UNL     1      25.097   1.745  51.509  1.00  0.00    -0.387 OA
BRANCH   9  10
HETATM   10  C11 UNL     1      24.857   1.659  52.851  1.00  0.00     0.169 C 
BRANCH  10  11
HETATM   11  C12 UNL     1      24.510   0.216  53.236  1.00  0.00     0.056 C 
BRANCH  11  12
HETATM   12  C13 UNL     1      25.602  -0.260  54.170  1.00  0.00     0.277 C 
BRANCH  12  13
HETATM   13  N4  UNL     1      26.914  -0.055  53.627  1.00  0.00     0.113 N 
HETATM   14  C14 UNL     1      27.822   0.199  54.753  1.00  0.00     0.301 C 
HETATM   15  C15 UNL     1      29.131  -0.371  54.237  1.00  0.00     0.200 C 
HETATM   16  O2  UNL     1      28.661  -1.540  53.608  1.00  0.00    -0.361 OA
HETATM   17  C16 UNL     1      27.474  -1.218  52.974  1.00  0.00     0.440 C 
ENDBRANCH  12  13
ENDBRANCH  11  12
ENDBRANCH  10  11
ENDBRANCH   9  10
ENDBRANCH   8   9
ENDBRANCH   6   8
BRANCH   1  18
HETATM   18  N1  UNL     1      26.241   6.743  48.085  1.00  0.00    -0.344 N 
HETATM   19  H4  UNL     1      25.695   6.942  47.192  1.00  0.00     0.167 HD
BRANCH  18  20
HETATM   20  C5  UNL     1      27.676   6.748  48.269  1.00  0.00     0.034 A 
HETATM   21  C4  UNL     1      28.474   5.604  48.198  1.00  0.00     0.029 A 
HETATM   22  C3  UNL     1      29.842   5.742  48.398  1.00  0.00     0.004 A 
HETATM   23  C2  UNL     1      30.431   6.956  48.661  1.00  0.00     0.019 A 
HETATM   24  C1  UNL     1      29.668   8.117  48.740  1.00  0.00     0.013 A 
HETATM   25 BR1  UNL     1      30.426   9.823  49.104  1.00  0.00    -0.051 Br
HETATM   26  C18 UNL     1      28.310   7.965  48.539  1.00  0.00     0.048 A 
ENDBRANCH  18  20
ENDBRANCH   1  18
TORSDOF 8
ENDMDL
