MODEL 1
REMARK VINA RESULT:      -8.4      0.000      0.000
REMARK  2 active torsions:
REMARK  status: ('A' for Active; 'I' for Inactive)
REMARK    1  A    between atoms: O1_2  and  C2_3 
REMARK    2  A    between atoms: C8_12  and  C9_13 
ROOT
HETATM    1  C2  UNL     1      20.141   0.135  52.499  1.00  0.00     0.070 C 
HETATM    2  C3  UNL     1      20.262   1.154  51.685  1.00  0.00     0.056 C 
HETATM    3  C4  UNL     1      21.524   1.919  51.803  1.00  0.00     0.021 C 
HETATM    4  C5  UNL     1      21.726   2.980  50.997  1.00  0.00     0.162 C 
HETATM    5  O2  UNL     1      22.841   3.794  50.982  1.00  0.00    -0.302 OA
HETATM    6  C6  UNL     1      24.173   3.413  50.936  1.00  0.00     0.179 A 
HETATM    7  N1  UNL     1      24.902   3.931  49.896  1.00  0.00    -0.217 NA
HETATM    8  C7  UNL     1      26.188   3.662  49.712  1.00  0.00     0.236 A 
HETATM    9  N2  UNL     1      26.819   2.854  50.565  1.00  0.00    -0.241 NA
HETATM   10  C8  UNL     1      26.172   2.305  51.614  1.00  0.00     0.079 A 
HETATM   11  C15 UNL     1      24.831   2.579  51.815  1.00  0.00     0.034 A 
HETATM   12  C16 UNL     1      24.468   1.807  53.046  1.00  0.00     0.119 C 
HETATM   13  S1  UNL     1      22.688   1.320  53.056  1.00  0.00    -0.144 SA
HETATM   14  C17 UNL     1      22.330  -0.119  53.695  1.00  0.00     0.015 C 
HETATM   15  C18 UNL     1      21.037  -0.373  53.503  1.00  0.00     0.056 C 
ENDROOT
BRANCH  10  16
HETATM   16  C9  UNL     1      27.086   1.462  52.371  1.00  0.00    -0.005 A 
HETATM   17  C10 UNL     1      27.963   2.072  53.283  1.00  0.00     0.014 A 
HETATM   18  C11 UNL     1      28.883   1.437  54.092  1.00  0.00     0.002 A 
HETATM   19  C12 UNL     1      28.942   0.063  53.987  1.00  0.00     0.019 A 
HETATM   20  C13 UNL     1      28.115  -0.605  53.117  1.00  0.00     0.011 A 
HETATM   21 BR1  UNL     1      28.190  -2.498  52.968  1.00  0.00    -0.051 Br
HETATM   22  C14 UNL     1      27.233   0.096  52.352  1.00  0.00     0.032 A 
ENDBRANCH  10  16
BRANCH   1  23
HETATM   23  O1  UNL     1      18.920  -0.489  52.283  1.00  0.00    -0.356 OA
HETATM   24  C1  UNL     1      18.391  -1.300  53.286  1.00  0.00     0.210 C 
ENDBRANCH   1  23
TORSDOF 2
ENDMDL
MODEL 2
REMARK VINA RESULT:      -8.3      2.853      4.950
REMARK  2 active torsions:
REMARK  status: ('A' for Active; 'I' for Inactive)
REMARK    1  A    between atoms: O1_2  and  C2_3 
REMARK    2  A    between atoms: C8_12  and  C9_13 
ROOT
HETATM    1  C2  UNL     1      22.501   5.599  51.153  1.00  0.00     0.070 C 
HETATM    2  C3  UNL     1      21.514   4.900  51.652  1.00  0.00     0.056 C 
HETATM    3  C4  UNL     1      21.778   3.452  51.820  1.00  0.00     0.021 C 
HETATM    4  C5  UNL     1      20.812   2.664  52.332  1.00  0.00     0.162 C 
HETATM    5  O2  UNL     1      20.898   1.303  52.550  1.00  0.00    -0.302 OA
HETATM    6  C6  UNL     1      21.909   0.607  53.193  1.00  0.00     0.179 A 
HETATM    7  N1  UNL     1      21.514  -0.167  54.253  1.00  0.00    -0.217 NA
HETATM    8  C7  UNL     1      22.359  -0.894  54.973  1.00  0.00     0.236 A 
HETATM    9  N2  UNL     1      23.657  -0.885  54.665  1.00  0.00    -0.241 NA
HETATM   10  C8  UNL     1      24.126  -0.150  53.635  1.00  0.00     0.079 A 
HETATM   11  C15 UNL     1      23.252   0.611  52.880  1.00  0.00     0.034 A 
HETATM   12  C16 UNL     1      24.118   1.274  51.854  1.00  0.00     0.119 C 
HETATM   13  S1  UNL     1      23.422   2.892  51.304  1.00  0.00    -0.144 SA
HETATM   14  C17 UNL     1      24.479   4.068  50.981  1.00  0.00     0.015 C 
HETATM   15  C18 UNL     1      23.817   5.196  50.733  1.00  0.00     0.056 C 
ENDROOT
BRANCH  10  16
HETATM   16  C9  UNL     1      25.569  -0.312  53.530  1.00  0.00    -0.005 A 
HETATM   17  C10 UNL     1      26.071  -1.456  52.887  1.00  0.00     0.014 A 
HETATM   18  C11 UNL     1      27.399  -1.770  52.683  1.00  0.00     0.002 A 
HETATM   19  C12 UNL     1      28.321  -0.863  53.163  1.00  0.00     0.019 A 
HETATM   20  C13 UNL     1      27.906   0.280  53.803  1.00  0.00     0.011 A 
HETATM   21 BR1  UNL     1      29.171   1.534  54.465  1.00  0.00    -0.051 Br
HETATM   22  C14 UNL     1      26.574   0.516  53.964  1.00  0.00     0.032 A 
ENDBRANCH  10  16
BRANCH   1  23
HETATM   23  O1  UNL     1      22.121   6.931  51.049  1.00  0.00    -0.356 OA
HETATM   24  C1  UNL     1      22.974   7.827  50.407  1.00  0.00     0.210 C 
ENDBRANCH   1  23
TORSDOF 2
ENDMDL
MODEL 3
REMARK VINA RESULT:      -8.2      3.335      6.351
REMARK  2 active torsions:
REMARK  status: ('A' for Active; 'I' for Inactive)
REMARK    1  A    between atoms: O1_2  and  C2_3 
REMARK    2  A    between atoms: C8_12  and  C9_13 
ROOT
HETATM    1  C2  UNL     1      27.755  -0.227  53.694  1.00  0.00     0.070 C 
HETATM    2  C3  UNL     1      26.541  -0.670  53.485  1.00  0.00     0.056 C 
HETATM    3  C4  UNL     1      25.575   0.329  52.974  1.00  0.00     0.021 C 
HETATM    4  C5  UNL     1      24.305  -0.051  52.730  1.00  0.00     0.162 C 
HETATM    5  O2  UNL     1      23.289   0.755  52.255  1.00  0.00    -0.302 OA
HETATM    6  C6  UNL     1      23.320   1.612  51.166  1.00  0.00     0.179 A 
HETATM    7  N1  UNL     1      22.361   1.391  50.211  1.00  0.00    -0.217 NA
HETATM    8  C7  UNL     1      22.256   2.123  49.110  1.00  0.00     0.236 A 
HETATM    9  N2  UNL     1      23.113   3.125  48.904  1.00  0.00    -0.241 NA
HETATM   10  C8  UNL     1      24.085   3.406  49.796  1.00  0.00     0.079 A 
HETATM   11  C15 UNL     1      24.202   2.649  50.947  1.00  0.00     0.034 A 
HETATM   12  C16 UNL     1      25.368   3.243  51.674  1.00  0.00     0.119 C 
HETATM   13  S1  UNL     1      26.235   1.998  52.726  1.00  0.00    -0.144 SA
HETATM   14  C17 UNL     1      27.840   2.126  52.833  1.00  0.00     0.015 C 
HETATM   15  C18 UNL     1      28.318   1.084  53.509  1.00  0.00     0.056 C 
ENDROOT
BRANCH  10  16
HETATM   16  C9  UNL     1      24.880   4.529  49.321  1.00  0.00    -0.005 A 
HETATM   17  C10 UNL     1      24.241   5.763  49.112  1.00  0.00     0.014 A 
HETATM   18  C11 UNL     1      24.831   6.933  48.680  1.00  0.00     0.002 A 
HETATM   19  C12 UNL     1      26.187   6.878  48.432  1.00  0.00     0.019 A 
HETATM   20  C13 UNL     1      26.881   5.706  48.614  1.00  0.00     0.011 A 
HETATM   21 BR1  UNL     1      28.748   5.622  48.274  1.00  0.00    -0.051 Br
HETATM   22  C14 UNL     1      26.223   4.593  49.043  1.00  0.00     0.032 A 
ENDBRANCH  10  16
BRANCH   1  23
HETATM   23  O1  UNL     1      28.551  -1.261  54.169  1.00  0.00    -0.356 OA
HETATM   24  C1  UNL     1      29.907  -1.268  53.848  1.00  0.00     0.210 C 
ENDBRANCH   1  23
TORSDOF 2
ENDMDL
MODEL 4
REMARK VINA RESULT:      -7.9      2.738      4.207
REMARK  2 active torsions:
REMARK  status: ('A' for Active; 'I' for Inactive)
REMARK    1  A    between atoms: O1_2  and  C2_3 
REMARK    2  A    between atoms: C8_12  and  C9_13 
ROOT
HETATM    1  C2  UNL     1      20.321   3.266  51.312  1.00  0.00     0.070 C 
HETATM    2  C3  UNL     1      19.842   2.275  52.021  1.00  0.00     0.056 C 
HETATM    3  C4  UNL     1      20.804   1.194  52.339  1.00  0.00     0.021 C 
HETATM    4  C5  UNL     1      20.388   0.141  53.069  1.00  0.00     0.162 C 
HETATM    5  O2  UNL     1      21.154  -0.944  53.447  1.00  0.00    -0.302 OA
HETATM    6  C6  UNL     1      22.408  -0.936  54.038  1.00  0.00     0.179 A 
HETATM    7  N1  UNL     1      22.506  -1.603  55.231  1.00  0.00    -0.217 NA
HETATM    8  C7  UNL     1      23.636  -1.687  55.922  1.00  0.00     0.236 A 
HETATM    9  N2  UNL     1      24.738  -1.104  55.450  1.00  0.00    -0.241 NA
HETATM   10  C8  UNL     1      24.725  -0.428  54.281  1.00  0.00     0.079 A 
HETATM   11  C15 UNL     1      23.552  -0.335  53.555  1.00  0.00     0.034 A 
HETATM   12  C16 UNL     1      23.918   0.472  52.348  1.00  0.00     0.119 C 
HETATM   13  S1  UNL     1      22.479   1.422  51.689  1.00  0.00    -0.144 SA
HETATM   14  C17 UNL     1      22.789   2.886  51.083  1.00  0.00     0.015 C 
HETATM   15  C18 UNL     1      21.640   3.486  50.780  1.00  0.00     0.056 C 
ENDROOT
BRANCH  10  16
HETATM   16  C9  UNL     1      26.048   0.115  54.011  1.00  0.00    -0.005 A 
HETATM   17  C10 UNL     1      26.194   1.509  53.914  1.00  0.00     0.014 A 
HETATM   18  C11 UNL     1      27.365   2.200  53.678  1.00  0.00     0.002 A 
HETATM   19  C12 UNL     1      28.503   1.437  53.524  1.00  0.00     0.019 A 
HETATM   20  C13 UNL     1      28.440   0.067  53.607  1.00  0.00     0.011 A 
HETATM   21 BR1  UNL     1      30.004  -0.991  53.396  1.00  0.00    -0.051 Br
HETATM   22  C14 UNL     1      27.243  -0.540  53.842  1.00  0.00     0.032 A 
ENDBRANCH  10  16
BRANCH   1  23
HETATM   23  O1  UNL     1      19.321   4.203  51.088  1.00  0.00    -0.356 OA
HETATM   24  C1  UNL     1      17.996   3.843  51.329  1.00  0.00     0.210 C 
ENDBRANCH   1  23
TORSDOF 2
ENDMDL
MODEL 5
REMARK VINA RESULT:      -7.8      4.134      7.641
REMARK  2 active torsions:
REMARK  status: ('A' for Active; 'I' for Inactive)
REMARK    1  A    between atoms: O1_2  and  C2_3 
REMARK    2  A    between atoms: C8_12  and  C9_13 
ROOT
HETATM    1  C2  UNL     1      27.692   0.338  53.083  1.00  0.00     0.070 C 
HETATM    2  C3  UNL     1      27.144  -0.437  53.985  1.00  0.00     0.056 C 
HETATM    3  C4  UNL     1      25.706  -0.197  54.244  1.00  0.00     0.021 C 
HETATM    4  C5  UNL     1      25.069  -0.956  55.157  1.00  0.00     0.162 C 
HETATM    5  O2  UNL     1      23.738  -0.860  55.514  1.00  0.00    -0.302 OA
HETATM    6  C6  UNL     1      22.634  -0.807  54.678  1.00  0.00     0.179 A 
HETATM    7  N1  UNL     1      21.682  -1.770  54.893  1.00  0.00    -0.217 NA
HETATM    8  C7  UNL     1      20.567  -1.856  54.178  1.00  0.00     0.236 A 
HETATM    9  N2  UNL     1      20.344  -0.975  53.201  1.00  0.00    -0.241 NA
HETATM   10  C8  UNL     1      21.233   0.003  52.928  1.00  0.00     0.079 A 
HETATM   11  C15 UNL     1      22.397   0.101  53.668  1.00  0.00     0.034 A 
HETATM   12  C16 UNL     1      23.117   1.278  53.086  1.00  0.00     0.119 C 
HETATM   13  S1  UNL     1      24.947   1.131  53.273  1.00  0.00    -0.144 SA
HETATM   14  C17 UNL     1      25.851   1.702  52.064  1.00  0.00     0.015 C 
HETATM   15  C18 UNL     1      27.127   1.398  52.291  1.00  0.00     0.056 C 
ENDROOT
BRANCH  10  16
HETATM   16  C9  UNL     1      20.750   0.810  51.816  1.00  0.00    -0.005 A 
HETATM   17  C10 UNL     1      21.196   0.502  50.520  1.00  0.00     0.014 A 
HETATM   18  C11 UNL     1      20.838   1.143  49.352  1.00  0.00     0.002 A 
HETATM   19  C12 UNL     1      19.952   2.192  49.479  1.00  0.00     0.019 A 
HETATM   20  C13 UNL     1      19.472   2.553  50.714  1.00  0.00     0.011 A 
HETATM   21 BR1  UNL     1      18.251   3.997  50.896  1.00  0.00    -0.051 Br
HETATM   22  C14 UNL     1      19.875   1.868  51.820  1.00  0.00     0.032 A 
ENDBRANCH  10  16
BRANCH   1  23
HETATM   23  O1  UNL     1      29.033   0.008  52.939  1.00  0.00    -0.356 OA
HETATM   24  C1  UNL     1      29.602  -0.899  53.832  1.00  0.00     0.210 C 
ENDBRANCH   1  23
TORSDOF 2
ENDMDL
MODEL 6
REMARK VINA RESULT:      -7.8      2.667      5.426
REMARK  2 active torsions:
REMARK  status: ('A' for Active; 'I' for Inactive)
REMARK    1  A    between atoms: O1_2  and  C2_3 
REMARK    2  A    between atoms: C8_12  and  C9_13 
ROOT
HETATM    1  C2  UNL     1      24.980   6.291  48.553  1.00  0.00     0.070 C 
HETATM    2  C3  UNL     1      23.847   5.682  48.797  1.00  0.00     0.056 C 
HETATM    3  C4  UNL     1      23.966   4.305  49.329  1.00  0.00     0.021 C 
HETATM    4  C5  UNL     1      22.844   3.612  49.609  1.00  0.00     0.162 C 
HETATM    5  O2  UNL     1      22.782   2.325  50.107  1.00  0.00    -0.302 OA
HETATM    6  C6  UNL     1      23.468   1.797  51.189  1.00  0.00     0.179 A 
HETATM    7  N1  UNL     1      22.688   1.242  52.171  1.00  0.00    -0.217 NA
HETATM    8  C7  UNL     1      23.190   0.696  53.271  1.00  0.00     0.236 A 
HETATM    9  N2  UNL     1      24.512   0.675  53.448  1.00  0.00    -0.241 NA
HETATM   10  C8  UNL     1      25.348   1.200  52.527  1.00  0.00     0.079 A 
HETATM   11  C15 UNL     1      24.833   1.771  51.378  1.00  0.00     0.034 A 
HETATM   12  C16 UNL     1      26.036   2.236  50.616  1.00  0.00     0.119 C 
HETATM   13  S1  UNL     1      25.656   3.693  49.548  1.00  0.00    -0.144 SA
HETATM   14  C17 UNL     1      26.816   4.807  49.397  1.00  0.00     0.015 C 
HETATM   15  C18 UNL     1      26.338   5.845  48.714  1.00  0.00     0.056 C 
ENDROOT
BRANCH  10  16
HETATM   16  C9  UNL     1      26.726   1.056  52.974  1.00  0.00    -0.005 A 
HETATM   17  C10 UNL     1      27.398   2.192  53.455  1.00  0.00     0.014 A 
HETATM   18  C11 UNL     1      28.693   2.243  53.930  1.00  0.00     0.002 A 
HETATM   19  C12 UNL     1      29.391   1.053  53.929  1.00  0.00     0.019 A 
HETATM   20  C13 UNL     1      28.800  -0.100  53.474  1.00  0.00     0.011 A 
HETATM   21 BR1  UNL     1      29.755  -1.743  53.471  1.00  0.00    -0.051 Br
HETATM   22  C14 UNL     1      27.516  -0.067  53.020  1.00  0.00     0.032 A 
ENDBRANCH  10  16
BRANCH   1  23
HETATM   23  O1  UNL     1      24.725   7.565  48.062  1.00  0.00    -0.356 OA
HETATM   24  C1  UNL     1      25.796   8.433  47.854  1.00  0.00     0.210 C 
ENDBRANCH   1  23
TORSDOF 2
ENDMDL
MODEL 7
REMARK VINA RESULT:      -7.7      3.064      4.678
REMARK  2 active torsions:
REMARK  status: ('A' for Active; 'I' for Inactive)
REMARK    1  A    between atoms: O1_2  and  C2_3 
REMARK    2  A    between atoms: C8_12  and  C9_13 
ROOT
HETATM    1  C2  UNL     1      19.196  -0.149  52.704  1.00  0.00     0.070 C 
HETATM    2  C3  UNL     1      20.129  -0.731  53.415  1.00  0.00     0.056 C 
HETATM    3  C4  UNL     1      21.520  -0.470  52.977  1.00  0.00     0.021 C 
HETATM    4  C5  UNL     1      22.538  -1.030  53.660  1.00  0.00     0.162 C 
HETATM    5  O2  UNL     1      23.883  -0.889  53.383  1.00  0.00    -0.302 OA
HETATM    6  C6  UNL     1      24.586   0.283  53.151  1.00  0.00     0.179 A 
HETATM    7  N1  UNL     1      25.662   0.501  53.972  1.00  0.00    -0.217 NA
HETATM    8  C7  UNL     1      26.436   1.575  53.880  1.00  0.00     0.236 A 
HETATM    9  N2  UNL     1      26.172   2.495  52.951  1.00  0.00    -0.241 NA
HETATM   10  C8  UNL     1      25.132   2.354  52.104  1.00  0.00     0.079 A 
HETATM   11  C15 UNL     1      24.319   1.238  52.193  1.00  0.00     0.034 A 
HETATM   12  C16 UNL     1      23.295   1.430  51.117  1.00  0.00     0.119 C 
HETATM   13  S1  UNL     1      21.697   0.605  51.530  1.00  0.00    -0.144 SA
HETATM   14  C17 UNL     1      20.347   1.359  51.065  1.00  0.00     0.015 C 
HETATM   15  C18 UNL     1      19.293   0.710  51.555  1.00  0.00     0.056 C 
ENDROOT
BRANCH  10  16
HETATM   16  C9  UNL     1      25.066   3.500  51.209  1.00  0.00    -0.005 A 
HETATM   17  C10 UNL     1      25.998   3.588  50.162  1.00  0.00     0.014 A 
HETATM   18  C11 UNL     1      26.080   4.588  49.214  1.00  0.00     0.002 A 
HETATM   19  C12 UNL     1      25.147   5.599  49.311  1.00  0.00     0.019 A 
HETATM   20  C13 UNL     1      24.202   5.582  50.309  1.00  0.00     0.011 A 
HETATM   21 BR1  UNL     1      22.914   6.971  50.449  1.00  0.00    -0.051 Br
HETATM   22  C14 UNL     1      24.190   4.558  51.207  1.00  0.00     0.032 A 
ENDBRANCH  10  16
BRANCH   1  23
HETATM   23  O1  UNL     1      17.949  -0.476  53.220  1.00  0.00    -0.356 OA
HETATM   24  C1  UNL     1      17.641  -1.818  53.439  1.00  0.00     0.210 C 
ENDBRANCH   1  23
TORSDOF 2
ENDMDL
MODEL 8
REMARK VINA RESULT:      -7.7      3.935      7.133
REMARK  2 active torsions:
REMARK  status: ('A' for Active; 'I' for Inactive)
REMARK    1  A    between atoms: O1_2  and  C2_3 
REMARK    2  A    between atoms: C8_12  and  C9_13 
ROOT
HETATM    1  C2  UNL     1      27.013  -0.497  53.217  1.00  0.00     0.070 C 
HETATM    2  C3  UNL     1      25.957  -0.963  53.836  1.00  0.00     0.056 C 
HETATM    3  C4  UNL     1      24.707  -0.197  53.628  1.00  0.00     0.021 C 
HETATM    4  C5  UNL     1      23.575  -0.615  54.229  1.00  0.00     0.162 C 
HETATM    5  O2  UNL     1      22.334  -0.016  54.139  1.00  0.00    -0.302 OA
HETATM    6  C6  UNL     1      21.665   0.389  52.995  1.00  0.00     0.179 A 
HETATM    7  N1  UNL     1      20.413  -0.142  52.820  1.00  0.00    -0.217 NA
HETATM    8  C7  UNL     1      19.645   0.144  51.777  1.00  0.00     0.236 A 
HETATM    9  N2  UNL     1      20.092   0.987  50.845  1.00  0.00    -0.241 NA
HETATM   10  C8  UNL     1      21.313   1.553  50.944  1.00  0.00     0.079 A 
HETATM   11  C15 UNL     1      22.121   1.260  52.028  1.00  0.00     0.034 A 
HETATM   12  C16 UNL     1      23.369   2.055  51.795  1.00  0.00     0.119 C 
HETATM   13  S1  UNL     1      24.848   1.257  52.557  1.00  0.00    -0.144 SA
HETATM   14  C17 UNL     1      26.241   1.384  51.751  1.00  0.00     0.015 C 
HETATM   15  C18 UNL     1      27.168   0.647  52.360  1.00  0.00     0.056 C 
ENDROOT
BRANCH  10  16
HETATM   16  C9  UNL     1      21.552   2.414  49.794  1.00  0.00    -0.005 A 
HETATM   17  C10 UNL     1      22.024   1.831  48.606  1.00  0.00     0.014 A 
HETATM   18  C11 UNL     1      22.292   2.483  47.420  1.00  0.00     0.002 A 
HETATM   19  C12 UNL     1      22.072   3.844  47.407  1.00  0.00     0.019 A 
HETATM   20  C13 UNL     1      21.610   4.485  48.531  1.00  0.00     0.011 A 
HETATM   21 BR1  UNL     1      21.304   6.360  48.521  1.00  0.00    -0.051 Br
HETATM   22  C14 UNL     1      21.370   3.769  49.665  1.00  0.00     0.032 A 
ENDBRANCH  10  16
BRANCH   1  23
HETATM   23  O1  UNL     1      28.107  -1.305  53.496  1.00  0.00    -0.356 OA
HETATM   24  C1  UNL     1      29.324  -0.703  53.816  1.00  0.00     0.210 C 
ENDBRANCH   1  23
TORSDOF 2
ENDMDL
MODEL 9
REMARK VINA RESULT:      -7.5      3.222      6.669
REMARK  2 active torsions:
REMARK  status: ('A' for Active; 'I' for Inactive)
REMARK    1  A    between atoms: O1_2  and  C2_3 
REMARK    2  A    between atoms: C8_12  and  C9_13 
ROOT
HETATM    1  C2  UNL     1      28.208   0.146  53.419  1.00  0.00     0.070 C 
HETATM    2  C3  UNL     1      28.142   1.359  52.932  1.00  0.00     0.056 C 
HETATM    3  C4  UNL     1      26.873   1.705  52.251  1.00  0.00     0.021 C 
HETATM    4  C5  UNL     1      26.726   2.937  51.726  1.00  0.00     0.162 C 
HETATM    5  O2  UNL     1      25.613   3.414  51.062  1.00  0.00    -0.302 OA
HETATM    6  C6  UNL     1      24.288   3.347  51.463  1.00  0.00     0.179 A 
HETATM    7  N1  UNL     1      23.631   4.547  51.543  1.00  0.00    -0.217 NA
HETATM    8  C7  UNL     1      22.361   4.653  51.913  1.00  0.00     0.236 A 
HETATM    9  N2  UNL     1      21.675   3.552  52.223  1.00  0.00    -0.241 NA
HETATM   10  C8  UNL     1      22.249   2.332  52.169  1.00  0.00     0.079 A 
HETATM   11  C15 UNL     1      23.573   2.213  51.785  1.00  0.00     0.034 A 
HETATM   12  C16 UNL     1      23.852   0.743  51.845  1.00  0.00     0.119 C 
HETATM   13  S1  UNL     1      25.628   0.390  52.203  1.00  0.00    -0.144 SA
HETATM   14  C17 UNL     1      25.943  -0.890  53.134  1.00  0.00     0.015 C 
HETATM   15  C18 UNL     1      27.246  -0.924  53.405  1.00  0.00     0.056 C 
ENDROOT
BRANCH  10  16
HETATM   16  C9  UNL     1      21.286   1.316  52.567  1.00  0.00    -0.005 A 
HETATM   17  C10 UNL     1      21.545   0.563  53.724  1.00  0.00     0.014 A 
HETATM   18  C11 UNL     1      20.746  -0.427  54.259  1.00  0.00     0.002 A 
HETATM   19  C12 UNL     1      19.575  -0.697  53.582  1.00  0.00     0.019 A 
HETATM   20  C13 UNL     1      19.253  -0.002  52.442  1.00  0.00     0.011 A 
HETATM   21 BR1  UNL     1      17.641  -0.369  51.505  1.00  0.00    -0.051 Br
HETATM   22  C14 UNL     1      20.097   0.961  51.979  1.00  0.00     0.032 A 
ENDBRANCH  10  16
BRANCH   1  23
HETATM   23  O1  UNL     1      29.443  -0.044  54.027  1.00  0.00    -0.356 OA
HETATM   24  C1  UNL     1      30.138  -1.227  53.783  1.00  0.00     0.210 C 
ENDBRANCH   1  23
TORSDOF 2
ENDMDL
