MODEL 1
REMARK VINA RESULT:      -7.8      0.000      0.000
REMARK  4 active torsions:
REMARK  status: ('A' for Active; 'I' for Inactive)
REMARK    1  A    between atoms: C6_8  and  N3_9 
REMARK    2  A    between atoms: N3_9  and  C7_10 
REMARK    3  A    between atoms: C14_18  and  C15_19 
REMARK    4  A    between atoms: C15_19  and  O1_20 
ROOT
HETATM    1  C1  UNL     1      24.741   3.926  49.876  1.00  0.00     0.049 C 
HETATM    2  C2  UNL     1      25.375   3.274  51.077  1.00  0.00    -0.052 C 
HETATM    3  C3  UNL     1      26.457   2.497  50.880  1.00  0.00     0.039 C 
HETATM    4  C4  UNL     1      26.896   2.015  52.195  1.00  0.00     0.091 A 
HETATM    5  N1  UNL     1      28.123   1.833  52.645  1.00  0.00    -0.242 NA
HETATM    6  C5  UNL     1      28.038   1.357  54.005  1.00  0.00     0.230 A 
HETATM    7  N2  UNL     1      26.802   1.252  54.360  1.00  0.00    -0.240 NA
HETATM    8  C6  UNL     1      25.989   1.628  53.291  1.00  0.00     0.192 A 
HETATM    9  C13 UNL     1      24.875   2.549  53.438  1.00  0.00     0.045 C 
HETATM   10  C14 UNL     1      24.606   3.311  52.347  1.00  0.00    -0.028 C 
ENDROOT
BRANCH   8  11
HETATM   11  N3  UNL     1      25.307   0.342  52.865  1.00  0.00    -0.354 N 
HETATM   12  H6  UNL     1      25.731  -0.202  52.093  1.00  0.00     0.163 HD
BRANCH  11  13
HETATM   13  C7  UNL     1      24.124  -0.139  53.478  1.00  0.00     0.031 A 
HETATM   14  C8  UNL     1      24.043  -0.852  54.652  1.00  0.00     0.029 A 
HETATM   15  C9  UNL     1      22.855  -1.283  55.195  1.00  0.00     0.004 A 
HETATM   16  C10 UNL     1      21.670  -1.015  54.580  1.00  0.00     0.019 A 
HETATM   17  C11 UNL     1      21.733  -0.306  53.409  1.00  0.00     0.013 A 
HETATM   18 BR1  UNL     1      20.110   0.101  52.497  1.00  0.00    -0.051 Br
HETATM   19  C12 UNL     1      22.913   0.116  52.876  1.00  0.00     0.048 A 
ENDBRANCH  11  13
ENDBRANCH   8  11
BRANCH  10  20
HETATM   20  C15 UNL     1      23.451   4.283  52.382  1.00  0.00     0.203 C 
BRANCH  20  21
HETATM   21  O1  UNL     1      23.785   5.492  52.938  1.00  0.00    -0.396 OA
HETATM   22  H14 UNL     1      24.304   5.417  53.776  1.00  0.00     0.209 HD
ENDBRANCH  20  21
ENDBRANCH  10  20
TORSDOF 4
ENDMDL
MODEL 2
REMARK VINA RESULT:      -7.6      3.142      5.671
REMARK  4 active torsions:
REMARK  status: ('A' for Active; 'I' for Inactive)
REMARK    1  A    between atoms: C6_8  and  N3_9 
REMARK    2  A    between atoms: N3_9  and  C7_10 
REMARK    3  A    between atoms: C14_18  and  C15_19 
REMARK    4  A    between atoms: C15_19  and  O1_20 
ROOT
HETATM    1  C1  UNL     1      29.352  -0.962  53.421  1.00  0.00     0.049 C 
HETATM    2  C2  UNL     1      27.966  -0.370  53.414  1.00  0.00    -0.052 C 
HETATM    3  C3  UNL     1      26.952  -1.139  52.974  1.00  0.00     0.039 C 
HETATM    4  C4  UNL     1      25.720  -0.350  53.099  1.00  0.00     0.091 A 
HETATM    5  N1  UNL     1      24.511  -0.749  53.447  1.00  0.00    -0.242 NA
HETATM    6  C5  UNL     1      23.637   0.400  53.435  1.00  0.00     0.230 A 
HETATM    7  N2  UNL     1      24.296   1.453  53.088  1.00  0.00    -0.240 NA
HETATM    8  C6  UNL     1      25.621   1.097  52.837  1.00  0.00     0.192 A 
HETATM    9  C13 UNL     1      26.748   1.835  53.380  1.00  0.00     0.045 C 
HETATM   10  C14 UNL     1      27.859   1.095  53.630  1.00  0.00    -0.028 C 
ENDROOT
BRANCH   8  11
HETATM   11  N3  UNL     1      25.786   1.286  51.341  1.00  0.00    -0.354 N 
HETATM   12  H6  UNL     1      26.088   0.472  50.777  1.00  0.00     0.163 HD
BRANCH  11  13
HETATM   13  C7  UNL     1      25.543   2.522  50.692  1.00  0.00     0.031 A 
HETATM   14  C8  UNL     1      24.343   3.190  50.629  1.00  0.00     0.029 A 
HETATM   15  C9  UNL     1      24.180   4.395  49.986  1.00  0.00     0.004 A 
HETATM   16  C10 UNL     1      25.230   5.000  49.365  1.00  0.00     0.019 A 
HETATM   17  C11 UNL     1      26.434   4.347  49.418  1.00  0.00     0.013 A 
HETATM   18 BR1  UNL     1      27.944   5.140  48.568  1.00  0.00    -0.051 Br
HETATM   19  C12 UNL     1      26.587   3.154  50.056  1.00  0.00     0.048 A 
ENDBRANCH  11  13
ENDBRANCH   8  11
BRANCH  10  20
HETATM   20  C15 UNL     1      29.099   1.767  54.170  1.00  0.00     0.203 C 
BRANCH  20  21
HETATM   21  O1  UNL     1      29.474   2.865  53.440  1.00  0.00    -0.396 OA
HETATM   22  H14 UNL     1      30.383   2.799  53.055  1.00  0.00     0.209 HD
ENDBRANCH  20  21
ENDBRANCH  10  20
TORSDOF 4
ENDMDL
MODEL 3
REMARK VINA RESULT:      -7.2      3.078      4.742
REMARK  4 active torsions:
REMARK  status: ('A' for Active; 'I' for Inactive)
REMARK    1  A    between atoms: C6_8  and  N3_9 
REMARK    2  A    between atoms: N3_9  and  C7_10 
REMARK    3  A    between atoms: C14_18  and  C15_19 
REMARK    4  A    between atoms: C15_19  and  O1_20 
ROOT
HETATM    1  C1  UNL     1      26.331   7.903  50.005  1.00  0.00     0.049 C 
HETATM    2  C2  UNL     1      25.581   6.602  49.876  1.00  0.00    -0.052 C 
HETATM    3  C3  UNL     1      24.414   6.476  50.537  1.00  0.00     0.039 C 
HETATM    4  C4  UNL     1      23.876   5.147  50.223  1.00  0.00     0.091 A 
HETATM    5  N1  UNL     1      22.622   4.784  50.028  1.00  0.00    -0.242 NA
HETATM    6  C5  UNL     1      22.602   3.370  49.736  1.00  0.00     0.230 A 
HETATM    7  N2  UNL     1      23.802   2.898  49.758  1.00  0.00    -0.240 NA
HETATM    8  C6  UNL     1      24.690   3.928  50.069  1.00  0.00     0.192 A 
HETATM    9  C13 UNL     1      25.908   4.167  49.316  1.00  0.00     0.045 C 
HETATM   10  C14 UNL     1      26.308   5.464  49.260  1.00  0.00    -0.028 C 
ENDROOT
BRANCH   8  11
HETATM   11  N3  UNL     1      25.213   3.571  51.448  1.00  0.00    -0.354 N 
HETATM   12  H6  UNL     1      25.401   4.342  52.113  1.00  0.00     0.163 HD
BRANCH  11  13
HETATM   13  C7  UNL     1      25.451   2.235  51.857  1.00  0.00     0.031 A 
HETATM   14  C8  UNL     1      26.599   1.508  51.645  1.00  0.00     0.029 A 
HETATM   15  C9  UNL     1      26.766   0.214  52.079  1.00  0.00     0.004 A 
HETATM   16  C10 UNL     1      25.775  -0.426  52.758  1.00  0.00     0.019 A 
HETATM   17  C11 UNL     1      24.624   0.284  52.978  1.00  0.00     0.013 A 
HETATM   18 BR1  UNL     1      23.197  -0.554  53.923  1.00  0.00    -0.051 Br
HETATM   19  C12 UNL     1      24.465   1.565  52.545  1.00  0.00     0.048 A 
ENDBRANCH  11  13
ENDBRANCH   8  11
BRANCH  10  20
HETATM   20  C15 UNL     1      27.578   5.823  48.525  1.00  0.00     0.203 C 
BRANCH  20  21
HETATM   21  O1  UNL     1      28.696   5.249  49.074  1.00  0.00    -0.396 OA
HETATM   22  H14 UNL     1      28.552   4.327  49.404  1.00  0.00     0.209 HD
ENDBRANCH  20  21
ENDBRANCH  10  20
TORSDOF 4
ENDMDL
MODEL 4
REMARK VINA RESULT:      -6.9      1.575      2.221
REMARK  4 active torsions:
REMARK  status: ('A' for Active; 'I' for Inactive)
REMARK    1  A    between atoms: C6_8  and  N3_9 
REMARK    2  A    between atoms: N3_9  and  C7_10 
REMARK    3  A    between atoms: C14_18  and  C15_19 
REMARK    4  A    between atoms: C15_19  and  O1_20 
ROOT
HETATM    1  C1  UNL     1      25.327   5.283  48.981  1.00  0.00     0.049 C 
HETATM    2  C2  UNL     1      25.514   4.373  50.168  1.00  0.00    -0.052 C 
HETATM    3  C3  UNL     1      26.394   3.359  50.057  1.00  0.00     0.039 C 
HETATM    4  C4  UNL     1      26.413   2.653  51.343  1.00  0.00     0.091 A 
HETATM    5  N1  UNL     1      27.435   2.109  51.976  1.00  0.00    -0.242 NA
HETATM    6  C5  UNL     1      26.950   1.543  53.213  1.00  0.00     0.230 A 
HETATM    7  N2  UNL     1      25.679   1.736  53.317  1.00  0.00    -0.240 NA
HETATM    8  C6  UNL     1      25.227   2.416  52.187  1.00  0.00     0.192 A 
HETATM    9  C13 UNL     1      24.362   3.580  52.265  1.00  0.00     0.045 C 
HETATM   10  C14 UNL     1      24.523   4.489  51.268  1.00  0.00    -0.028 C 
ENDROOT
BRANCH   8  11
HETATM   11  N3  UNL     1      24.363   1.405  51.458  1.00  0.00    -0.354 N 
HETATM   12  H6  UNL     1      24.778   0.897  50.656  1.00  0.00     0.163 HD
BRANCH  11  13
HETATM   13  C7  UNL     1      23.023   1.130  51.829  1.00  0.00     0.031 A 
HETATM   14  C8  UNL     1      21.897   1.746  51.336  1.00  0.00     0.029 A 
HETATM   15  C9  UNL     1      20.621   1.422  51.735  1.00  0.00     0.004 A 
HETATM   16  C10 UNL     1      20.408   0.450  52.664  1.00  0.00     0.019 A 
HETATM   17  C11 UNL     1      21.521  -0.174  53.166  1.00  0.00     0.013 A 
HETATM   18 BR1  UNL     1      21.292  -1.545  54.470  1.00  0.00    -0.051 Br
HETATM   19  C12 UNL     1      22.781   0.152  52.766  1.00  0.00     0.048 A 
ENDBRANCH  11  13
ENDBRANCH   8  11
BRANCH  10  20
HETATM   20  C15 UNL     1      23.656   5.725  51.236  1.00  0.00     0.203 C 
BRANCH  20  21
HETATM   21  O1  UNL     1      24.153   6.748  52.003  1.00  0.00    -0.396 OA
HETATM   22  H14 UNL     1      23.471   7.408  52.281  1.00  0.00     0.209 HD
ENDBRANCH  20  21
ENDBRANCH  10  20
TORSDOF 4
ENDMDL
MODEL 5
REMARK VINA RESULT:      -6.6      3.070      4.652
REMARK  4 active torsions:
REMARK  status: ('A' for Active; 'I' for Inactive)
REMARK    1  A    between atoms: C6_8  and  N3_9 
REMARK    2  A    between atoms: N3_9  and  C7_10 
REMARK    3  A    between atoms: C14_18  and  C15_19 
REMARK    4  A    between atoms: C15_19  and  O1_20 
ROOT
HETATM    1  C1  UNL     1      26.236   1.464  52.133  1.00  0.00     0.049 C 
HETATM    2  C2  UNL     1      24.921   1.062  52.750  1.00  0.00    -0.052 C 
HETATM    3  C3  UNL     1      24.755  -0.227  53.102  1.00  0.00     0.039 C 
HETATM    4  C4  UNL     1      23.420  -0.348  53.701  1.00  0.00     0.091 A 
HETATM    5  N1  UNL     1      23.034  -1.090  54.722  1.00  0.00    -0.242 NA
HETATM    6  C5  UNL     1      21.626  -0.856  54.941  1.00  0.00     0.230 A 
HETATM    7  N2  UNL     1      21.181  -0.004  54.080  1.00  0.00    -0.240 NA
HETATM    8  C6  UNL     1      22.224   0.376  53.236  1.00  0.00     0.192 A 
HETATM    9  C13 UNL     1      22.507   1.763  52.914  1.00  0.00     0.045 C 
HETATM   10  C14 UNL     1      23.813   2.047  52.675  1.00  0.00    -0.028 C 
ENDROOT
BRANCH   8  11
HETATM   11  N3  UNL     1      21.851  -0.212  51.888  1.00  0.00    -0.354 N 
HETATM   12  H6  UNL     1      22.158  -1.178  51.675  1.00  0.00     0.163 HD
BRANCH  11  13
HETATM   13  C7  UNL     1      21.104   0.503  50.918  1.00  0.00     0.031 A 
HETATM   14  C8  UNL     1      19.740   0.676  50.902  1.00  0.00     0.029 A 
HETATM   15  C9  UNL     1      19.080   1.391  49.931  1.00  0.00     0.004 A 
HETATM   16  C10 UNL     1      19.765   1.979  48.912  1.00  0.00     0.019 A 
HETATM   17  C11 UNL     1      21.126   1.816  48.913  1.00  0.00     0.013 A 
HETATM   18 BR1  UNL     1      22.145   2.614  47.514  1.00  0.00    -0.051 Br
HETATM   19  C12 UNL     1      21.773   1.106  49.878  1.00  0.00     0.048 A 
ENDBRANCH  11  13
ENDBRANCH   8  11
BRANCH  10  20
HETATM   20  C15 UNL     1      24.216   3.455  52.304  1.00  0.00     0.203 C 
BRANCH  20  21
HETATM   21  O1  UNL     1      24.284   4.295  53.386  1.00  0.00    -0.396 OA
HETATM   22  H14 UNL     1      23.624   5.031  53.365  1.00  0.00     0.209 HD
ENDBRANCH  20  21
ENDBRANCH  10  20
TORSDOF 4
ENDMDL
MODEL 6
REMARK VINA RESULT:      -6.4      7.487      9.705
REMARK  4 active torsions:
REMARK  status: ('A' for Active; 'I' for Inactive)
REMARK    1  A    between atoms: C6_8  and  N3_9 
REMARK    2  A    between atoms: N3_9  and  C7_10 
REMARK    3  A    between atoms: C14_18  and  C15_19 
REMARK    4  A    between atoms: C15_19  and  O1_20 
ROOT
HETATM    1  C1  UNL     1      31.925  10.964  47.088  1.00  0.00     0.049 C 
HETATM    2  C2  UNL     1      32.089   9.545  47.568  1.00  0.00    -0.052 C 
HETATM    3  C3  UNL     1      32.772   8.687  46.785  1.00  0.00     0.039 C 
HETATM    4  C4  UNL     1      32.817   7.397  47.485  1.00  0.00     0.091 A 
HETATM    5  N1  UNL     1      33.799   6.518  47.542  1.00  0.00    -0.242 NA
HETATM    6  C5  UNL     1      33.367   5.413  48.365  1.00  0.00     0.230 A 
HETATM    7  N2  UNL     1      32.165   5.619  48.785  1.00  0.00    -0.240 NA
HETATM    8  C6  UNL     1      31.709   6.837  48.280  1.00  0.00     0.192 A 
HETATM    9  C13 UNL     1      31.062   7.837  49.111  1.00  0.00     0.045 C 
HETATM   10  C14 UNL     1      31.259   9.125  48.725  1.00  0.00    -0.028 C 
ENDROOT
BRANCH   8  11
HETATM   11  N3  UNL     1      30.615   6.454  47.303  1.00  0.00    -0.354 N 
HETATM   12  H6  UNL     1      30.894   6.150  46.352  1.00  0.00     0.163 HD
BRANCH  11  13
HETATM   13  C7  UNL     1      29.238   6.496  47.635  1.00  0.00     0.031 A 
HETATM   14  C8  UNL     1      28.362   7.520  47.362  1.00  0.00     0.029 A 
HETATM   15  C9  UNL     1      27.031   7.491  47.708  1.00  0.00     0.004 A 
HETATM   16  C10 UNL     1      26.504   6.415  48.355  1.00  0.00     0.019 A 
HETATM   17  C11 UNL     1      27.364   5.385  48.636  1.00  0.00     0.013 A 
HETATM   18 BR1  UNL     1      26.689   3.850  49.541  1.00  0.00    -0.051 Br
HETATM   19  C12 UNL     1      28.680   5.422  48.291  1.00  0.00     0.048 A 
ENDBRANCH  11  13
ENDBRANCH   8  11
BRANCH  10  20
HETATM   20  C15 UNL     1      30.610  10.245  49.502  1.00  0.00     0.203 C 
BRANCH  20  21
HETATM   21  O1  UNL     1      29.482   9.848  50.173  1.00  0.00    -0.396 OA
HETATM   22  H14 UNL     1      28.714   9.649  49.583  1.00  0.00     0.209 HD
ENDBRANCH  20  21
ENDBRANCH  10  20
TORSDOF 4
ENDMDL
MODEL 7
REMARK VINA RESULT:      -6.4      4.543      6.640
REMARK  4 active torsions:
REMARK  status: ('A' for Active; 'I' for Inactive)
REMARK    1  A    between atoms: C6_8  and  N3_9 
REMARK    2  A    between atoms: N3_9  and  C7_10 
REMARK    3  A    between atoms: C14_18  and  C15_19 
REMARK    4  A    between atoms: C15_19  and  O1_20 
ROOT
HETATM    1  C1  UNL     1      16.790  -0.669  49.805  1.00  0.00     0.049 C 
HETATM    2  C2  UNL     1      17.690   0.285  50.546  1.00  0.00    -0.052 C 
HETATM    3  C3  UNL     1      18.241   1.302  49.855  1.00  0.00     0.039 C 
HETATM    4  C4  UNL     1      19.037   2.093  50.801  1.00  0.00     0.091 A 
HETATM    5  N1  UNL     1      19.199   3.402  50.858  1.00  0.00    -0.242 NA
HETATM    6  C5  UNL     1      20.065   3.700  51.975  1.00  0.00     0.230 A 
HETATM    7  N2  UNL     1      20.414   2.609  52.566  1.00  0.00    -0.240 NA
HETATM    8  C6  UNL     1      19.836   1.527  51.903  1.00  0.00     0.192 A 
HETATM    9  C13 UNL     1      19.138   0.461  52.601  1.00  0.00     0.045 C 
HETATM   10  C14 UNL     1      18.123  -0.117  51.908  1.00  0.00    -0.028 C 
ENDROOT
BRANCH   8  11
HETATM   11  N3  UNL     1      21.008   0.802  51.270  1.00  0.00    -0.354 N 
HETATM   12  H6  UNL     1      20.908   0.473  50.293  1.00  0.00     0.163 HD
BRANCH  11  13
HETATM   13  C7  UNL     1      22.223   0.559  51.957  1.00  0.00     0.031 A 
HETATM   14  C8  UNL     1      22.416  -0.331  52.988  1.00  0.00     0.029 A 
HETATM   15  C9  UNL     1      23.629  -0.522  53.606  1.00  0.00     0.004 A 
HETATM   16  C10 UNL     1      24.728   0.180  53.215  1.00  0.00     0.019 A 
HETATM   17  C11 UNL     1      24.554   1.072  52.189  1.00  0.00     0.013 A 
HETATM   18 BR1  UNL     1      26.052   2.088  51.594  1.00  0.00    -0.051 Br
HETATM   19  C12 UNL     1      23.349   1.256  51.582  1.00  0.00     0.048 A 
ENDBRANCH  11  13
ENDBRANCH   8  11
BRANCH  10  20
HETATM   20  C15 UNL     1      17.347  -1.254  52.529  1.00  0.00     0.203 C 
BRANCH  20  21
HETATM   21  O1  UNL     1      17.420  -1.268  53.898  1.00  0.00    -0.396 OA
HETATM   22  H14 UNL     1      17.124  -0.425  54.323  1.00  0.00     0.209 HD
ENDBRANCH  20  21
ENDBRANCH  10  20
TORSDOF 4
ENDMDL
MODEL 8
REMARK VINA RESULT:      -6.3      8.400     10.817
REMARK  4 active torsions:
REMARK  status: ('A' for Active; 'I' for Inactive)
REMARK    1  A    between atoms: C6_8  and  N3_9 
REMARK    2  A    between atoms: N3_9  and  C7_10 
REMARK    3  A    between atoms: C14_18  and  C15_19 
REMARK    4  A    between atoms: C15_19  and  O1_20 
ROOT
HETATM    1  C1  UNL     1      26.929   6.645  48.491  1.00  0.00     0.049 C 
HETATM    2  C2  UNL     1      28.149   7.491  48.233  1.00  0.00    -0.052 C 
HETATM    3  C3  UNL     1      29.055   7.041  47.344  1.00  0.00     0.039 C 
HETATM    4  C4  UNL     1      30.117   8.051  47.251  1.00  0.00     0.091 A 
HETATM    5  N1  UNL     1      30.796   8.446  46.191  1.00  0.00    -0.242 NA
HETATM    6  C5  UNL     1      31.724   9.472  46.607  1.00  0.00     0.230 A 
HETATM    7  N2  UNL     1      31.609   9.683  47.874  1.00  0.00    -0.240 NA
HETATM    8  C6  UNL     1      30.632   8.831  48.391  1.00  0.00     0.192 A 
HETATM    9  C13 UNL     1      29.573   9.294  49.269  1.00  0.00     0.045 C 
HETATM   10  C14 UNL     1      28.401   8.614  49.171  1.00  0.00    -0.028 C 
ENDROOT
BRANCH   8  11
HETATM   11  N3  UNL     1      31.401   7.866  49.273  1.00  0.00    -0.354 N 
HETATM   12  H6  UNL     1      31.085   7.743  50.252  1.00  0.00     0.163 HD
BRANCH  11  13
HETATM   13  C7  UNL     1      32.524   7.134  48.814  1.00  0.00     0.031 A 
HETATM   14  C8  UNL     1      33.813   7.601  48.700  1.00  0.00     0.029 A 
HETATM   15  C9  UNL     1      34.860   6.829  48.253  1.00  0.00     0.004 A 
HETATM   16  C10 UNL     1      34.665   5.531  47.894  1.00  0.00     0.019 A 
HETATM   17  C11 UNL     1      33.386   5.050  48.001  1.00  0.00     0.013 A 
HETATM   18 BR1  UNL     1      33.044   3.240  47.514  1.00  0.00    -0.051 Br
HETATM   19  C12 UNL     1      32.354   5.819  48.444  1.00  0.00     0.048 A 
ENDBRANCH  11  13
ENDBRANCH   8  11
BRANCH  10  20
HETATM   20  C15 UNL     1      27.240   8.995  50.058  1.00  0.00     0.203 C 
BRANCH  20  21
HETATM   21  O1  UNL     1      27.625   9.691  51.175  1.00  0.00    -0.396 OA
HETATM   22  H14 UNL     1      27.568   9.168  52.013  1.00  0.00     0.209 HD
ENDBRANCH  20  21
ENDBRANCH  10  20
TORSDOF 4
ENDMDL
MODEL 9
REMARK VINA RESULT:      -6.2      3.242      5.593
REMARK  4 active torsions:
REMARK  status: ('A' for Active; 'I' for Inactive)
REMARK    1  A    between atoms: C6_8  and  N3_9 
REMARK    2  A    between atoms: N3_9  and  C7_10 
REMARK    3  A    between atoms: C14_18  and  C15_19 
REMARK    4  A    between atoms: C15_19  and  O1_20 
ROOT
HETATM    1  C1  UNL     1      19.695   0.000  51.827  1.00  0.00     0.049 C 
HETATM    2  C2  UNL     1      21.175   0.283  51.859  1.00  0.00    -0.052 C 
HETATM    3  C3  UNL     1      21.841   0.042  53.005  1.00  0.00     0.039 C 
HETATM    4  C4  UNL     1      23.253   0.364  52.766  1.00  0.00     0.091 A 
HETATM    5  N1  UNL     1      24.332  -0.250  53.215  1.00  0.00    -0.242 NA
HETATM    6  C5  UNL     1      25.491   0.436  52.693  1.00  0.00     0.230 A 
HETATM    7  N2  UNL     1      25.121   1.431  51.959  1.00  0.00    -0.240 NA
HETATM    8  C6  UNL     1      23.728   1.492  51.944  1.00  0.00     0.192 A 
HETATM    9  C13 UNL     1      22.963   1.643  50.719  1.00  0.00     0.045 C 
HETATM   10  C14 UNL     1      21.737   1.059  50.725  1.00  0.00    -0.028 C 
ENDROOT
BRANCH   8  11
HETATM   11  N3  UNL     1      23.398   2.762  52.705  1.00  0.00    -0.354 N 
HETATM   12  H6  UNL     1      23.397   2.723  53.740  1.00  0.00     0.163 HD
BRANCH  11  13
HETATM   13  C7  UNL     1      23.093   3.986  52.060  1.00  0.00     0.031 A 
HETATM   14  C8  UNL     1      21.846   4.550  51.924  1.00  0.00     0.029 A 
HETATM   15  C9  UNL     1      21.623   5.750  51.291  1.00  0.00     0.004 A 
HETATM   16  C10 UNL     1      22.656   6.457  50.756  1.00  0.00     0.019 A 
HETATM   17  C11 UNL     1      23.906   5.910  50.883  1.00  0.00     0.013 A 
HETATM   18 BR1  UNL     1      25.396   6.849  50.155  1.00  0.00    -0.051 Br
HETATM   19  C12 UNL     1      24.119   4.720  51.510  1.00  0.00     0.048 A 
ENDBRANCH  11  13
ENDBRANCH   8  11
BRANCH  10  20
HETATM   20  C15 UNL     1      20.846   1.178  49.512  1.00  0.00     0.203 C 
BRANCH  20  21
HETATM   21  O1  UNL     1      21.496   0.886  48.340  1.00  0.00    -0.396 OA
HETATM   22  H14 UNL     1      22.213   1.527  48.109  1.00  0.00     0.209 HD
ENDBRANCH  20  21
ENDBRANCH  10  20
TORSDOF 4
ENDMDL
