MODEL 1
REMARK VINA RESULT:      -7.8      0.000      0.000
REMARK  1 active torsions:
REMARK  status: ('A' for Active; 'I' for Inactive)
REMARK    1  A    between atoms: N1_1  and  C1_2 
ROOT
HETATM    1  C1  UNL     1      20.890   4.720  49.136  1.00  0.00     0.052 C 
HETATM    2  C2  UNL     1      21.582   5.583  49.870  1.00  0.00     0.017 C 
HETATM    3  C3  UNL     1      22.888   5.063  50.391  1.00  0.00     0.063 C 
HETATM    4  C4  UNL     1      23.969   6.106  50.098  1.00  0.00    -0.014 C 
HETATM    5  C5  UNL     1      25.246   6.155  49.642  1.00  0.00    -0.003 C 
HETATM    6  C6  UNL     1      26.579   5.893  49.145  1.00  0.00    -0.004 C 
HETATM    7  C7  UNL     1      27.210   4.714  48.897  1.00  0.00    -0.018 C 
HETATM    8  C8  UNL     1      26.159   3.746  49.274  1.00  0.00     0.130 C 
HETATM    9  C9  UNL     1      26.546   3.058  50.575  1.00  0.00     0.225 C 
HETATM   10  O1  UNL     1      27.007   2.486  51.590  1.00  0.00    -0.273 OA
HETATM   11  N2  UNL     1      25.445   2.929  51.510  1.00  0.00    -0.329 N 
HETATM   12  C10 UNL     1      24.323   2.795  52.462  1.00  0.00     0.030 C 
HETATM   13  C11 UNL     1      24.365   3.814  53.414  1.00  0.00     0.027 C 
HETATM   14  C12 UNL     1      23.631   5.097  52.931  1.00  0.00     0.007 C 
HETATM   15  C13 UNL     1      22.792   4.853  51.861  1.00  0.00    -0.050 C 
HETATM   16  C14 UNL     1      21.574   4.015  52.309  1.00  0.00     0.177 C 
HETATM   17  N3  UNL     1      22.166   2.710  51.845  1.00  0.00    -0.205 N 
HETATM   18  C15 UNL     1      23.174   1.779  52.332  1.00  0.00     0.198 C 
HETATM   19  C16 UNL     1      21.840   2.102  50.635  1.00  0.00     0.725 A 
HETATM   20  N4  UNL     1      21.867   0.935  50.003  1.00  0.00    -0.075 NA
HETATM   21  C17 UNL     1      21.462   0.988  48.691  1.00  0.00     0.139 A 
HETATM   22  C18 UNL     1      21.052   2.184  48.078  1.00  0.00     0.054 A 
HETATM   23  C19 UNL     1      21.070   3.311  48.841  1.00  0.00     0.103 A 
HETATM   24  N5  UNL     1      21.468   3.156  50.068  1.00  0.00    -0.061 NA
HETATM   25  H11 UNL     1      24.551   3.166  51.129  1.00  0.00     0.168 HD
ENDROOT
BRANCH   1  26
HETATM   26  N1  UNL     1      19.638   4.685  48.412  1.00  0.00    -0.397 N 
HETATM   27  H1  UNL     1      18.959   3.907  48.301  1.00  0.00     0.156 HD
HETATM   28  H2  UNL     1      19.147   5.432  47.841  1.00  0.00     0.156 HD
ENDBRANCH   1  26
TORSDOF 1
ENDMDL
MODEL 2
REMARK VINA RESULT:      -7.6      7.075     10.165
REMARK  1 active torsions:
REMARK  status: ('A' for Active; 'I' for Inactive)
REMARK    1  A    between atoms: N1_1  and  C1_2 
ROOT
HETATM    1  C1  UNL     1      30.523   8.881  49.059  1.00  0.00     0.052 C 
HETATM    2  C2  UNL     1      31.793   9.115  48.752  1.00  0.00     0.017 C 
HETATM    3  C3  UNL     1      32.355   8.237  47.676  1.00  0.00     0.063 C 
HETATM    4  C4  UNL     1      33.072   9.125  46.657  1.00  0.00    -0.014 C 
HETATM    5  C5  UNL     1      33.189   9.250  45.312  1.00  0.00    -0.003 C 
HETATM    6  C6  UNL     1      33.123   9.130  43.871  1.00  0.00    -0.004 C 
HETATM    7  C7  UNL     1      32.505   8.201  43.092  1.00  0.00    -0.018 C 
HETATM    8  C8  UNL     1      31.904   7.326  44.120  1.00  0.00     0.130 C 
HETATM    9  C9  UNL     1      32.654   6.003  44.161  1.00  0.00     0.225 C 
HETATM   10  O1  UNL     1      33.275   4.921  44.042  1.00  0.00    -0.273 OA
HETATM   11  N2  UNL     1      32.919   5.531  45.506  1.00  0.00    -0.329 N 
HETATM   12  C10 UNL     1      33.189   5.049  46.876  1.00  0.00     0.030 C 
HETATM   13  C11 UNL     1      34.487   5.379  47.265  1.00  0.00     0.027 C 
HETATM   14  C12 UNL     1      34.568   6.801  47.890  1.00  0.00     0.007 C 
HETATM   15  C13 UNL     1      33.330   7.282  48.269  1.00  0.00    -0.050 C 
HETATM   16  C14 UNL     1      32.796   6.497  49.487  1.00  0.00     0.177 C 
HETATM   17  N3  UNL     1      31.931   5.585  48.657  1.00  0.00    -0.205 N 
HETATM   18  C15 UNL     1      32.140   4.419  47.810  1.00  0.00     0.198 C 
HETATM   19  C16 UNL     1      30.563   5.772  48.478  1.00  0.00     0.725 A 
HETATM   20  N4  UNL     1      29.452   5.137  48.126  1.00  0.00    -0.075 NA
HETATM   21  C17 UNL     1      28.339   5.940  48.042  1.00  0.00     0.139 A 
HETATM   22  C18 UNL     1      28.384   7.319  48.311  1.00  0.00     0.054 A 
HETATM   23  C19 UNL     1      29.589   7.844  48.664  1.00  0.00     0.103 A 
HETATM   24  N5  UNL     1      30.579   7.002  48.715  1.00  0.00    -0.061 NA
HETATM   25  H11 UNL     1      32.451   6.047  46.224  1.00  0.00     0.168 HD
ENDROOT
BRANCH   1  26
HETATM   26  N1  UNL     1      29.521   9.401  49.965  1.00  0.00    -0.397 N 
HETATM   27  H1  UNL     1      28.491   9.463  49.847  1.00  0.00     0.156 HD
HETATM   28  H2  UNL     1      29.617   9.829  50.930  1.00  0.00     0.156 HD
ENDBRANCH   1  26
TORSDOF 1
ENDMDL
MODEL 3
REMARK VINA RESULT:      -7.3      6.669     10.046
REMARK  1 active torsions:
REMARK  status: ('A' for Active; 'I' for Inactive)
REMARK    1  A    between atoms: N1_1  and  C1_2 
ROOT
HETATM    1  C1  UNL     1      31.186   8.109  44.578  1.00  0.00     0.052 C 
HETATM    2  C2  UNL     1      31.571   7.442  45.659  1.00  0.00     0.017 C 
HETATM    3  C3  UNL     1      30.728   7.673  46.876  1.00  0.00     0.063 C 
HETATM    4  C4  UNL     1      30.381   6.312  47.485  1.00  0.00    -0.014 C 
HETATM    5  C5  UNL     1      29.311   5.673  48.018  1.00  0.00    -0.003 C 
HETATM    6  C6  UNL     1      28.022   5.265  48.532  1.00  0.00    -0.004 C 
HETATM    7  C7  UNL     1      26.866   5.970  48.673  1.00  0.00    -0.018 C 
HETATM    8  C8  UNL     1      27.278   7.291  48.153  1.00  0.00     0.130 C 
HETATM    9  C9  UNL     1      27.386   8.279  49.305  1.00  0.00     0.225 C 
HETATM   10  O1  UNL     1      27.347   9.027  50.309  1.00  0.00    -0.273 OA
HETATM   11  N2  UNL     1      28.563   9.122  49.234  1.00  0.00    -0.329 N 
HETATM   12  C10 UNL     1      29.761   9.983  49.162  1.00  0.00     0.030 C 
HETATM   13  C11 UNL     1      30.776   9.481  49.977  1.00  0.00     0.027 C 
HETATM   14  C12 UNL     1      31.650   8.427  49.241  1.00  0.00     0.007 C 
HETATM   15  C13 UNL     1      31.493   8.476  47.869  1.00  0.00    -0.050 C 
HETATM   16  C14 UNL     1      32.118   9.769  47.300  1.00  0.00     0.177 C 
HETATM   17  N3  UNL     1      30.807  10.507  47.245  1.00  0.00    -0.205 N 
HETATM   18  C15 UNL     1      29.933  11.174  48.201  1.00  0.00     0.198 C 
HETATM   19  C16 UNL     1      30.048  10.647  46.086  1.00  0.00     0.725 A 
HETATM   20  N4  UNL     1      29.089  11.382  45.538  1.00  0.00    -0.075 NA
HETATM   21  C17 UNL     1      28.662  10.940  44.308  1.00  0.00     0.139 A 
HETATM   22  C18 UNL     1      29.206   9.802  43.688  1.00  0.00     0.054 A 
HETATM   23  C19 UNL     1      30.187   9.139  44.358  1.00  0.00     0.103 A 
HETATM   24  N5  UNL     1      30.520   9.636  45.513  1.00  0.00    -0.061 NA
HETATM   25  H11 UNL     1      29.066   9.056  48.372  1.00  0.00     0.168 HD
ENDROOT
BRANCH   1  26
HETATM   26  N1  UNL     1      31.599   8.254  43.199  1.00  0.00    -0.397 N 
HETATM   27  H1  UNL     1      31.403   9.020  42.525  1.00  0.00     0.156 HD
HETATM   28  H2  UNL     1      32.181   7.618  42.580  1.00  0.00     0.156 HD
ENDBRANCH   1  26
TORSDOF 1
ENDMDL
MODEL 4
REMARK VINA RESULT:      -7.2      8.142     11.232
REMARK  1 active torsions:
REMARK  status: ('A' for Active; 'I' for Inactive)
REMARK    1  A    between atoms: N1_1  and  C1_2 
ROOT
HETATM    1  C1  UNL     1      34.201   6.005  48.676  1.00  0.00     0.052 C 
HETATM    2  C2  UNL     1      33.951   7.308  48.730  1.00  0.00     0.017 C 
HETATM    3  C3  UNL     1      32.757   7.754  47.942  1.00  0.00     0.063 C 
HETATM    4  C4  UNL     1      31.900   8.652  48.838  1.00  0.00    -0.014 C 
HETATM    5  C5  UNL     1      30.593   8.843  49.144  1.00  0.00    -0.003 C 
HETATM    6  C6  UNL     1      29.151   8.815  49.260  1.00  0.00    -0.004 C 
HETATM    7  C7  UNL     1      28.227   8.080  48.584  1.00  0.00    -0.018 C 
HETATM    8  C8  UNL     1      29.096   7.298  47.680  1.00  0.00     0.130 C 
HETATM    9  C9  UNL     1      28.938   7.809  46.256  1.00  0.00     0.225 C 
HETATM   10  O1  UNL     1      28.657   8.241  45.113  1.00  0.00    -0.273 OA
HETATM   11  N2  UNL     1      30.195   7.937  45.544  1.00  0.00    -0.329 N 
HETATM   12  C10 UNL     1      31.475   8.066  44.819  1.00  0.00     0.030 C 
HETATM   13  C11 UNL     1      31.928   9.385  44.854  1.00  0.00     0.027 C 
HETATM   14  C12 UNL     1      32.770   9.681  46.127  1.00  0.00     0.007 C 
HETATM   15  C13 UNL     1      33.205   8.528  46.752  1.00  0.00    -0.050 C 
HETATM   16  C14 UNL     1      34.277   7.821  45.895  1.00  0.00     0.177 C 
HETATM   17  N3  UNL     1      33.302   6.847  45.286  1.00  0.00    -0.205 N 
HETATM   18  C15 UNL     1      32.285   6.889  44.245  1.00  0.00     0.198 C 
HETATM   19  C16 UNL     1      33.137   5.539  45.734  1.00  0.00     0.725 A 
HETATM   20  N4  UNL     1      32.675   4.351  45.364  1.00  0.00    -0.075 NA
HETATM   21  C17 UNL     1      32.705   3.395  46.352  1.00  0.00     0.139 A 
HETATM   22  C18 UNL     1      33.188   3.663  47.644  1.00  0.00     0.054 A 
HETATM   23  C19 UNL     1      33.635   4.925  47.891  1.00  0.00     0.103 A 
HETATM   24  N5  UNL     1      33.566   5.754  46.892  1.00  0.00    -0.061 NA
HETATM   25  H11 UNL     1      30.979   7.535  46.018  1.00  0.00     0.168 HD
ENDROOT
BRANCH   1  26
HETATM   26  N1  UNL     1      35.165   5.071  49.218  1.00  0.00    -0.397 N 
HETATM   27  H1  UNL     1      35.525   4.980  50.188  1.00  0.00     0.156 HD
HETATM   28  H2  UNL     1      35.709   4.289  48.751  1.00  0.00     0.156 HD
ENDBRANCH   1  26
TORSDOF 1
ENDMDL
MODEL 5
REMARK VINA RESULT:      -7.2      3.126      5.810
REMARK  1 active torsions:
REMARK  status: ('A' for Active; 'I' for Inactive)
REMARK    1  A    between atoms: N1_1  and  C1_2 
ROOT
HETATM    1  C1  UNL     1      25.461   3.534  49.824  1.00  0.00     0.052 C 
HETATM    2  C2  UNL     1      24.151   3.419  49.999  1.00  0.00     0.017 C 
HETATM    3  C3  UNL     1      23.339   4.552  49.448  1.00  0.00     0.063 C 
HETATM    4  C4  UNL     1      22.188   3.963  48.629  1.00  0.00    -0.014 C 
HETATM    5  C5  UNL     1      21.560   4.178  47.446  1.00  0.00    -0.003 C 
HETATM    6  C6  UNL     1      21.095   4.647  46.159  1.00  0.00    -0.004 C 
HETATM    7  C7  UNL     1      21.484   5.720  45.419  1.00  0.00    -0.018 C 
HETATM    8  C8  UNL     1      22.530   6.297  46.289  1.00  0.00     0.130 C 
HETATM    9  C9  UNL     1      22.020   7.591  46.907  1.00  0.00     0.225 C 
HETATM   10  O1  UNL     1      21.538   8.687  47.278  1.00  0.00    -0.273 OA
HETATM   11  N2  UNL     1      22.339   7.724  48.315  1.00  0.00    -0.329 N 
HETATM   12  C10 UNL     1      22.665   7.861  49.749  1.00  0.00     0.030 C 
HETATM   13  C11 UNL     1      21.578   7.483  50.537  1.00  0.00     0.027 C 
HETATM   14  C12 UNL     1      21.563   5.955  50.821  1.00  0.00     0.007 C 
HETATM   15  C13 UNL     1      22.784   5.359  50.568  1.00  0.00    -0.050 C 
HETATM   16  C14 UNL     1      23.828   5.804  51.616  1.00  0.00     0.177 C 
HETATM   17  N3  UNL     1      24.423   6.866  50.730  1.00  0.00    -0.205 N 
HETATM   18  C15 UNL     1      24.057   8.211  50.307  1.00  0.00     0.198 C 
HETATM   19  C16 UNL     1      25.590   6.690  49.990  1.00  0.00     0.725 A 
HETATM   20  N4  UNL     1      26.557   7.358  49.374  1.00  0.00    -0.075 NA
HETATM   21  C17 UNL     1      27.448   6.569  48.687  1.00  0.00     0.139 A 
HETATM   22  C18 UNL     1      27.338   5.169  48.648  1.00  0.00     0.054 A 
HETATM   23  C19 UNL     1      26.299   4.608  49.326  1.00  0.00     0.103 A 
HETATM   24  N5  UNL     1      25.513   5.439  49.943  1.00  0.00    -0.061 NA
HETATM   25  H11 UNL     1      22.975   7.033  48.661  1.00  0.00     0.168 HD
ENDROOT
BRANCH   1  26
HETATM   26  N1  UNL     1      26.658   2.777  50.126  1.00  0.00    -0.397 N 
HETATM   27  H1  UNL     1      26.932   1.823  49.820  1.00  0.00     0.156 HD
HETATM   28  H2  UNL     1      27.501   3.024  50.719  1.00  0.00     0.156 HD
ENDBRANCH   1  26
TORSDOF 1
ENDMDL
MODEL 6
REMARK VINA RESULT:      -7.0      5.647      8.358
REMARK  1 active torsions:
REMARK  status: ('A' for Active; 'I' for Inactive)
REMARK    1  A    between atoms: N1_1  and  C1_2 
ROOT
HETATM    1  C1  UNL     1      27.066   5.798  48.592  1.00  0.00     0.052 C 
HETATM    2  C2  UNL     1      26.023   6.601  48.420  1.00  0.00     0.017 C 
HETATM    3  C3  UNL     1      26.316   7.863  47.667  1.00  0.00     0.063 C 
HETATM    4  C4  UNL     1      25.252   8.032  46.581  1.00  0.00    -0.014 C 
HETATM    5  C5  UNL     1      25.172   8.384  45.273  1.00  0.00    -0.003 C 
HETATM    6  C6  UNL     1      25.399   8.797  43.906  1.00  0.00    -0.004 C 
HETATM    7  C7  UNL     1      26.542   9.198  43.285  1.00  0.00    -0.018 C 
HETATM    8  C8  UNL     1      27.514   9.098  44.393  1.00  0.00     0.130 C 
HETATM    9  C9  UNL     1      27.912  10.495  44.846  1.00  0.00     0.225 C 
HETATM   10  O1  UNL     1      28.243  11.683  45.070  1.00  0.00    -0.273 OA
HETATM   11  N2  UNL     1      27.966  10.642  46.287  1.00  0.00    -0.329 N 
HETATM   12  C10 UNL     1      28.023  10.792  47.756  1.00  0.00     0.030 C 
HETATM   13  C11 UNL     1      26.846  11.368  48.235  1.00  0.00     0.027 C 
HETATM   14  C12 UNL     1      25.747  10.305  48.517  1.00  0.00     0.007 C 
HETATM   15  C13 UNL     1      26.259   9.024  48.597  1.00  0.00    -0.050 C 
HETATM   16  C14 UNL     1      27.107   8.861  49.877  1.00  0.00     0.177 C 
HETATM   17  N3  UNL     1      28.416   9.092  49.169  1.00  0.00    -0.205 N 
HETATM   18  C15 UNL     1      29.146  10.243  48.654  1.00  0.00     0.198 C 
HETATM   19  C16 UNL     1      29.264   8.066  48.761  1.00  0.00     0.725 A 
HETATM   20  N4  UNL     1      30.520   7.814  48.414  1.00  0.00    -0.075 NA
HETATM   21  C17 UNL     1      30.748   6.526  47.990  1.00  0.00     0.139 A 
HETATM   22  C18 UNL     1      29.728   5.561  47.935  1.00  0.00     0.054 A 
HETATM   23  C19 UNL     1      28.483   5.951  48.322  1.00  0.00     0.103 A 
HETATM   24  N5  UNL     1      28.371   7.188  48.706  1.00  0.00    -0.061 NA
HETATM   25  H11 UNL     1      27.886   9.782  46.792  1.00  0.00     0.168 HD
ENDROOT
BRANCH   1  26
HETATM   26  N1  UNL     1      27.347   4.516  49.202  1.00  0.00    -0.397 N 
HETATM   27  H1  UNL     1      26.695   3.753  49.470  1.00  0.00     0.156 HD
HETATM   28  H2  UNL     1      28.265   4.082  49.509  1.00  0.00     0.156 HD
ENDBRANCH   1  26
TORSDOF 1
ENDMDL
MODEL 7
REMARK VINA RESULT:      -6.9      2.497      4.751
REMARK  1 active torsions:
REMARK  status: ('A' for Active; 'I' for Inactive)
REMARK    1  A    between atoms: N1_1  and  C1_2 
ROOT
HETATM    1  C1  UNL     1      19.414   0.780  50.855  1.00  0.00     0.052 C 
HETATM    2  C2  UNL     1      20.681   0.606  50.501  1.00  0.00     0.017 C 
HETATM    3  C3  UNL     1      21.500   1.861  50.449  1.00  0.00     0.063 C 
HETATM    4  C4  UNL     1      22.807   1.613  51.205  1.00  0.00    -0.014 C 
HETATM    5  C5  UNL     1      23.609   2.246  52.096  1.00  0.00    -0.003 C 
HETATM    6  C6  UNL     1      24.253   3.154  53.020  1.00  0.00    -0.004 C 
HETATM    7  C7  UNL     1      23.925   4.425  53.378  1.00  0.00    -0.018 C 
HETATM    8  C8  UNL     1      22.713   4.644  52.561  1.00  0.00     0.130 C 
HETATM    9  C9  UNL     1      23.028   5.619  51.437  1.00  0.00     0.225 C 
HETATM   10  O1  UNL     1      23.369   6.501  50.614  1.00  0.00    -0.273 OA
HETATM   11  N2  UNL     1      22.469   5.226  50.158  1.00  0.00    -0.329 N 
HETATM   12  C10 UNL     1      21.899   4.827  48.855  1.00  0.00     0.030 C 
HETATM   13  C11 UNL     1      22.861   4.184  48.075  1.00  0.00     0.027 C 
HETATM   14  C12 UNL     1      22.926   2.658  48.366  1.00  0.00     0.007 C 
HETATM   15  C13 UNL     1      21.806   2.199  49.033  1.00  0.00    -0.050 C 
HETATM   16  C14 UNL     1      20.574   2.230  48.101  1.00  0.00     0.177 C 
HETATM   17  N3  UNL     1      20.069   3.545  48.634  1.00  0.00    -0.205 N 
HETATM   18  C15 UNL     1      20.414   4.950  48.469  1.00  0.00     0.198 C 
HETATM   19  C16 UNL     1      19.057   3.654  49.585  1.00  0.00     0.725 A 
HETATM   20  N4  UNL     1      18.166   4.504  50.080  1.00  0.00    -0.075 NA
HETATM   21  C17 UNL     1      17.455   4.024  51.154  1.00  0.00     0.139 A 
HETATM   22  C18 UNL     1      17.660   2.736  51.676  1.00  0.00     0.054 A 
HETATM   23  C19 UNL     1      18.605   1.964  51.073  1.00  0.00     0.103 A 
HETATM   24  N5  UNL     1      19.221   2.509  50.066  1.00  0.00    -0.061 NA
HETATM   25  H11 UNL     1      21.830   4.458  50.206  1.00  0.00     0.168 HD
ENDROOT
BRANCH   1  26
HETATM   26  N1  UNL     1      18.235  -0.032  51.068  1.00  0.00    -0.397 N 
HETATM   27  H1  UNL     1      17.501  -0.322  50.393  1.00  0.00     0.156 HD
HETATM   28  H2  UNL     1      17.866  -0.500  51.945  1.00  0.00     0.156 HD
ENDBRANCH   1  26
TORSDOF 1
ENDMDL
MODEL 8
REMARK VINA RESULT:      -6.9      8.201     10.816
REMARK  1 active torsions:
REMARK  status: ('A' for Active; 'I' for Inactive)
REMARK    1  A    between atoms: N1_1  and  C1_2 
ROOT
HETATM    1  C1  UNL     1      32.155   4.513  46.966  1.00  0.00     0.052 C 
HETATM    2  C2  UNL     1      31.449   5.050  47.953  1.00  0.00     0.017 C 
HETATM    3  C3  UNL     1      30.977   6.450  47.702  1.00  0.00     0.063 C 
HETATM    4  C4  UNL     1      29.488   6.524  48.047  1.00  0.00    -0.014 C 
HETATM    5  C5  UNL     1      28.346   7.052  47.541  1.00  0.00    -0.003 C 
HETATM    6  C6  UNL     1      27.319   7.725  46.776  1.00  0.00    -0.004 C 
HETATM    7  C7  UNL     1      27.416   8.491  45.655  1.00  0.00    -0.018 C 
HETATM    8  C8  UNL     1      28.874   8.457  45.415  1.00  0.00     0.130 C 
HETATM    9  C9  UNL     1      29.474   9.817  45.742  1.00  0.00     0.225 C 
HETATM   10  O1  UNL     1      29.844  10.997  45.943  1.00  0.00    -0.273 OA
HETATM   11  N2  UNL     1      30.716   9.737  46.485  1.00  0.00    -0.329 N 
HETATM   12  C10 UNL     1      31.983   9.655  47.241  1.00  0.00     0.030 C 
HETATM   13  C11 UNL     1      31.752   9.837  48.605  1.00  0.00     0.027 C 
HETATM   14  C12 UNL     1      31.392   8.504  49.320  1.00  0.00     0.007 C 
HETATM   15  C13 UNL     1      31.732   7.394  48.570  1.00  0.00    -0.050 C 
HETATM   16  C14 UNL     1      33.267   7.240  48.501  1.00  0.00     0.177 C 
HETATM   17  N3  UNL     1      33.380   7.900  47.151  1.00  0.00    -0.205 N 
HETATM   18  C15 UNL     1      33.344   9.263  46.639  1.00  0.00     0.198 C 
HETATM   19  C16 UNL     1      33.492   7.195  45.955  1.00  0.00     0.725 A 
HETATM   20  N4  UNL     1      33.878   7.322  44.692  1.00  0.00    -0.075 NA
HETATM   21  C17 UNL     1      33.641   6.217  43.909  1.00  0.00     0.139 A 
HETATM   22  C18 UNL     1      33.041   5.052  44.416  1.00  0.00     0.054 A 
HETATM   23  C19 UNL     1      32.694   5.053  45.732  1.00  0.00     0.103 A 
HETATM   24  N5  UNL     1      32.960   6.145  46.385  1.00  0.00    -0.061 NA
HETATM   25  H11 UNL     1      31.095   8.813  46.556  1.00  0.00     0.168 HD
ENDROOT
BRANCH   1  26
HETATM   26  N1  UNL     1      32.817   3.259  46.675  1.00  0.00    -0.397 N 
HETATM   27  H1  UNL     1      33.159   2.886  45.767  1.00  0.00     0.156 HD
HETATM   28  H2  UNL     1      33.090   2.456  47.312  1.00  0.00     0.156 HD
ENDBRANCH   1  26
TORSDOF 1
ENDMDL
MODEL 9
REMARK VINA RESULT:      -6.8      2.666      5.414
REMARK  1 active torsions:
REMARK  status: ('A' for Active; 'I' for Inactive)
REMARK    1  A    between atoms: N1_1  and  C1_2 
ROOT
HETATM    1  C1  UNL     1      23.812   3.988  52.298  1.00  0.00     0.052 C 
HETATM    2  C2  UNL     1      22.738   4.752  52.142  1.00  0.00     0.017 C 
HETATM    3  C3  UNL     1      22.437   5.135  50.724  1.00  0.00     0.063 C 
HETATM    4  C4  UNL     1      20.953   4.869  50.460  1.00  0.00    -0.014 C 
HETATM    5  C5  UNL     1      20.166   4.337  49.492  1.00  0.00    -0.003 C 
HETATM    6  C6  UNL     1      19.600   3.732  48.306  1.00  0.00    -0.004 C 
HETATM    7  C7  UNL     1      20.198   3.335  47.149  1.00  0.00    -0.018 C 
HETATM    8  C8  UNL     1      21.606   3.690  47.423  1.00  0.00     0.130 C 
HETATM    9  C9  UNL     1      21.998   4.894  46.579  1.00  0.00     0.225 C 
HETATM   10  O1  UNL     1      22.243   5.820  45.770  1.00  0.00    -0.273 OA
HETATM   11  N2  UNL     1      22.769   5.883  47.307  1.00  0.00    -0.329 N 
HETATM   12  C10 UNL     1      23.555   6.891  48.048  1.00  0.00     0.030 C 
HETATM   13  C11 UNL     1      22.733   7.927  48.488  1.00  0.00     0.027 C 
HETATM   14  C12 UNL     1      22.082   7.614  49.866  1.00  0.00     0.007 C 
HETATM   15  C13 UNL     1      22.720   6.583  50.528  1.00  0.00    -0.050 C 
HETATM   16  C14 UNL     1      24.120   7.031  51.003  1.00  0.00     0.177 C 
HETATM   17  N3  UNL     1      24.834   6.411  49.830  1.00  0.00    -0.205 N 
HETATM   18  C15 UNL     1      25.040   6.744  48.427  1.00  0.00     0.198 C 
HETATM   19  C16 UNL     1      25.473   5.175  49.882  1.00  0.00     0.725 A 
HETATM   20  N4  UNL     1      26.390   4.438  49.268  1.00  0.00    -0.075 NA
HETATM   21  C17 UNL     1      26.528   3.165  49.769  1.00  0.00     0.139 A 
HETATM   22  C18 UNL     1      25.759   2.693  50.845  1.00  0.00     0.054 A 
HETATM   23  C19 UNL     1      24.853   3.553  51.386  1.00  0.00     0.103 A 
HETATM   24  N5  UNL     1      24.800   4.733  50.842  1.00  0.00    -0.061 NA
HETATM   25  H11 UNL     1      23.071   5.585  48.213  1.00  0.00     0.168 HD
ENDROOT
BRANCH   1  26
HETATM   26  N1  UNL     1      24.529   3.347  53.380  1.00  0.00    -0.397 N 
HETATM   27  H1  UNL     1      25.139   3.766  54.109  1.00  0.00     0.156 HD
HETATM   28  H2  UNL     1      24.590   2.326  53.660  1.00  0.00     0.156 HD
ENDBRANCH   1  26
TORSDOF 1
ENDMDL
