MODEL 1
REMARK VINA RESULT:      -8.3      0.000      0.000
REMARK  4 active torsions:
REMARK  status: ('A' for Active; 'I' for Inactive)
REMARK    1  A    between atoms: C5_5  and  C6_6 
REMARK    2  A    between atoms: C8_9  and  N1_10 
REMARK    3  A    between atoms: N1_10  and  C9_11 
REMARK    4  A    between atoms: C12_15  and  C13_16 
ROOT
HETATM    1  C9  UNL     1      25.517   3.127  50.848  1.00  0.00     0.727 A 
HETATM    2  N2  UNL     1      24.557   3.436  51.737  1.00  0.00    -0.075 NA
HETATM    3  C10 UNL     1      24.472   2.943  52.958  1.00  0.00     0.139 A 
HETATM    4  C11 UNL     1      25.439   2.045  53.353  1.00  0.00     0.053 A 
HETATM    5  C12 UNL     1      26.450   1.686  52.491  1.00  0.00     0.089 A 
HETATM    6  N4  UNL     1      26.437   2.250  51.274  1.00  0.00    -0.062 NA
ENDROOT
BRANCH   1   7
HETATM    7  N1  UNL     1      25.495   3.729  49.565  1.00  0.00    -0.188 N 
HETATM    8  H8  UNL     1      24.779   3.350  48.876  1.00  0.00     0.184 HD
BRANCH   7   9
HETATM    9  C8  UNL     1      26.292   4.775  49.043  1.00  0.00     0.056 A 
HETATM   10  C2  UNL     1      25.757   6.020  48.739  1.00  0.00    -0.035 A 
HETATM   11  C1  UNL     1      24.310   6.252  48.971  1.00  0.00     0.050 C 
HETATM   12  C3  UNL     1      26.495   7.047  48.237  1.00  0.00     0.010 A 
HETATM   13  C4  UNL     1      27.824   6.903  48.001  1.00  0.00     0.015 A 
HETATM   14  C5  UNL     1      28.427   5.694  48.278  1.00  0.00     0.004 A 
HETATM   15  C7  UNL     1      27.642   4.681  48.787  1.00  0.00     0.045 A 
BRANCH  14  16
HETATM   16  C6  UNL     1      29.858   5.527  48.029  1.00  0.00     0.270 C 
HETATM   17  O1  UNL     1      30.611   5.420  49.032  1.00  0.00    -0.301 OA
ENDBRANCH  14  16
ENDBRANCH   7   9
ENDBRANCH   1   7
BRANCH   5  18
HETATM   18  C13 UNL     1      27.475   0.742  52.890  1.00  0.00     0.011 A 
HETATM   19  C14 UNL     1      28.724   1.100  53.322  1.00  0.00     0.017 A 
HETATM   20  C15 UNL     1      29.701   0.180  53.704  1.00  0.00     0.020 A 
HETATM   21  C16 UNL     1      29.417  -1.173  53.650  1.00  0.00     0.116 A 
HETATM   22  N3  UNL     1      28.193  -1.516  53.225  1.00  0.00    -0.272 NA
HETATM   23  C17 UNL     1      27.263  -0.617  52.862  1.00  0.00     0.130 A 
ENDBRANCH   5  18
TORSDOF 4
ENDMDL
MODEL 2
REMARK VINA RESULT:      -8.0      4.869      7.634
REMARK  4 active torsions:
REMARK  status: ('A' for Active; 'I' for Inactive)
REMARK    1  A    between atoms: C5_5  and  C6_6 
REMARK    2  A    between atoms: C8_9  and  N1_10 
REMARK    3  A    between atoms: N1_10  and  C9_11 
REMARK    4  A    between atoms: C12_15  and  C13_16 
ROOT
HETATM    1  C9  UNL     1      24.142  -0.374  53.251  1.00  0.00     0.727 A 
HETATM    2  N2  UNL     1      24.285  -0.804  54.517  1.00  0.00    -0.075 NA
HETATM    3  C10 UNL     1      23.291  -1.128  55.320  1.00  0.00     0.139 A 
HETATM    4  C11 UNL     1      22.009  -1.018  54.828  1.00  0.00     0.053 A 
HETATM    5  C12 UNL     1      21.793  -0.584  53.540  1.00  0.00     0.089 A 
HETATM    6  N4  UNL     1      22.878  -0.282  52.812  1.00  0.00    -0.062 NA
ENDROOT
BRANCH   1   7
HETATM    7  N1  UNL     1      25.295  -0.057  52.491  1.00  0.00    -0.188 N 
HETATM    8  H8  UNL     1      25.136   0.194  51.470  1.00  0.00     0.184 HD
BRANCH   7   9
HETATM    9  C8  UNL     1      26.654  -0.022  52.882  1.00  0.00     0.056 A 
HETATM   10  C2  UNL     1      27.453  -1.158  52.857  1.00  0.00    -0.035 A 
HETATM   11  C1  UNL     1      26.858  -2.439  52.404  1.00  0.00     0.050 C 
HETATM   12  C3  UNL     1      28.762  -1.158  53.226  1.00  0.00     0.010 A 
HETATM   13  C4  UNL     1      29.370  -0.020  53.650  1.00  0.00     0.015 A 
HETATM   14  C5  UNL     1      28.640   1.149  53.703  1.00  0.00     0.004 A 
HETATM   15  C7  UNL     1      27.317   1.105  53.319  1.00  0.00     0.045 A 
BRANCH  14  16
HETATM   16  C6  UNL     1      29.284   2.381  54.157  1.00  0.00     0.270 C 
HETATM   17  O1  UNL     1      29.825   2.366  55.294  1.00  0.00    -0.301 OA
ENDBRANCH  14  16
ENDBRANCH   7   9
ENDBRANCH   1   7
BRANCH   5  18
HETATM   18  C13 UNL     1      20.451  -0.462  53.005  1.00  0.00     0.011 A 
HETATM   19  C14 UNL     1      20.128   0.274  51.896  1.00  0.00     0.017 A 
HETATM   20  C15 UNL     1      18.831   0.382  51.393  1.00  0.00     0.020 A 
HETATM   21  C16 UNL     1      17.798  -0.280  52.032  1.00  0.00     0.116 A 
HETATM   22  N3  UNL     1      18.121  -0.998  53.117  1.00  0.00    -0.272 NA
HETATM   23  C17 UNL     1      19.376  -1.092  53.589  1.00  0.00     0.130 A 
ENDBRANCH   5  18
TORSDOF 4
ENDMDL
MODEL 3
REMARK VINA RESULT:      -7.9      1.788      2.373
REMARK  4 active torsions:
REMARK  status: ('A' for Active; 'I' for Inactive)
REMARK    1  A    between atoms: C5_5  and  C6_6 
REMARK    2  A    between atoms: C8_9  and  N1_10 
REMARK    3  A    between atoms: N1_10  and  C9_11 
REMARK    4  A    between atoms: C12_15  and  C13_16 
ROOT
HETATM    1  C9  UNL     1      24.099   1.577  51.582  1.00  0.00     0.727 A 
HETATM    2  N2  UNL     1      23.124   0.914  52.227  1.00  0.00    -0.075 NA
HETATM    3  C10 UNL     1      23.321  -0.049  53.107  1.00  0.00     0.139 A 
HETATM    4  C11 UNL     1      24.622  -0.401  53.388  1.00  0.00     0.053 A 
HETATM    5  C12 UNL     1      25.667   0.239  52.762  1.00  0.00     0.089 A 
HETATM    6  N4  UNL     1      25.350   1.202  51.885  1.00  0.00    -0.062 NA
ENDROOT
BRANCH   1   7
HETATM    7  N1  UNL     1      23.753   2.594  50.657  1.00  0.00    -0.188 N 
HETATM    8  H8  UNL     1      22.929   2.392  50.017  1.00  0.00     0.184 HD
BRANCH   7   9
HETATM    9  C8  UNL     1      24.344   3.862  50.445  1.00  0.00     0.056 A 
HETATM   10  C2  UNL     1      23.838   5.013  51.036  1.00  0.00    -0.035 A 
HETATM   11  C1  UNL     1      22.646   4.901  51.912  1.00  0.00     0.050 C 
HETATM   12  C3  UNL     1      24.382   6.246  50.853  1.00  0.00     0.010 A 
HETATM   13  C4  UNL     1      25.473   6.420  50.064  1.00  0.00     0.015 A 
HETATM   14  C5  UNL     1      26.032   5.323  49.443  1.00  0.00     0.004 A 
HETATM   15  C7  UNL     1      25.450   4.092  49.656  1.00  0.00     0.045 A 
BRANCH  14  16
HETATM   16  C6  UNL     1      27.208   5.497  48.591  1.00  0.00     0.270 C 
HETATM   17  O1  UNL     1      28.102   4.614  48.652  1.00  0.00    -0.301 OA
ENDBRANCH  14  16
ENDBRANCH   7   9
ENDBRANCH   1   7
BRANCH   5  18
HETATM   18  C13 UNL     1      27.043  -0.120  53.046  1.00  0.00     0.011 A 
HETATM   19  C14 UNL     1      28.033   0.785  53.323  1.00  0.00     0.017 A 
HETATM   20  C15 UNL     1      29.354   0.425  53.594  1.00  0.00     0.020 A 
HETATM   21  C16 UNL     1      29.707  -0.912  53.587  1.00  0.00     0.116 A 
HETATM   22  N3  UNL     1      28.734  -1.792  53.314  1.00  0.00    -0.272 NA
HETATM   23  C17 UNL     1      27.466  -1.429  53.055  1.00  0.00     0.130 A 
ENDBRANCH   5  18
TORSDOF 4
ENDMDL
MODEL 4
REMARK VINA RESULT:      -7.8      2.190      6.662
REMARK  4 active torsions:
REMARK  status: ('A' for Active; 'I' for Inactive)
REMARK    1  A    between atoms: C5_5  and  C6_6 
REMARK    2  A    between atoms: C8_9  and  N1_10 
REMARK    3  A    between atoms: N1_10  and  C9_11 
REMARK    4  A    between atoms: C12_15  and  C13_16 
ROOT
HETATM    1  C9  UNL     1      24.259   3.458  51.369  1.00  0.00     0.727 A 
HETATM    2  N2  UNL     1      23.096   3.497  50.695  1.00  0.00    -0.075 NA
HETATM    3  C10 UNL     1      22.920   4.084  49.528  1.00  0.00     0.139 A 
HETATM    4  C11 UNL     1      24.007   4.706  48.954  1.00  0.00     0.053 A 
HETATM    5  C12 UNL     1      25.227   4.704  49.592  1.00  0.00     0.089 A 
HETATM    6  N4  UNL     1      25.291   4.076  50.775  1.00  0.00    -0.062 NA
ENDROOT
BRANCH   1   7
HETATM    7  N1  UNL     1      24.316   2.792  52.618  1.00  0.00    -0.188 N 
HETATM    8  H8  UNL     1      23.591   3.077  53.342  1.00  0.00     0.184 HD
BRANCH   7   9
HETATM    9  C8  UNL     1      25.205   1.786  53.067  1.00  0.00     0.056 A 
HETATM   10  C2  UNL     1      24.791   0.475  53.257  1.00  0.00    -0.035 A 
HETATM   11  C1  UNL     1      23.375   0.126  52.980  1.00  0.00     0.050 C 
HETATM   12  C3  UNL     1      25.619  -0.515  53.686  1.00  0.00     0.010 A 
HETATM   13  C4  UNL     1      26.926  -0.265  53.958  1.00  0.00     0.015 A 
HETATM   14  C5  UNL     1      27.411   1.015  53.792  1.00  0.00     0.004 A 
HETATM   15  C7  UNL     1      26.538   1.987  53.355  1.00  0.00     0.045 A 
BRANCH  14  16
HETATM   16  C6  UNL     1      28.817   1.296  54.081  1.00  0.00     0.270 C 
HETATM   17  O1  UNL     1      29.103   2.450  54.496  1.00  0.00    -0.301 OA
ENDBRANCH  14  16
ENDBRANCH   7   9
ENDBRANCH   1   7
BRANCH   5  18
HETATM   18  C13 UNL     1      26.381   5.353  49.003  1.00  0.00     0.011 A 
HETATM   19  C14 UNL     1      27.580   4.732  48.772  1.00  0.00     0.017 A 
HETATM   20  C15 UNL     1      28.683   5.370  48.204  1.00  0.00     0.020 A 
HETATM   21  C16 UNL     1      28.585   6.703  47.847  1.00  0.00     0.116 A 
HETATM   22  N3  UNL     1      27.410   7.305  48.077  1.00  0.00    -0.272 NA
HETATM   23  C17 UNL     1      26.357   6.676  48.624  1.00  0.00     0.130 A 
ENDBRANCH   5  18
TORSDOF 4
ENDMDL
MODEL 5
REMARK VINA RESULT:      -7.8      1.976      3.373
REMARK  4 active torsions:
REMARK  status: ('A' for Active; 'I' for Inactive)
REMARK    1  A    between atoms: C5_5  and  C6_6 
REMARK    2  A    between atoms: C8_9  and  N1_10 
REMARK    3  A    between atoms: N1_10  and  C9_11 
REMARK    4  A    between atoms: C12_15  and  C13_16 
ROOT
HETATM    1  C9  UNL     1      25.925   2.694  50.702  1.00  0.00     0.727 A 
HETATM    2  N2  UNL     1      27.096   2.671  51.362  1.00  0.00    -0.075 NA
HETATM    3  C10 UNL     1      27.292   2.092  52.530  1.00  0.00     0.139 A 
HETATM    4  C11 UNL     1      26.218   1.461  53.119  1.00  0.00     0.053 A 
HETATM    5  C12 UNL     1      24.991   1.448  52.496  1.00  0.00     0.089 A 
HETATM    6  N4  UNL     1      24.907   2.069  51.311  1.00  0.00    -0.062 NA
ENDROOT
BRANCH   1   7
HETATM    7  N1  UNL     1      25.846   3.353  49.450  1.00  0.00    -0.188 N 
HETATM    8  H8  UNL     1      25.260   2.879  48.700  1.00  0.00     0.184 HD
BRANCH   7   9
HETATM    9  C8  UNL     1      26.438   4.568  49.029  1.00  0.00     0.056 A 
HETATM   10  C2  UNL     1      25.701   5.739  48.911  1.00  0.00    -0.035 A 
HETATM   11  C1  UNL     1      24.253   5.707  49.237  1.00  0.00     0.050 C 
HETATM   12  C3  UNL     1      26.238   6.922  48.510  1.00  0.00     0.010 A 
HETATM   13  C4  UNL     1      27.555   7.022  48.197  1.00  0.00     0.015 A 
HETATM   14  C5  UNL     1      28.352   5.900  48.290  1.00  0.00     0.004 A 
HETATM   15  C7  UNL     1      27.767   4.722  48.701  1.00  0.00     0.045 A 
BRANCH  14  16
HETATM   16  C6  UNL     1      29.773   5.996  47.956  1.00  0.00     0.270 C 
HETATM   17  O1  UNL     1      30.469   4.955  48.087  1.00  0.00    -0.301 OA
ENDBRANCH  14  16
ENDBRANCH   7   9
ENDBRANCH   1   7
BRANCH   5  18
HETATM   18  C13 UNL     1      23.850   0.790  53.102  1.00  0.00     0.011 A 
HETATM   19  C14 UNL     1      23.929  -0.359  53.844  1.00  0.00     0.017 A 
HETATM   20  C15 UNL     1      22.822  -0.981  54.422  1.00  0.00     0.020 A 
HETATM   21  C16 UNL     1      21.566  -0.428  54.248  1.00  0.00     0.116 A 
HETATM   22  N3  UNL     1      21.496   0.695  53.520  1.00  0.00    -0.272 NA
HETATM   23  C17 UNL     1      22.572   1.282  52.971  1.00  0.00     0.130 A 
ENDBRANCH   5  18
TORSDOF 4
ENDMDL
MODEL 6
REMARK VINA RESULT:      -7.7      4.231      6.696
REMARK  4 active torsions:
REMARK  status: ('A' for Active; 'I' for Inactive)
REMARK    1  A    between atoms: C5_5  and  C6_6 
REMARK    2  A    between atoms: C8_9  and  N1_10 
REMARK    3  A    between atoms: N1_10  and  C9_11 
REMARK    4  A    between atoms: C12_15  and  C13_16 
ROOT
HETATM    1  C9  UNL     1      23.787   2.138  50.796  1.00  0.00     0.727 A 
HETATM    2  N2  UNL     1      24.273   3.040  49.925  1.00  0.00    -0.075 NA
HETATM    3  C10 UNL     1      25.538   3.405  49.844  1.00  0.00     0.139 A 
HETATM    4  C11 UNL     1      26.429   2.819  50.716  1.00  0.00     0.053 A 
HETATM    5  C12 UNL     1      25.997   1.889  51.633  1.00  0.00     0.089 A 
HETATM    6  N4  UNL     1      24.689   1.593  51.626  1.00  0.00    -0.062 NA
ENDROOT
BRANCH   1   7
HETATM    7  N1  UNL     1      22.404   1.833  50.781  1.00  0.00    -0.188 N 
HETATM    8  H8  UNL     1      21.832   2.259  49.991  1.00  0.00     0.184 HD
BRANCH   7   9
HETATM    9  C8  UNL     1      21.644   1.036  51.670  1.00  0.00     0.056 A 
HETATM   10  C2  UNL     1      20.326   0.692  51.401  1.00  0.00    -0.035 A 
HETATM   11  C1  UNL     1      19.704   1.178  50.143  1.00  0.00     0.050 C 
HETATM   12  C3  UNL     1      19.568  -0.072  52.233  1.00  0.00     0.010 A 
HETATM   13  C4  UNL     1      20.075  -0.549  53.399  1.00  0.00     0.015 A 
HETATM   14  C5  UNL     1      21.378  -0.249  53.735  1.00  0.00     0.004 A 
HETATM   15  C7  UNL     1      22.110   0.527  52.863  1.00  0.00     0.045 A 
BRANCH  14  16
HETATM   16  C6  UNL     1      21.935  -0.758  54.988  1.00  0.00     0.270 C 
HETATM   17  O1  UNL     1      22.009  -2.007  55.123  1.00  0.00    -0.301 OA
ENDBRANCH  14  16
ENDBRANCH   7   9
ENDBRANCH   1   7
BRANCH   5  18
HETATM   18  C13 UNL     1      26.922   1.263  52.558  1.00  0.00     0.011 A 
HETATM   19  C14 UNL     1      27.158  -0.085  52.616  1.00  0.00     0.017 A 
HETATM   20  C15 UNL     1      28.052  -0.674  53.512  1.00  0.00     0.020 A 
HETATM   21  C16 UNL     1      28.747   0.127  54.400  1.00  0.00     0.116 A 
HETATM   22  N3  UNL     1      28.510   1.444  54.338  1.00  0.00    -0.272 NA
HETATM   23  C17 UNL     1      27.646   1.996  53.469  1.00  0.00     0.130 A 
ENDBRANCH   5  18
TORSDOF 4
ENDMDL
MODEL 7
REMARK VINA RESULT:      -7.5      2.692      6.857
REMARK  4 active torsions:
REMARK  status: ('A' for Active; 'I' for Inactive)
REMARK    1  A    between atoms: C5_5  and  C6_6 
REMARK    2  A    between atoms: C8_9  and  N1_10 
REMARK    3  A    between atoms: N1_10  and  C9_11 
REMARK    4  A    between atoms: C12_15  and  C13_16 
ROOT
HETATM    1  C9  UNL     1      24.050   1.842  51.111  1.00  0.00     0.727 A 
HETATM    2  N2  UNL     1      22.887   1.771  50.440  1.00  0.00    -0.075 NA
HETATM    3  C10 UNL     1      22.568   2.520  49.402  1.00  0.00     0.139 A 
HETATM    4  C11 UNL     1      23.495   3.444  48.972  1.00  0.00     0.053 A 
HETATM    5  C12 UNL     1      24.705   3.568  49.616  1.00  0.00     0.089 A 
HETATM    6  N4  UNL     1      24.922   2.755  50.660  1.00  0.00    -0.062 NA
ENDROOT
BRANCH   1   7
HETATM    7  N1  UNL     1      24.270   0.979  52.213  1.00  0.00    -0.188 N 
HETATM    8  H8  UNL     1      23.404   0.634  52.726  1.00  0.00     0.184 HD
BRANCH   7   9
HETATM    9  C8  UNL     1      25.484   0.491  52.752  1.00  0.00     0.056 A 
HETATM   10  C2  UNL     1      26.251   1.246  53.630  1.00  0.00    -0.035 A 
HETATM   11  C1  UNL     1      25.776   2.600  54.010  1.00  0.00     0.050 C 
HETATM   12  C3  UNL     1      27.421   0.808  54.166  1.00  0.00     0.010 A 
HETATM   13  C4  UNL     1      27.914  -0.421  53.861  1.00  0.00     0.015 A 
HETATM   14  C5  UNL     1      27.208  -1.229  52.994  1.00  0.00     0.004 A 
HETATM   15  C7  UNL     1      26.026  -0.745  52.475  1.00  0.00     0.045 A 
BRANCH  14  16
HETATM   16  C6  UNL     1      27.728  -2.554  52.658  1.00  0.00     0.270 C 
HETATM   17  O1  UNL     1      28.722  -2.967  53.310  1.00  0.00    -0.301 OA
ENDBRANCH  14  16
ENDBRANCH   7   9
ENDBRANCH   1   7
BRANCH   5  18
HETATM   18  C13 UNL     1      25.691   4.536  49.177  1.00  0.00     0.011 A 
HETATM   19  C14 UNL     1      27.020   4.254  49.001  1.00  0.00     0.017 A 
HETATM   20  C15 UNL     1      27.959   5.197  48.577  1.00  0.00     0.020 A 
HETATM   21  C16 UNL     1      27.549   6.492  48.317  1.00  0.00     0.116 A 
HETATM   22  N3  UNL     1      26.248   6.760  48.493  1.00  0.00    -0.272 NA
HETATM   23  C17 UNL     1      25.357   5.841  48.900  1.00  0.00     0.130 A 
ENDBRANCH   5  18
TORSDOF 4
ENDMDL
MODEL 8
REMARK VINA RESULT:      -7.5      3.701      7.776
REMARK  4 active torsions:
REMARK  status: ('A' for Active; 'I' for Inactive)
REMARK    1  A    between atoms: C5_5  and  C6_6 
REMARK    2  A    between atoms: C8_9  and  N1_10 
REMARK    3  A    between atoms: N1_10  and  C9_11 
REMARK    4  A    between atoms: C12_15  and  C13_16 
ROOT
HETATM    1  C9  UNL     1      23.891   3.243  51.085  1.00  0.00     0.727 A 
HETATM    2  N2  UNL     1      22.922   3.933  51.712  1.00  0.00    -0.075 NA
HETATM    3  C10 UNL     1      22.836   5.249  51.750  1.00  0.00     0.139 A 
HETATM    4  C11 UNL     1      23.812   5.972  51.099  1.00  0.00     0.053 A 
HETATM    5  C12 UNL     1      24.832   5.326  50.438  1.00  0.00     0.089 A 
HETATM    6  N4  UNL     1      24.819   3.986  50.465  1.00  0.00    -0.062 NA
ENDROOT
BRANCH   1   7
HETATM    7  N1  UNL     1      23.868   1.827  51.120  1.00  0.00    -0.188 N 
HETATM    8  H8  UNL     1      23.827   1.330  50.180  1.00  0.00     0.184 HD
BRANCH   7   9
HETATM    9  C8  UNL     1      23.892   0.949  52.230  1.00  0.00     0.056 A 
HETATM   10  C2  UNL     1      25.072   0.374  52.684  1.00  0.00    -0.035 A 
HETATM   11  C1  UNL     1      26.339   0.695  51.980  1.00  0.00     0.050 C 
HETATM   12  C3  UNL     1      25.129  -0.472  53.747  1.00  0.00     0.010 A 
HETATM   13  C4  UNL     1      24.008  -0.807  54.435  1.00  0.00     0.015 A 
HETATM   14  C5  UNL     1      22.797  -0.276  54.043  1.00  0.00     0.004 A 
HETATM   15  C7  UNL     1      22.784   0.578  52.961  1.00  0.00     0.045 A 
BRANCH  14  16
HETATM   16  C6  UNL     1      21.582  -0.629  54.777  1.00  0.00     0.270 C 
HETATM   17  O1  UNL     1      21.363  -1.852  54.978  1.00  0.00    -0.301 OA
ENDBRANCH  14  16
ENDBRANCH   7   9
ENDBRANCH   1   7
BRANCH   5  18
HETATM   18  C13 UNL     1      25.867   6.072  49.749  1.00  0.00     0.011 A 
HETATM   19  C14 UNL     1      26.750   5.519  48.860  1.00  0.00     0.017 A 
HETATM   20  C15 UNL     1      27.742   6.249  48.203  1.00  0.00     0.020 A 
HETATM   21  C16 UNL     1      27.859   7.606  48.448  1.00  0.00     0.116 A 
HETATM   22  N3  UNL     1      26.992   8.139  49.319  1.00  0.00    -0.272 NA
HETATM   23  C17 UNL     1      26.043   7.422  49.943  1.00  0.00     0.130 A 
ENDBRANCH   5  18
TORSDOF 4
ENDMDL
MODEL 9
REMARK VINA RESULT:      -7.4      2.524      6.474
REMARK  4 active torsions:
REMARK  status: ('A' for Active; 'I' for Inactive)
REMARK    1  A    between atoms: C5_5  and  C6_6 
REMARK    2  A    between atoms: C8_9  and  N1_10 
REMARK    3  A    between atoms: N1_10  and  C9_11 
REMARK    4  A    between atoms: C12_15  and  C13_16 
ROOT
HETATM    1  C9  UNL     1      26.693   4.592  48.990  1.00  0.00     0.727 A 
HETATM    2  N2  UNL     1      26.011   5.729  48.767  1.00  0.00    -0.075 NA
HETATM    3  C10 UNL     1      26.550   6.869  48.379  1.00  0.00     0.139 A 
HETATM    4  C11 UNL     1      27.914   6.898  48.187  1.00  0.00     0.053 A 
HETATM    5  C12 UNL     1      28.671   5.768  48.398  1.00  0.00     0.089 A 
HETATM    6  N4  UNL     1      28.017   4.665  48.791  1.00  0.00    -0.062 NA
ENDROOT
BRANCH   1   7
HETATM    7  N1  UNL     1      25.993   3.432  49.405  1.00  0.00    -0.188 N 
HETATM    8  H8  UNL     1      25.450   2.911  48.654  1.00  0.00     0.184 HD
BRANCH   7   9
HETATM    9  C8  UNL     1      25.898   2.845  50.690  1.00  0.00     0.056 A 
HETATM   10  C2  UNL     1      24.674   2.505  51.251  1.00  0.00    -0.035 A 
HETATM   11  C1  UNL     1      23.436   2.767  50.475  1.00  0.00     0.050 C 
HETATM   12  C3  UNL     1      24.548   1.940  52.481  1.00  0.00     0.010 A 
HETATM   13  C4  UNL     1      25.640   1.673  53.244  1.00  0.00     0.015 A 
HETATM   14  C5  UNL     1      26.891   1.984  52.753  1.00  0.00     0.004 A 
HETATM   15  C7  UNL     1      26.973   2.555  51.502  1.00  0.00     0.045 A 
BRANCH  14  16
HETATM   16  C6  UNL     1      28.075   1.701  53.565  1.00  0.00     0.270 C 
HETATM   17  O1  UNL     1      28.552   2.649  54.241  1.00  0.00    -0.301 OA
ENDBRANCH  14  16
ENDBRANCH   7   9
ENDBRANCH   1   7
BRANCH   5  18
HETATM   18  C13 UNL     1      30.107   5.781  48.201  1.00  0.00     0.011 A 
HETATM   19  C14 UNL     1      30.799   4.813  47.523  1.00  0.00     0.017 A 
HETATM   20  C15 UNL     1      32.183   4.839  47.341  1.00  0.00     0.020 A 
HETATM   21  C16 UNL     1      32.916   5.889  47.865  1.00  0.00     0.116 A 
HETATM   22  N3  UNL     1      32.232   6.831  48.528  1.00  0.00    -0.272 NA
HETATM   23  C17 UNL     1      30.900   6.792  48.694  1.00  0.00     0.130 A 
ENDBRANCH   5  18
TORSDOF 4
ENDMDL
