MODEL 1
REMARK VINA RESULT:      -8.8      0.000      0.000
REMARK  5 active torsions:
REMARK  status: ('A' for Active; 'I' for Inactive)
REMARK    1  A    between atoms: C2_2  and  O1_3 
REMARK    2  A    between atoms: O1_3  and  N1_4 
REMARK    3  A    between atoms: N1_4  and  C3_5 
REMARK    4  A    between atoms: C6_10  and  N4_11 
REMARK    5  A    between atoms: N4_11  and  C7_12 
ROOT
HETATM    1  C3  UNL     1      25.352   2.913  51.499  1.00  0.00     0.079 C 
HETATM    2  C4  UNL     1      24.056   3.105  51.605  1.00  0.00     0.101 A 
HETATM    3  N2  UNL     1      23.710   4.224  50.989  1.00  0.00    -0.239 NA
HETATM    4  C5  UNL     1      22.410   4.586  50.986  1.00  0.00     0.236 A 
HETATM    5  N3  UNL     1      21.461   3.825  51.600  1.00  0.00    -0.223 NA
HETATM    6  C6  UNL     1      21.823   2.688  52.224  1.00  0.00     0.145 A 
HETATM    7  C13 UNL     1      23.138   2.306  52.238  1.00  0.00     0.077 A 
HETATM    8  C14 UNL     1      23.046   1.213  52.962  1.00  0.00     0.120 C 
HETATM    9  O2  UNL     1      21.752   0.915  53.310  1.00  0.00    -0.345 OA
HETATM   10  C15 UNL     1      21.505  -0.453  53.695  1.00  0.00     0.202 C 
HETATM   11  C16 UNL     1      22.420  -0.797  54.841  1.00  0.00     0.202 C 
HETATM   12  O3  UNL     1      23.727  -0.867  54.246  1.00  0.00    -0.344 OA
HETATM   13  C17 UNL     1      24.032   0.269  53.464  1.00  0.00     0.127 C 
HETATM   14  C18 UNL     1      25.349   0.220  53.342  1.00  0.00     0.068 C 
HETATM   15  C19 UNL     1      25.830  -0.977  54.069  1.00  0.00     0.227 C 
HETATM   16  O4  UNL     1      26.726  -0.495  55.023  1.00  0.00    -0.384 OA
HETATM   17  C20 UNL     1      27.772   0.227  54.535  1.00  0.00     0.188 C 
HETATM   18  C21 UNL     1      27.708   0.645  53.103  1.00  0.00     0.149 C 
HETATM   19  N5  UNL     1      26.340   1.014  52.710  1.00  0.00    -0.372 N 
HETATM   20  C22 UNL     1      26.504   2.084  51.798  1.00  0.00     0.184 C 
ENDROOT
BRANCH   6  21
HETATM   21  N4  UNL     1      20.620   2.141  52.760  1.00  0.00    -0.340 N 
HETATM   22  H8  UNL     1      20.247   1.775  53.710  1.00  0.00     0.167 HD
BRANCH  21  23
HETATM   23  C7  UNL     1      19.549   2.102  51.745  1.00  0.00     0.035 A 
HETATM   24  C8  UNL     1      19.488   1.118  50.777  1.00  0.00     0.029 A 
HETATM   25  C9  UNL     1      18.535   0.998  49.795  1.00  0.00     0.004 A 
HETATM   26  C10 UNL     1      17.556   1.969  49.800  1.00  0.00     0.024 A 
HETATM   27  C11 UNL     1      17.534   2.988  50.725  1.00  0.00     0.036 A 
HETATM   28 CL1  UNL     1      16.307   4.233  50.757  1.00  0.00    -0.084 Cl
HETATM   29  C12 UNL     1      18.532   3.024  51.669  1.00  0.00     0.053 A 
ENDBRANCH  21  23
ENDBRANCH   6  21
BRANCH   1  30
HETATM   30  N1  UNL     1      25.927   4.001  50.743  1.00  0.00    -0.267 N 
HETATM   31  H6  UNL     1      25.329   4.850  50.797  1.00  0.00     0.194 HD
BRANCH  30  32
HETATM   32  O1  UNL     1      27.082   3.716  50.137  1.00  0.00    -0.281 OA
BRANCH  32  33
HETATM   33  C2  UNL     1      27.140   4.389  48.932  1.00  0.00     0.196 C 
HETATM   34  C1  UNL     1      26.381   5.694  49.064  1.00  0.00     0.036 C 
ENDBRANCH  32  33
ENDBRANCH  30  32
ENDBRANCH   1  30
TORSDOF 5
ENDMDL
MODEL 2
REMARK VINA RESULT:      -8.7      3.204      6.870
REMARK  5 active torsions:
REMARK  status: ('A' for Active; 'I' for Inactive)
REMARK    1  A    between atoms: C2_2  and  O1_3 
REMARK    2  A    between atoms: O1_3  and  N1_4 
REMARK    3  A    between atoms: N1_4  and  C3_5 
REMARK    4  A    between atoms: C6_10  and  N4_11 
REMARK    5  A    between atoms: N4_11  and  C7_12 
ROOT
HETATM    1  C3  UNL     1      22.404   2.574  51.061  1.00  0.00     0.079 C 
HETATM    2  C4  UNL     1      23.519   2.044  51.514  1.00  0.00     0.101 A 
HETATM    3  N2  UNL     1      24.562   2.629  50.949  1.00  0.00    -0.239 NA
HETATM    4  C5  UNL     1      25.800   2.219  51.296  1.00  0.00     0.236 A 
HETATM    5  N3  UNL     1      25.988   1.224  52.208  1.00  0.00    -0.223 NA
HETATM    6  C6  UNL     1      24.919   0.635  52.778  1.00  0.00     0.145 A 
HETATM    7  C13 UNL     1      23.655   1.038  52.436  1.00  0.00     0.077 A 
HETATM    8  C14 UNL     1      22.949   0.203  53.165  1.00  0.00     0.120 C 
HETATM    9  O2  UNL     1      23.732  -0.610  53.946  1.00  0.00    -0.345 OA
HETATM   10  C15 UNL     1      23.071  -1.219  55.076  1.00  0.00     0.202 C 
HETATM   11  C16 UNL     1      21.890  -2.003  54.570  1.00  0.00     0.202 C 
HETATM   12  O3  UNL     1      20.947  -1.000  54.155  1.00  0.00    -0.344 OA
HETATM   13  C17 UNL     1      21.520  -0.031  53.304  1.00  0.00     0.127 C 
HETATM   14  C18 UNL     1      20.473   0.539  52.728  1.00  0.00     0.068 C 
HETATM   15  C19 UNL     1      19.253  -0.112  53.257  1.00  0.00     0.227 C 
HETATM   16  O4  UNL     1      18.594  -0.625  52.141  1.00  0.00    -0.384 OA
HETATM   17  C20 UNL     1      18.278   0.281  51.175  1.00  0.00     0.188 C 
HETATM   18  C21 UNL     1      18.890   1.638  51.284  1.00  0.00     0.149 C 
HETATM   19  N5  UNL     1      20.275   1.568  51.773  1.00  0.00    -0.372 N 
HETATM   20  C22 UNL     1      20.953   2.601  51.083  1.00  0.00     0.184 C 
ENDROOT
BRANCH   6  21
HETATM   21  N4  UNL     1      25.446  -0.349  53.664  1.00  0.00    -0.340 N 
HETATM   22  H8  UNL     1      25.080  -1.146  54.303  1.00  0.00     0.167 HD
BRANCH  21  23
HETATM   23  C7  UNL     1      26.921  -0.316  53.688  1.00  0.00     0.035 A 
HETATM   24  C8  UNL     1      27.689  -1.349  53.185  1.00  0.00     0.029 A 
HETATM   25  C9  UNL     1      29.061  -1.407  53.162  1.00  0.00     0.004 A 
HETATM   26  C10 UNL     1      29.709  -0.317  53.702  1.00  0.00     0.024 A 
HETATM   27  C11 UNL     1      29.029   0.758  54.227  1.00  0.00     0.036 A 
HETATM   28 CL1  UNL     1      29.821   2.155  54.918  1.00  0.00    -0.084 Cl
HETATM   29  C12 UNL     1      27.655   0.726  54.205  1.00  0.00     0.053 A 
ENDBRANCH  21  23
ENDBRANCH   6  21
BRANCH   1  30
HETATM   30  N1  UNL     1      22.730   3.608  50.108  1.00  0.00    -0.267 N 
HETATM   31  H6  UNL     1      23.641   4.054  50.338  1.00  0.00     0.194 HD
BRANCH  30  32
HETATM   32  O1  UNL     1      21.826   3.788  49.142  1.00  0.00    -0.281 OA
BRANCH  32  33
HETATM   33  C2  UNL     1      22.453   3.713  47.914  1.00  0.00     0.196 C 
HETATM   34  C1  UNL     1      22.450   2.270  47.450  1.00  0.00     0.036 C 
ENDBRANCH  32  33
ENDBRANCH  30  32
ENDBRANCH   1  30
TORSDOF 5
ENDMDL
MODEL 3
REMARK VINA RESULT:      -8.4      3.598      8.363
REMARK  5 active torsions:
REMARK  status: ('A' for Active; 'I' for Inactive)
REMARK    1  A    between atoms: C2_2  and  O1_3 
REMARK    2  A    between atoms: O1_3  and  N1_4 
REMARK    3  A    between atoms: N1_4  and  C3_5 
REMARK    4  A    between atoms: C6_10  and  N4_11 
REMARK    5  A    between atoms: N4_11  and  C7_12 
ROOT
HETATM    1  C3  UNL     1      19.539  -0.511  53.142  1.00  0.00     0.079 C 
HETATM    2  C4  UNL     1      20.806  -0.347  53.456  1.00  0.00     0.101 A 
HETATM    3  N2  UNL     1      21.185  -1.278  54.315  1.00  0.00    -0.239 NA
HETATM    4  C5  UNL     1      22.463  -1.275  54.751  1.00  0.00     0.236 A 
HETATM    5  N3  UNL     1      23.356  -0.339  54.322  1.00  0.00    -0.223 NA
HETATM    6  C6  UNL     1      22.960   0.604  53.446  1.00  0.00     0.145 A 
HETATM    7  C13 UNL     1      21.666   0.617  52.995  1.00  0.00     0.077 A 
HETATM    8  C14 UNL     1      21.707   1.684  52.229  1.00  0.00     0.120 C 
HETATM    9  O2  UNL     1      22.958   2.245  52.168  1.00  0.00    -0.345 OA
HETATM   10  C15 UNL     1      23.203   3.110  51.039  1.00  0.00     0.202 C 
HETATM   11  C16 UNL     1      22.168   4.203  51.044  1.00  0.00     0.202 C 
HETATM   12  O3  UNL     1      20.947   3.540  50.675  1.00  0.00    -0.344 OA
HETATM   13  C17 UNL     1      20.700   2.382  51.445  1.00  0.00     0.127 C 
HETATM   14  C18 UNL     1      19.410   2.151  51.259  1.00  0.00     0.068 C 
HETATM   15  C19 UNL     1      18.886   3.200  50.354  1.00  0.00     0.227 C 
HETATM   16  O4  UNL     1      17.865   3.826  51.067  1.00  0.00    -0.384 OA
HETATM   17  C20 UNL     1      16.861   3.011  51.496  1.00  0.00     0.188 C 
HETATM   18  C21 UNL     1      17.085   1.539  51.397  1.00  0.00     0.149 C 
HETATM   19  N5  UNL     1      18.477   1.183  51.709  1.00  0.00    -0.372 N 
HETATM   20  C22 UNL     1      18.389  -0.059  52.383  1.00  0.00     0.184 C 
ENDROOT
BRANCH   6  21
HETATM   21  N4  UNL     1      24.106   1.418  53.209  1.00  0.00    -0.340 N 
HETATM   22  H8  UNL     1      24.342   2.467  53.064  1.00  0.00     0.167 HD
BRANCH  21  23
HETATM   23  C7  UNL     1      25.344   0.614  53.206  1.00  0.00     0.035 A 
HETATM   24  C8  UNL     1      25.481  -0.522  52.432  1.00  0.00     0.029 A 
HETATM   25  C9  UNL     1      26.589  -1.331  52.363  1.00  0.00     0.004 A 
HETATM   26  C10 UNL     1      27.652  -0.950  53.153  1.00  0.00     0.024 A 
HETATM   27  C11 UNL     1      27.607   0.167  53.957  1.00  0.00     0.036 A 
HETATM   28 CL1  UNL     1      28.937   0.677  54.971  1.00  0.00    -0.084 Cl
HETATM   29  C12 UNL     1      26.454   0.915  53.960  1.00  0.00     0.053 A 
ENDBRANCH  21  23
ENDBRANCH   6  21
BRANCH   1  30
HETATM   30  N1  UNL     1      19.024  -1.655  53.856  1.00  0.00    -0.267 N 
HETATM   31  H6  UNL     1      19.711  -1.998  54.557  1.00  0.00     0.194 HD
BRANCH  30  32
HETATM   32  O1  UNL     1      17.800  -2.042  53.489  1.00  0.00    -0.281 OA
BRANCH  32  33
HETATM   33  C2  UNL     1      17.646  -3.386  53.773  1.00  0.00     0.196 C 
HETATM   34  C1  UNL     1      16.332  -3.862  53.185  1.00  0.00     0.036 C 
ENDBRANCH  32  33
ENDBRANCH  30  32
ENDBRANCH   1  30
TORSDOF 5
ENDMDL
MODEL 4
REMARK VINA RESULT:      -8.3      2.717      5.700
REMARK  5 active torsions:
REMARK  status: ('A' for Active; 'I' for Inactive)
REMARK    1  A    between atoms: C2_2  and  O1_3 
REMARK    2  A    between atoms: O1_3  and  N1_4 
REMARK    3  A    between atoms: N1_4  and  C3_5 
REMARK    4  A    between atoms: C6_10  and  N4_11 
REMARK    5  A    between atoms: N4_11  and  C7_12 
ROOT
HETATM    1  C3  UNL     1      25.292   0.723  52.525  1.00  0.00     0.079 C 
HETATM    2  C4  UNL     1      25.293   1.708  51.654  1.00  0.00     0.101 A 
HETATM    3  N2  UNL     1      26.527   2.144  51.463  1.00  0.00    -0.239 NA
HETATM    4  C5  UNL     1      26.729   3.156  50.593  1.00  0.00     0.236 A 
HETATM    5  N3  UNL     1      25.692   3.726  49.916  1.00  0.00    -0.223 NA
HETATM    6  C6  UNL     1      24.439   3.274  50.117  1.00  0.00     0.145 A 
HETATM    7  C13 UNL     1      24.217   2.249  50.998  1.00  0.00     0.077 A 
HETATM    8  C14 UNL     1      22.907   2.167  50.920  1.00  0.00     0.120 C 
HETATM    9  O2  UNL     1      22.376   3.040  50.003  1.00  0.00    -0.345 OA
HETATM   10  C15 UNL     1      21.051   2.719  49.527  1.00  0.00     0.202 C 
HETATM   11  C16 UNL     1      20.130   2.622  50.714  1.00  0.00     0.202 C 
HETATM   12  O3  UNL     1      20.529   1.411  51.377  1.00  0.00    -0.344 OA
HETATM   13  C17 UNL     1      21.921   1.346  51.604  1.00  0.00     0.127 C 
HETATM   14  C18 UNL     1      22.044   0.411  52.534  1.00  0.00     0.068 C 
HETATM   15  C19 UNL     1      20.687  -0.087  52.859  1.00  0.00     0.227 C 
HETATM   16  O4  UNL     1      20.529   0.139  54.226  1.00  0.00    -0.384 OA
HETATM   17  C20 UNL     1      21.463  -0.440  55.031  1.00  0.00     0.188 C 
HETATM   18  C21 UNL     1      22.675  -1.011  54.372  1.00  0.00     0.149 C 
HETATM   19  N5  UNL     1      23.119  -0.178  53.245  1.00  0.00    -0.372 N 
HETATM   20  C22 UNL     1      24.532  -0.263  53.271  1.00  0.00     0.184 C 
ENDROOT
BRANCH   6  21
HETATM   21  N4  UNL     1      23.602   4.070  49.281  1.00  0.00    -0.340 N 
HETATM   22  H8  UNL     1      22.783   3.930  48.583  1.00  0.00     0.167 HD
BRANCH  21  23
HETATM   23  C7  UNL     1      23.894   5.507  49.439  1.00  0.00     0.035 A 
HETATM   24  C8  UNL     1      23.669   6.177  50.627  1.00  0.00     0.029 A 
HETATM   25  C9  UNL     1      23.908   7.507  50.870  1.00  0.00     0.004 A 
HETATM   26  C10 UNL     1      24.422   8.220  49.808  1.00  0.00     0.024 A 
HETATM   27  C11 UNL     1      24.680   7.639  48.588  1.00  0.00     0.036 A 
HETATM   28 CL1  UNL     1      25.331   8.514  47.221  1.00  0.00    -0.084 Cl
HETATM   29  C12 UNL     1      24.407   6.300  48.439  1.00  0.00     0.053 A 
ENDBRANCH  21  23
ENDBRANCH   6  21
BRANCH   1  30
HETATM   30  N1  UNL     1      26.648   0.476  52.955  1.00  0.00    -0.267 N 
HETATM   31  H6  UNL     1      27.321   0.633  52.178  1.00  0.00     0.194 HD
BRANCH  30  32
HETATM   32  O1  UNL     1      26.774   0.106  54.232  1.00  0.00    -0.281 OA
BRANCH  32  33
HETATM   33  C2  UNL     1      28.111   0.117  54.577  1.00  0.00     0.196 C 
HETATM   34  C1  UNL     1      28.890  -0.670  53.542  1.00  0.00     0.036 C 
ENDBRANCH  32  33
ENDBRANCH  30  32
ENDBRANCH   1  30
TORSDOF 5
ENDMDL
MODEL 5
REMARK VINA RESULT:      -8.2      3.379      8.021
REMARK  5 active torsions:
REMARK  status: ('A' for Active; 'I' for Inactive)
REMARK    1  A    between atoms: C2_2  and  O1_3 
REMARK    2  A    between atoms: O1_3  and  N1_4 
REMARK    3  A    between atoms: N1_4  and  C3_5 
REMARK    4  A    between atoms: C6_10  and  N4_11 
REMARK    5  A    between atoms: N4_11  and  C7_12 
ROOT
HETATM    1  C3  UNL     1      21.581   1.343  51.066  1.00  0.00     0.079 C 
HETATM    2  C4  UNL     1      22.706   1.306  51.747  1.00  0.00     0.101 A 
HETATM    3  N2  UNL     1      22.595   0.465  52.763  1.00  0.00    -0.239 NA
HETATM    4  C5  UNL     1      23.658   0.290  53.576  1.00  0.00     0.236 A 
HETATM    5  N3  UNL     1      24.828   0.957  53.368  1.00  0.00    -0.223 NA
HETATM    6  C6  UNL     1      24.931   1.810  52.331  1.00  0.00     0.145 A 
HETATM    7  C13 UNL     1      23.861   2.001  51.496  1.00  0.00     0.077 A 
HETATM    8  C14 UNL     1      24.367   2.907  50.689  1.00  0.00     0.120 C 
HETATM    9  O2  UNL     1      25.678   3.199  50.975  1.00  0.00    -0.345 OA
HETATM   10  C15 UNL     1      26.431   3.812  49.907  1.00  0.00     0.202 C 
HETATM   11  C16 UNL     1      25.720   5.072  49.488  1.00  0.00     0.202 C 
HETATM   12  O3  UNL     1      24.538   4.608  48.814  1.00  0.00    -0.344 OA
HETATM   13  C17 UNL     1      23.819   3.655  49.568  1.00  0.00     0.127 C 
HETATM   14  C18 UNL     1      22.620   3.650  49.007  1.00  0.00     0.068 C 
HETATM   15  C19 UNL     1      22.637   4.626  47.892  1.00  0.00     0.227 C 
HETATM   16  O4  UNL     1      21.628   5.541  48.187  1.00  0.00    -0.384 OA
HETATM   17  C20 UNL     1      20.383   5.013  48.350  1.00  0.00     0.188 C 
HETATM   18  C21 UNL     1      20.278   3.528  48.460  1.00  0.00     0.149 C 
HETATM   19  N5  UNL     1      21.400   2.964  49.225  1.00  0.00    -0.372 N 
HETATM   20  C22 UNL     1      20.835   1.884  49.946  1.00  0.00     0.184 C 
ENDROOT
BRANCH   6  21
HETATM   21  N4  UNL     1      26.253   2.339  52.395  1.00  0.00    -0.340 N 
HETATM   22  H8  UNL     1      26.762   3.279  52.208  1.00  0.00     0.167 HD
BRANCH  21  23
HETATM   23  C7  UNL     1      27.207   1.340  52.912  1.00  0.00     0.035 A 
HETATM   24  C8  UNL     1      28.253   1.684  53.747  1.00  0.00     0.029 A 
HETATM   25  C9  UNL     1      29.188   0.828  54.276  1.00  0.00     0.004 A 
HETATM   26  C10 UNL     1      29.045  -0.497  53.924  1.00  0.00     0.024 A 
HETATM   27  C11 UNL     1      28.035  -0.934  53.098  1.00  0.00     0.036 A 
HETATM   28 CL1  UNL     1      27.826  -2.606  52.632  1.00  0.00    -0.084 Cl
HETATM   29  C12 UNL     1      27.146  -0.002  52.616  1.00  0.00     0.053 A 
ENDBRANCH  21  23
ENDBRANCH   6  21
BRANCH   1  30
HETATM   30  N1  UNL     1      20.632   0.445  51.681  1.00  0.00    -0.267 N 
HETATM   31  H6  UNL     1      21.106  -0.400  52.056  1.00  0.00     0.194 HD
BRANCH  30  32
HETATM   32  O1  UNL     1      19.364   0.862  51.651  1.00  0.00    -0.281 OA
BRANCH  32  33
HETATM   33  C2  UNL     1      18.526  -0.236  51.682  1.00  0.00     0.196 C 
HETATM   34  C1  UNL     1      18.587  -0.859  53.062  1.00  0.00     0.036 C 
ENDBRANCH  32  33
ENDBRANCH  30  32
ENDBRANCH   1  30
TORSDOF 5
ENDMDL
MODEL 6
REMARK VINA RESULT:      -7.9      2.936      6.551
REMARK  5 active torsions:
REMARK  status: ('A' for Active; 'I' for Inactive)
REMARK    1  A    between atoms: C2_2  and  O1_3 
REMARK    2  A    between atoms: O1_3  and  N1_4 
REMARK    3  A    between atoms: N1_4  and  C3_5 
REMARK    4  A    between atoms: C6_10  and  N4_11 
REMARK    5  A    between atoms: N4_11  and  C7_12 
ROOT
HETATM    1  C3  UNL     1      20.895   2.673  51.395  1.00  0.00     0.079 C 
HETATM    2  C4  UNL     1      21.835   3.161  50.616  1.00  0.00     0.101 A 
HETATM    3  N2  UNL     1      21.301   3.957  49.704  1.00  0.00    -0.239 NA
HETATM    4  C5  UNL     1      22.117   4.559  48.813  1.00  0.00     0.236 A 
HETATM    5  N3  UNL     1      23.465   4.361  48.839  1.00  0.00    -0.223 NA
HETATM    6  C6  UNL     1      23.999   3.549  49.772  1.00  0.00     0.145 A 
HETATM    7  C13 UNL     1      23.185   2.929  50.683  1.00  0.00     0.077 A 
HETATM    8  C14 UNL     1      24.081   2.230  51.344  1.00  0.00     0.120 C 
HETATM    9  O2  UNL     1      25.361   2.460  50.905  1.00  0.00    -0.345 OA
HETATM   10  C15 UNL     1      26.414   2.109  51.828  1.00  0.00     0.202 C 
HETATM   11  C16 UNL     1      26.265   0.654  52.187  1.00  0.00     0.202 C 
HETATM   12  O3  UNL     1      25.090   0.609  53.015  1.00  0.00    -0.344 OA
HETATM   13  C17 UNL     1      23.987   1.270  52.433  1.00  0.00     0.127 C 
HETATM   14  C18 UNL     1      22.948   0.799  53.106  1.00  0.00     0.068 C 
HETATM   15  C19 UNL     1      23.456  -0.162  54.111  1.00  0.00     0.227 C 
HETATM   16  O4  UNL     1      22.816  -1.368  53.825  1.00  0.00    -0.384 OA
HETATM   17  C20 UNL     1      21.455  -1.329  53.838  1.00  0.00     0.188 C 
HETATM   18  C21 UNL     1      20.809   0.016  53.886  1.00  0.00     0.149 C 
HETATM   19  N5  UNL     1      21.545   0.997  53.075  1.00  0.00    -0.372 N 
HETATM   20  C22 UNL     1      20.543   1.831  52.524  1.00  0.00     0.184 C 
ENDROOT
BRANCH   6  21
HETATM   21  N4  UNL     1      25.404   3.550  49.528  1.00  0.00    -0.340 N 
HETATM   22  H8  UNL     1      26.199   2.833  49.360  1.00  0.00     0.167 HD
BRANCH  21  23
HETATM   23  C7  UNL     1      25.929   4.925  49.423  1.00  0.00     0.035 A 
HETATM   24  C8  UNL     1      25.397   5.973  50.150  1.00  0.00     0.029 A 
HETATM   25  C9  UNL     1      25.817   7.281  50.121  1.00  0.00     0.004 A 
HETATM   26  C10 UNL     1      26.873   7.545  49.274  1.00  0.00     0.024 A 
HETATM   27  C11 UNL     1      27.467   6.565  48.511  1.00  0.00     0.036 A 
HETATM   28 CL1  UNL     1      28.806   6.867  47.429  1.00  0.00    -0.084 Cl
HETATM   29  C12 UNL     1      26.977   5.285  48.608  1.00  0.00     0.053 A 
ENDBRANCH  21  23
ENDBRANCH   6  21
BRANCH   1  30
HETATM   30  N1  UNL     1      19.616   3.188  50.967  1.00  0.00    -0.267 N 
HETATM   31  H6  UNL     1      19.596   3.329  49.937  1.00  0.00     0.194 HD
BRANCH  30  32
HETATM   32  O1  UNL     1      18.731   3.380  51.948  1.00  0.00    -0.281 OA
BRANCH  32  33
HETATM   33  C2  UNL     1      17.574   3.915  51.415  1.00  0.00     0.196 C 
HETATM   34  C1  UNL     1      17.286   3.236  50.091  1.00  0.00     0.036 C 
ENDBRANCH  32  33
ENDBRANCH  30  32
ENDBRANCH   1  30
TORSDOF 5
ENDMDL
MODEL 7
REMARK VINA RESULT:      -7.9      2.514      3.830
REMARK  5 active torsions:
REMARK  status: ('A' for Active; 'I' for Inactive)
REMARK    1  A    between atoms: C2_2  and  O1_3 
REMARK    2  A    between atoms: O1_3  and  N1_4 
REMARK    3  A    between atoms: N1_4  and  C3_5 
REMARK    4  A    between atoms: C6_10  and  N4_11 
REMARK    5  A    between atoms: N4_11  and  C7_12 
ROOT
HETATM    1  C3  UNL     1      25.214   1.812  52.579  1.00  0.00     0.079 C 
HETATM    2  C4  UNL     1      24.454   2.597  51.847  1.00  0.00     0.101 A 
HETATM    3  N2  UNL     1      25.143   3.653  51.447  1.00  0.00    -0.239 NA
HETATM    4  C5  UNL     1      24.527   4.574  50.676  1.00  0.00     0.236 A 
HETATM    5  N3  UNL     1      23.223   4.431  50.307  1.00  0.00    -0.223 NA
HETATM    6  C6  UNL     1      22.530   3.352  50.719  1.00  0.00     0.145 A 
HETATM    7  C13 UNL     1      23.139   2.409  51.503  1.00  0.00     0.077 A 
HETATM    8  C14 UNL     1      22.128   1.593  51.698  1.00  0.00     0.120 C 
HETATM    9  O2  UNL     1      20.997   1.980  51.023  1.00  0.00    -0.345 OA
HETATM   10  C15 UNL     1      20.010   0.949  50.807  1.00  0.00     0.202 C 
HETATM   11  C16 UNL     1      19.620   0.378  52.145  1.00  0.00     0.202 C 
HETATM   12  O3  UNL     1      20.774  -0.370  52.564  1.00  0.00    -0.344 OA
HETATM   13  C17 UNL     1      21.969   0.376  52.479  1.00  0.00     0.127 C 
HETATM   14  C18 UNL     1      22.813  -0.295  53.247  1.00  0.00     0.068 C 
HETATM   15  C19 UNL     1      22.094  -1.467  53.796  1.00  0.00     0.227 C 
HETATM   16  O4  UNL     1      22.172  -1.333  55.182  1.00  0.00    -0.384 OA
HETATM   17  C20 UNL     1      23.430  -1.253  55.696  1.00  0.00     0.188 C 
HETATM   18  C21 UNL     1      24.552  -1.051  54.732  1.00  0.00     0.149 C 
HETATM   19  N5  UNL     1      24.167  -0.146  53.639  1.00  0.00    -0.372 N 
HETATM   20  C22 UNL     1      25.342   0.591  53.352  1.00  0.00     0.184 C 
ENDROOT
BRANCH   6  21
HETATM   21  N4  UNL     1      21.220   3.504  50.178  1.00  0.00    -0.340 N 
HETATM   22  H8  UNL     1      20.191   3.479  50.521  1.00  0.00     0.167 HD
BRANCH  21  23
HETATM   23  C7  UNL     1      21.267   3.843  48.742  1.00  0.00     0.035 A 
HETATM   24  C8  UNL     1      21.910   3.041  47.818  1.00  0.00     0.029 A 
HETATM   25  C9  UNL     1      22.007   3.272  46.467  1.00  0.00     0.004 A 
HETATM   26  C10 UNL     1      21.395   4.423  46.018  1.00  0.00     0.024 A 
HETATM   27  C11 UNL     1      20.731   5.282  46.864  1.00  0.00     0.036 A 
HETATM   28 CL1  UNL     1      19.946   6.749  46.326  1.00  0.00    -0.084 Cl
HETATM   29  C12 UNL     1      20.688   4.967  48.201  1.00  0.00     0.053 A 
ENDBRANCH  21  23
ENDBRANCH   6  21
BRANCH   1  30
HETATM   30  N1  UNL     1      26.531   2.395  52.678  1.00  0.00    -0.267 N 
HETATM   31  H6  UNL     1      26.792   2.880  51.796  1.00  0.00     0.194 HD
BRANCH  30  32
HETATM   32  O1  UNL     1      27.143   2.205  53.849  1.00  0.00    -0.281 OA
BRANCH  32  33
HETATM   33  C2  UNL     1      28.506   2.346  53.676  1.00  0.00     0.196 C 
HETATM   34  C1  UNL     1      29.188   1.055  54.084  1.00  0.00     0.036 C 
ENDBRANCH  32  33
ENDBRANCH  30  32
ENDBRANCH   1  30
TORSDOF 5
ENDMDL
MODEL 8
REMARK VINA RESULT:      -7.6      2.901      5.488
REMARK  5 active torsions:
REMARK  status: ('A' for Active; 'I' for Inactive)
REMARK    1  A    between atoms: C2_2  and  O1_3 
REMARK    2  A    between atoms: O1_3  and  N1_4 
REMARK    3  A    between atoms: N1_4  and  C3_5 
REMARK    4  A    between atoms: C6_10  and  N4_11 
REMARK    5  A    between atoms: N4_11  and  C7_12 
ROOT
HETATM    1  C3  UNL     1      22.126   1.685  52.535  1.00  0.00     0.079 C 
HETATM    2  C4  UNL     1      21.909   2.633  51.649  1.00  0.00     0.101 A 
HETATM    3  N2  UNL     1      20.610   2.855  51.532  1.00  0.00    -0.239 NA
HETATM    4  C5  UNL     1      20.191   3.803  50.668  1.00  0.00     0.236 A 
HETATM    5  N3  UNL     1      21.076   4.527  49.926  1.00  0.00    -0.223 NA
HETATM    6  C6  UNL     1      22.397   4.293  50.053  1.00  0.00     0.145 A 
HETATM    7  C13 UNL     1      22.839   3.333  50.925  1.00  0.00     0.077 A 
HETATM    8  C14 UNL     1      24.132   3.408  50.703  1.00  0.00     0.120 C 
HETATM    9  O2  UNL     1      24.459   4.394  49.806  1.00  0.00    -0.345 OA
HETATM   10  C15 UNL     1      25.829   4.847  49.843  1.00  0.00     0.202 C 
HETATM   11  C16 UNL     1      26.728   3.658  49.626  1.00  0.00     0.202 C 
HETATM   12  O3  UNL     1      26.613   2.898  50.841  1.00  0.00    -0.344 OA
HETATM   13  C17 UNL     1      25.272   2.662  51.213  1.00  0.00     0.127 C 
HETATM   14  C18 UNL     1      25.356   1.660  52.073  1.00  0.00     0.068 C 
HETATM   15  C19 UNL     1      26.786   1.299  52.212  1.00  0.00     0.227 C 
HETATM   16  O4  UNL     1      26.865  -0.045  51.847  1.00  0.00    -0.384 OA
HETATM   17  C20 UNL     1      26.079  -0.896  52.563  1.00  0.00     0.188 C 
HETATM   18  C21 UNL     1      25.046  -0.289  53.454  1.00  0.00     0.149 C 
HETATM   19  N5  UNL     1      24.437   0.900  52.841  1.00  0.00    -0.372 N 
HETATM   20  C22 UNL     1      23.083   0.864  53.252  1.00  0.00     0.184 C 
ENDROOT
BRANCH   6  21
HETATM   21  N4  UNL     1      23.038   5.194  49.153  1.00  0.00    -0.340 N 
HETATM   22  H8  UNL     1      23.819   5.946  49.175  1.00  0.00     0.167 HD
BRANCH  21  23
HETATM   23  C7  UNL     1      22.533   5.027  47.776  1.00  0.00     0.035 A 
HETATM   24  C8  UNL     1      22.314   3.782  47.219  1.00  0.00     0.029 A 
HETATM   25  C9  UNL     1      21.848   3.527  45.952  1.00  0.00     0.004 A 
HETATM   26  C10 UNL     1      21.582   4.640  45.184  1.00  0.00     0.024 A 
HETATM   27  C11 UNL     1      21.769   5.920  45.654  1.00  0.00     0.036 A 
HETATM   28 CL1  UNL     1      21.441   7.352  44.706  1.00  0.00    -0.084 Cl
HETATM   29  C12 UNL     1      22.240   6.076  46.936  1.00  0.00     0.053 A 
ENDBRANCH  21  23
ENDBRANCH   6  21
BRANCH   1  30
HETATM   30  N1  UNL     1      20.859   1.232  53.057  1.00  0.00    -0.267 N 
HETATM   31  H6  UNL     1      20.168   2.008  53.086  1.00  0.00     0.194 HD
BRANCH  30  32
HETATM   32  O1  UNL     1      20.819  -0.060  53.394  1.00  0.00    -0.281 OA
BRANCH  32  33
HETATM   33  C2  UNL     1      19.508  -0.496  53.361  1.00  0.00     0.196 C 
HETATM   34  C1  UNL     1      18.910  -0.147  52.013  1.00  0.00     0.036 C 
ENDBRANCH  32  33
ENDBRANCH  30  32
ENDBRANCH   1  30
TORSDOF 5
ENDMDL
MODEL 9
REMARK VINA RESULT:      -7.5      3.215      6.688
REMARK  5 active torsions:
REMARK  status: ('A' for Active; 'I' for Inactive)
REMARK    1  A    between atoms: C2_2  and  O1_3 
REMARK    2  A    between atoms: O1_3  and  N1_4 
REMARK    3  A    between atoms: N1_4  and  C3_5 
REMARK    4  A    between atoms: C6_10  and  N4_11 
REMARK    5  A    between atoms: N4_11  and  C7_12 
ROOT
HETATM    1  C3  UNL     1      19.608   1.413  50.015  1.00  0.00     0.079 C 
HETATM    2  C4  UNL     1      20.804   1.808  49.638  1.00  0.00     0.101 A 
HETATM    3  N2  UNL     1      20.753   2.304  48.412  1.00  0.00    -0.239 NA
HETATM    4  C5  UNL     1      21.891   2.768  47.854  1.00  0.00     0.236 A 
HETATM    5  N3  UNL     1      23.076   2.734  48.528  1.00  0.00    -0.223 NA
HETATM    6  C6  UNL     1      23.117   2.228  49.775  1.00  0.00     0.145 A 
HETATM    7  C13 UNL     1      21.971   1.751  50.356  1.00  0.00     0.077 A 
HETATM    8  C14 UNL     1      22.459   1.331  51.502  1.00  0.00     0.120 C 
HETATM    9  O2  UNL     1      23.800   1.595  51.635  1.00  0.00    -0.345 OA
HETATM   10  C15 UNL     1      24.309   1.590  52.985  1.00  0.00     0.202 C 
HETATM   11  C16 UNL     1      24.001   0.252  53.604  1.00  0.00     0.202 C 
HETATM   12  O3  UNL     1      22.577   0.271  53.803  1.00  0.00    -0.344 OA
HETATM   13  C17 UNL     1      21.869   0.649  52.642  1.00  0.00     0.127 C 
HETATM   14  C18 UNL     1      20.634   0.235  52.880  1.00  0.00     0.068 C 
HETATM   15  C19 UNL     1      20.617  -0.401  54.217  1.00  0.00     0.227 C 
HETATM   16  O4  UNL     1      20.170  -1.704  54.001  1.00  0.00    -0.384 OA
HETATM   17  C20 UNL     1      18.955  -1.817  53.396  1.00  0.00     0.188 C 
HETATM   18  C21 UNL     1      18.369  -0.579  52.801  1.00  0.00     0.149 C 
HETATM   19  N5  UNL     1      19.402   0.262  52.179  1.00  0.00    -0.372 N 
HETATM   20  C22 UNL     1      18.771   0.826  51.044  1.00  0.00     0.184 C 
ENDROOT
BRANCH   6  21
HETATM   21  N4  UNL     1      24.477   2.330  50.190  1.00  0.00    -0.340 N 
HETATM   22  H8  UNL     1      25.241   1.700  50.633  1.00  0.00     0.167 HD
BRANCH  21  23
HETATM   23  C7  UNL     1      25.032   3.664  49.888  1.00  0.00     0.035 A 
HETATM   24  C8  UNL     1      24.338   4.828  50.158  1.00  0.00     0.029 A 
HETATM   25  C9  UNL     1      24.770   6.109  49.915  1.00  0.00     0.004 A 
HETATM   26  C10 UNL     1      26.020   6.214  49.344  1.00  0.00     0.024 A 
HETATM   27  C11 UNL     1      26.785   5.111  49.040  1.00  0.00     0.036 A 
HETATM   28 CL1  UNL     1      28.374   5.210  48.317  1.00  0.00    -0.084 Cl
HETATM   29  C12 UNL     1      26.268   3.869  49.321  1.00  0.00     0.053 A 
ENDBRANCH  21  23
ENDBRANCH   6  21
BRANCH   1  30
HETATM   30  N1  UNL     1      18.671   1.668  48.946  1.00  0.00    -0.267 N 
HETATM   31  H6  UNL     1      19.125   1.554  48.017  1.00  0.00     0.194 HD
BRANCH  30  32
HETATM   32  O1  UNL     1      17.439   1.992  49.343  1.00  0.00    -0.281 OA
BRANCH  32  33
HETATM   33  C2  UNL     1      16.967   3.026  48.558  1.00  0.00     0.196 C 
HETATM   34  C1  UNL     1      17.552   4.330  49.063  1.00  0.00     0.036 C 
ENDBRANCH  32  33
ENDBRANCH  30  32
ENDBRANCH   1  30
TORSDOF 5
ENDMDL
