MODEL 1
REMARK VINA RESULT:      -9.1      0.000      0.000
REMARK  3 active torsions:
REMARK  status: ('A' for Active; 'I' for Inactive)
REMARK    1  A    between atoms: O1_2  and  C2_3 
REMARK    2  A    between atoms: C7_8  and  O2_9 
REMARK    3  A    between atoms: C11_16  and  N3_17 
ROOT
HETATM    1  C2  UNL     1      24.589  -0.326  53.943  1.00  0.00     0.102 A 
HETATM    2  C3  UNL     1      25.498   0.667  53.651  1.00  0.00     0.051 A 
HETATM    3  C4  UNL     1      25.114   1.629  52.746  1.00  0.00     0.006 A 
HETATM    4  C5  UNL     1      23.870   1.644  52.123  1.00  0.00     0.088 A 
HETATM    5  C6  UNL     1      22.999   0.602  52.469  1.00  0.00     0.077 A 
HETATM    6  C7  UNL     1      23.340  -0.382  53.369  1.00  0.00     0.104 A 
HETATM    7  O3  UNL     1      23.272   2.514  51.181  1.00  0.00    -0.293 OA
HETATM    8  C9  UNL     1      24.021   3.464  50.456  1.00  0.00     0.185 C 
HETATM    9  N1  UNL     1      22.978   4.201  50.289  1.00  0.00    -0.220 NA
HETATM   10  C10 UNL     1      22.722   5.436  49.647  1.00  0.00     0.232 C 
HETATM   11  N2  UNL     1      23.366   6.578  49.637  1.00  0.00    -0.243 NA
HETATM   12  C11 UNL     1      24.621   6.888  50.349  1.00  0.00     0.374 C 
HETATM   13  C12 UNL     1      25.743   6.145  49.716  1.00  0.00     0.006 A 
HETATM   14  C13 UNL     1      26.573   7.068  49.122  1.00  0.00     0.030 A 
HETATM   15  C14 UNL     1      27.692   6.607  48.461  1.00  0.00     0.011 A 
HETATM   16 BR1  UNL     1      28.846   7.874  47.636  1.00  0.00    -0.051 Br
HETATM   17  C15 UNL     1      27.949   5.256  48.410  1.00  0.00     0.020 A 
HETATM   18  C16 UNL     1      27.088   4.375  49.020  1.00  0.00     0.012 A 
HETATM   19  C17 UNL     1      25.935   4.786  49.706  1.00  0.00    -0.007 A 
HETATM   20  C18 UNL     1      25.457   3.439  50.119  1.00  0.00     0.330 C 
HETATM   21  N4  UNL     1      26.340   2.833  51.022  1.00  0.00     0.104 NA
HETATM   22  C19 UNL     1      26.073   2.738  52.392  1.00  0.00     0.312 C 
HETATM   23  H17 UNL     1      27.323   3.165  50.905  1.00  0.00     0.317 HD
ENDROOT
BRANCH  12  24
HETATM   24  N3  UNL     1      24.521   6.649  51.756  1.00  0.00     0.107 N 
HETATM   25  H11 UNL     1      24.176   7.506  52.272  1.00  0.00     0.316 HD
HETATM   26  H12 UNL     1      23.806   5.900  51.998  1.00  0.00     0.316 HD
ENDBRANCH  12  24
BRANCH   6  27
HETATM   27  O2  UNL     1      22.480  -1.416  53.715  1.00  0.00    -0.353 OA
HETATM   28  C8  UNL     1      21.401  -1.212  54.611  1.00  0.00     0.210 C 
ENDBRANCH   6  27
BRANCH   1  29
HETATM   29  O1  UNL     1      25.004  -1.281  54.857  1.00  0.00    -0.353 OA
HETATM   30  C1  UNL     1      24.896  -1.103  56.248  1.00  0.00     0.210 C 
ENDBRANCH   1  29
TORSDOF 3
ENDMDL
MODEL 2
REMARK VINA RESULT:      -9.0      4.942      7.120
REMARK  3 active torsions:
REMARK  status: ('A' for Active; 'I' for Inactive)
REMARK    1  A    between atoms: O1_2  and  C2_3 
REMARK    2  A    between atoms: C7_8  and  O2_9 
REMARK    3  A    between atoms: C11_16  and  N3_17 
ROOT
HETATM    1  C2  UNL     1      26.978  -0.128  54.015  1.00  0.00     0.102 A 
HETATM    2  C3  UNL     1      25.878  -0.842  53.592  1.00  0.00     0.051 A 
HETATM    3  C4  UNL     1      24.766  -0.124  53.217  1.00  0.00     0.006 A 
HETATM    4  C5  UNL     1      24.702   1.265  53.246  1.00  0.00     0.088 A 
HETATM    5  C6  UNL     1      25.859   1.922  53.689  1.00  0.00     0.077 A 
HETATM    6  C7  UNL     1      26.995   1.245  54.074  1.00  0.00     0.104 A 
HETATM    7  O3  UNL     1      23.687   2.193  52.915  1.00  0.00    -0.293 OA
HETATM    8  C9  UNL     1      22.346   1.802  52.723  1.00  0.00     0.185 C 
HETATM    9  N1  UNL     1      22.125   2.824  51.972  1.00  0.00    -0.220 NA
HETATM   10  C10 UNL     1      21.003   3.318  51.265  1.00  0.00     0.232 C 
HETATM   11  N2  UNL     1      20.108   2.734  50.505  1.00  0.00    -0.243 NA
HETATM   12  C11 UNL     1      20.041   1.299  50.169  1.00  0.00     0.374 C 
HETATM   13  C12 UNL     1      19.650   0.527  51.379  1.00  0.00     0.006 A 
HETATM   14  C13 UNL     1      18.395   0.007  51.156  1.00  0.00     0.030 A 
HETATM   15  C14 UNL     1      17.818  -0.750  52.153  1.00  0.00     0.011 A 
HETATM   16 BR1  UNL     1      16.084  -1.472  51.856  1.00  0.00    -0.051 Br
HETATM   17  C15 UNL     1      18.498  -0.965  53.329  1.00  0.00     0.020 A 
HETATM   18  C16 UNL     1      19.751  -0.425  53.502  1.00  0.00     0.012 A 
HETATM   19  C17 UNL     1      20.387   0.353  52.524  1.00  0.00    -0.007 A 
HETATM   20  C18 UNL     1      21.646   0.623  53.269  1.00  0.00     0.330 C 
HETATM   21  N4  UNL     1      22.383  -0.550  53.478  1.00  0.00     0.104 NA
HETATM   22  C19 UNL     1      23.535  -0.859  52.745  1.00  0.00     0.312 C 
HETATM   23  H17 UNL     1      21.780  -1.402  53.508  1.00  0.00     0.317 HD
ENDROOT
BRANCH  12  24
HETATM   24  N3  UNL     1      21.251   0.823  49.573  1.00  0.00     0.107 N 
HETATM   25  H11 UNL     1      21.216   0.888  48.517  1.00  0.00     0.316 HD
HETATM   26  H12 UNL     1      22.099   1.407  49.837  1.00  0.00     0.316 HD
ENDBRANCH  12  24
BRANCH   6  27
HETATM   27  O2  UNL     1      28.143   1.892  54.513  1.00  0.00    -0.353 OA
HETATM   28  C8  UNL     1      29.055   2.477  53.602  1.00  0.00     0.210 C 
ENDBRANCH   6  27
BRANCH   1  29
HETATM   29  O1  UNL     1      28.083  -0.878  54.386  1.00  0.00    -0.353 OA
HETATM   30  C1  UNL     1      29.067  -1.291  53.471  1.00  0.00     0.210 C 
ENDBRANCH   1  29
TORSDOF 3
ENDMDL
MODEL 3
REMARK VINA RESULT:      -8.6      3.829      8.106
REMARK  3 active torsions:
REMARK  status: ('A' for Active; 'I' for Inactive)
REMARK    1  A    between atoms: O1_2  and  C2_3 
REMARK    2  A    between atoms: C7_8  and  O2_9 
REMARK    3  A    between atoms: C11_16  and  N3_17 
ROOT
HETATM    1  C2  UNL     1      27.227   7.553  47.648  1.00  0.00     0.102 A 
HETATM    2  C3  UNL     1      26.023   7.211  48.222  1.00  0.00     0.051 A 
HETATM    3  C4  UNL     1      25.958   6.005  48.881  1.00  0.00     0.006 A 
HETATM    4  C5  UNL     1      27.035   5.132  48.993  1.00  0.00     0.088 A 
HETATM    5  C6  UNL     1      28.226   5.547  48.383  1.00  0.00     0.077 A 
HETATM    6  C7  UNL     1      28.338   6.745  47.712  1.00  0.00     0.104 A 
HETATM    7  O3  UNL     1      27.194   3.868  49.609  1.00  0.00    -0.293 OA
HETATM    8  C9  UNL     1      26.093   3.097  50.036  1.00  0.00     0.185 C 
HETATM    9  N1  UNL     1      26.821   2.489  50.907  1.00  0.00    -0.220 NA
HETATM   10  C10 UNL     1      26.588   1.479  51.872  1.00  0.00     0.232 C 
HETATM   11  N2  UNL     1      25.625   1.294  52.743  1.00  0.00    -0.243 NA
HETATM   12  C11 UNL     1      24.450   2.160  52.954  1.00  0.00     0.374 C 
HETATM   13  C12 UNL     1      23.537   2.045  51.785  1.00  0.00     0.006 A 
HETATM   14  C13 UNL     1      22.386   1.423  52.213  1.00  0.00     0.030 A 
HETATM   15  C14 UNL     1      21.385   1.202  51.291  1.00  0.00     0.011 A 
HETATM   16 BR1  UNL     1      19.790   0.343  51.872  1.00  0.00    -0.051 Br
HETATM   17  C15 UNL     1      21.556   1.600  49.986  1.00  0.00     0.020 A 
HETATM   18  C16 UNL     1      22.725   2.218  49.609  1.00  0.00     0.012 A 
HETATM   19  C17 UNL     1      23.777   2.469  50.502  1.00  0.00    -0.007 A 
HETATM   20  C18 UNL     1      24.704   3.126  49.541  1.00  0.00     0.330 C 
HETATM   21  N4  UNL     1      24.189   4.344  49.079  1.00  0.00     0.104 NA
HETATM   22  C19 UNL     1      24.661   5.583  49.527  1.00  0.00     0.312 C 
HETATM   23  H17 UNL     1      23.145   4.371  49.096  1.00  0.00     0.317 HD
ENDROOT
BRANCH  12  24
HETATM   24  N3  UNL     1      24.815   3.513  53.242  1.00  0.00     0.107 N 
HETATM   25  H11 UNL     1      25.213   3.609  54.218  1.00  0.00     0.316 HD
HETATM   26  H12 UNL     1      25.594   3.873  52.613  1.00  0.00     0.316 HD
ENDBRANCH  12  24
BRANCH   6  27
HETATM   27  O2  UNL     1      29.517   7.161  47.107  1.00  0.00    -0.353 OA
HETATM   28  C8  UNL     1      30.561   7.758  47.855  1.00  0.00     0.210 C 
ENDBRANCH   6  27
BRANCH   1  29
HETATM   29  O1  UNL     1      27.262   8.773  46.990  1.00  0.00    -0.353 OA
HETATM   30  C1  UNL     1      27.356  10.002  47.668  1.00  0.00     0.210 C 
ENDBRANCH   1  29
TORSDOF 3
ENDMDL
MODEL 4
REMARK VINA RESULT:      -8.5      3.750      7.552
REMARK  3 active torsions:
REMARK  status: ('A' for Active; 'I' for Inactive)
REMARK    1  A    between atoms: O1_2  and  C2_3 
REMARK    2  A    between atoms: C7_8  and  O2_9 
REMARK    3  A    between atoms: C11_16  and  N3_17 
ROOT
HETATM    1  C2  UNL     1      28.046   6.160  48.365  1.00  0.00     0.102 A 
HETATM    2  C3  UNL     1      27.591   4.888  48.631  1.00  0.00     0.051 A 
HETATM    3  C4  UNL     1      26.411   4.772  49.328  1.00  0.00     0.006 A 
HETATM    4  C5  UNL     1      25.670   5.862  49.769  1.00  0.00     0.088 A 
HETATM    5  C6  UNL     1      26.196   7.125  49.463  1.00  0.00     0.077 A 
HETATM    6  C7  UNL     1      27.373   7.289  48.768  1.00  0.00     0.104 A 
HETATM    7  O3  UNL     1      24.456   5.979  50.487  1.00  0.00    -0.293 OA
HETATM    8  C9  UNL     1      23.875   4.886  51.162  1.00  0.00     0.185 C 
HETATM    9  N1  UNL     1      22.706   5.419  51.080  1.00  0.00    -0.220 NA
HETATM   10  C10 UNL     1      21.407   5.043  51.497  1.00  0.00     0.232 C 
HETATM   11  N2  UNL     1      20.748   3.911  51.429  1.00  0.00    -0.243 NA
HETATM   12  C11 UNL     1      21.236   2.642  50.855  1.00  0.00     0.374 C 
HETATM   13  C12 UNL     1      22.296   2.079  51.734  1.00  0.00     0.006 A 
HETATM   14  C13 UNL     1      21.803   0.922  52.295  1.00  0.00     0.030 A 
HETATM   15  C14 UNL     1      22.616   0.221  53.159  1.00  0.00     0.011 A 
HETATM   16 BR1  UNL     1      21.944  -1.378  53.940  1.00  0.00    -0.051 Br
HETATM   17  C15 UNL     1      23.880   0.685  53.438  1.00  0.00     0.020 A 
HETATM   18  C16 UNL     1      24.326   1.846  52.851  1.00  0.00     0.012 A 
HETATM   19  C17 UNL     1      23.544   2.601  51.965  1.00  0.00    -0.007 A 
HETATM   20  C18 UNL     1      24.535   3.676  51.689  1.00  0.00     0.330 C 
HETATM   21  N4  UNL     1      25.656   3.182  51.010  1.00  0.00     0.104 NA
HETATM   22  C19 UNL     1      25.869   3.399  49.644  1.00  0.00     0.312 C 
HETATM   23  H17 UNL     1      25.832   2.172  51.209  1.00  0.00     0.317 HD
ENDROOT
BRANCH  12  24
HETATM   24  N3  UNL     1      21.661   2.788  49.497  1.00  0.00     0.107 N 
HETATM   25  H11 UNL     1      21.483   3.767  49.137  1.00  0.00     0.316 HD
HETATM   26  H12 UNL     1      22.709   2.657  49.375  1.00  0.00     0.316 HD
ENDBRANCH  12  24
BRANCH   6  27
HETATM   27  O2  UNL     1      27.898   8.538  48.462  1.00  0.00    -0.353 OA
HETATM   28  C8  UNL     1      28.701   9.249  49.388  1.00  0.00     0.210 C 
ENDBRANCH   6  27
BRANCH   1  29
HETATM   29  O1  UNL     1      29.238   6.245  47.662  1.00  0.00    -0.353 OA
HETATM   30  C1  UNL     1      30.479   5.888  48.218  1.00  0.00     0.210 C 
ENDBRANCH   1  29
TORSDOF 3
ENDMDL
MODEL 5
REMARK VINA RESULT:      -8.4      3.696      8.006
REMARK  3 active torsions:
REMARK  status: ('A' for Active; 'I' for Inactive)
REMARK    1  A    between atoms: O1_2  and  C2_3 
REMARK    2  A    between atoms: C7_8  and  O2_9 
REMARK    3  A    between atoms: C11_16  and  N3_17 
ROOT
HETATM    1  C2  UNL     1      24.827   7.770  49.219  1.00  0.00     0.102 A 
HETATM    2  C3  UNL     1      24.106   7.061  50.154  1.00  0.00     0.051 A 
HETATM    3  C4  UNL     1      24.533   5.787  50.448  1.00  0.00     0.006 A 
HETATM    4  C5  UNL     1      25.642   5.193  49.854  1.00  0.00     0.088 A 
HETATM    5  C6  UNL     1      26.325   5.975  48.912  1.00  0.00     0.077 A 
HETATM    6  C7  UNL     1      25.933   7.254  48.586  1.00  0.00     0.104 A 
HETATM    7  O3  UNL     1      26.251   3.925  49.998  1.00  0.00    -0.293 OA
HETATM    8  C9  UNL     1      25.609   2.853  50.653  1.00  0.00     0.185 C 
HETATM    9  N1  UNL     1      26.742   2.309  50.934  1.00  0.00    -0.220 NA
HETATM   10  C10 UNL     1      27.142   1.134  51.615  1.00  0.00     0.232 C 
HETATM   11  N2  UNL     1      26.751   0.586  52.740  1.00  0.00    -0.243 NA
HETATM   12  C11 UNL     1      25.712   1.099  53.654  1.00  0.00     0.374 C 
HETATM   13  C12 UNL     1      24.377   0.953  53.014  1.00  0.00     0.006 A 
HETATM   14  C13 UNL     1      23.671   0.012  53.728  1.00  0.00     0.030 A 
HETATM   15  C14 UNL     1      22.393  -0.296  53.313  1.00  0.00     0.011 A 
HETATM   16 BR1  UNL     1      21.408  -1.595  54.294  1.00  0.00    -0.051 Br
HETATM   17  C15 UNL     1      21.861   0.333  52.211  1.00  0.00     0.020 A 
HETATM   18  C16 UNL     1      22.608   1.266  51.531  1.00  0.00     0.012 A 
HETATM   19  C17 UNL     1      23.912   1.620  51.907  1.00  0.00    -0.007 A 
HETATM   20  C18 UNL     1      24.163   2.624  50.839  1.00  0.00     0.330 C 
HETATM   21  N4  UNL     1      23.326   3.739  50.972  1.00  0.00     0.104 NA
HETATM   22  C19 UNL     1      23.777   4.968  51.465  1.00  0.00     0.312 C 
HETATM   23  H17 UNL     1      22.425   3.509  51.449  1.00  0.00     0.317 HD
ENDROOT
BRANCH  12  24
HETATM   24  N3  UNL     1      25.977   2.437  54.084  1.00  0.00     0.107 N 
HETATM   25  H11 UNL     1      25.415   2.688  54.945  1.00  0.00     0.316 HD
HETATM   26  H12 UNL     1      26.986   2.581  54.388  1.00  0.00     0.316 HD
ENDBRANCH  12  24
BRANCH   6  27
HETATM   27  O2  UNL     1      26.607   8.033  47.654  1.00  0.00    -0.353 OA
HETATM   28  C8  UNL     1      27.937   7.735  47.266  1.00  0.00     0.210 C 
ENDBRANCH   6  27
BRANCH   1  29
HETATM   29  O1  UNL     1      24.372   9.050  48.944  1.00  0.00    -0.353 OA
HETATM   30  C1  UNL     1      23.210   9.302  48.192  1.00  0.00     0.210 C 
ENDBRANCH   1  29
TORSDOF 3
ENDMDL
MODEL 6
REMARK VINA RESULT:      -7.9      3.943      5.560
REMARK  3 active torsions:
REMARK  status: ('A' for Active; 'I' for Inactive)
REMARK    1  A    between atoms: O1_2  and  C2_3 
REMARK    2  A    between atoms: C7_8  and  O2_9 
REMARK    3  A    between atoms: C11_16  and  N3_17 
ROOT
HETATM    1  C2  UNL     1      25.955  -0.045  53.539  1.00  0.00     0.102 A 
HETATM    2  C3  UNL     1      24.812  -0.079  52.773  1.00  0.00     0.051 A 
HETATM    3  C4  UNL     1      24.202   1.122  52.493  1.00  0.00     0.006 A 
HETATM    4  C5  UNL     1      24.681   2.349  52.942  1.00  0.00     0.088 A 
HETATM    5  C6  UNL     1      25.848   2.305  53.717  1.00  0.00     0.077 A 
HETATM    6  C7  UNL     1      26.491   1.126  54.022  1.00  0.00     0.104 A 
HETATM    7  O3  UNL     1      24.229   3.680  52.781  1.00  0.00    -0.293 OA
HETATM    8  C9  UNL     1      22.938   3.981  52.300  1.00  0.00     0.185 C 
HETATM    9  N1  UNL     1      23.332   5.132  51.879  1.00  0.00    -0.220 NA
HETATM   10  C10 UNL     1      22.712   6.218  51.217  1.00  0.00     0.232 C 
HETATM   11  N2  UNL     1      21.885   6.279  50.201  1.00  0.00    -0.243 NA
HETATM   12  C11 UNL     1      21.351   5.139  49.431  1.00  0.00     0.374 C 
HETATM   13  C12 UNL     1      20.397   4.376  50.279  1.00  0.00     0.006 A 
HETATM   14  C13 UNL     1      19.139   4.535  49.741  1.00  0.00     0.030 A 
HETATM   15  C14 UNL     1      18.080   3.914  50.368  1.00  0.00     0.011 A 
HETATM   16 BR1  UNL     1      16.339   4.127  49.633  1.00  0.00    -0.051 Br
HETATM   17  C15 UNL     1      18.299   3.163  51.500  1.00  0.00     0.020 A 
HETATM   18  C16 UNL     1      19.575   3.035  51.997  1.00  0.00     0.012 A 
HETATM   19  C17 UNL     1      20.690   3.643  51.402  1.00  0.00    -0.007 A 
HETATM   20  C18 UNL     1      21.720   3.151  52.356  1.00  0.00     0.330 C 
HETATM   21  N4  UNL     1      21.861   1.758  52.288  1.00  0.00     0.104 NA
HETATM   22  C19 UNL     1      22.946   1.139  51.657  1.00  0.00     0.312 C 
HETATM   23  H17 UNL     1      20.987   1.282  51.972  1.00  0.00     0.317 HD
ENDROOT
BRANCH  12  24
HETATM   24  N3  UNL     1      22.387   4.318  48.885  1.00  0.00     0.107 N 
HETATM   25  H11 UNL     1      22.369   3.344  49.298  1.00  0.00     0.316 HD
HETATM   26  H12 UNL     1      22.277   4.154  47.840  1.00  0.00     0.316 HD
ENDBRANCH  12  24
BRANCH   6  27
HETATM   27  O2  UNL     1      27.648   1.077  54.789  1.00  0.00    -0.353 OA
HETATM   28  C8  UNL     1      28.913   1.403  54.240  1.00  0.00     0.210 C 
ENDBRANCH   6  27
BRANCH   1  29
HETATM   29  O1  UNL     1      26.546  -1.270  53.805  1.00  0.00    -0.353 OA
HETATM   30  C1  UNL     1      27.075  -2.096  52.797  1.00  0.00     0.210 C 
ENDBRANCH   1  29
TORSDOF 3
ENDMDL
MODEL 7
REMARK VINA RESULT:      -7.8      4.971      8.401
REMARK  3 active torsions:
REMARK  status: ('A' for Active; 'I' for Inactive)
REMARK    1  A    between atoms: O1_2  and  C2_3 
REMARK    2  A    between atoms: C7_8  and  O2_9 
REMARK    3  A    between atoms: C11_16  and  N3_17 
ROOT
HETATM    1  C2  UNL     1      24.656   4.140  50.770  1.00  0.00     0.102 A 
HETATM    2  C3  UNL     1      24.125   2.870  50.758  1.00  0.00     0.051 A 
HETATM    3  C4  UNL     1      22.790   2.740  51.066  1.00  0.00     0.006 A 
HETATM    4  C5  UNL     1      21.968   3.816  51.383  1.00  0.00     0.088 A 
HETATM    5  C6  UNL     1      22.578   5.077  51.376  1.00  0.00     0.077 A 
HETATM    6  C7  UNL     1      23.910   5.255  51.074  1.00  0.00     0.104 A 
HETATM    7  O3  UNL     1      20.599   3.917  51.725  1.00  0.00    -0.293 OA
HETATM    8  C9  UNL     1      19.830   2.791  52.086  1.00  0.00     0.185 C 
HETATM    9  N1  UNL     1      18.744   3.380  51.722  1.00  0.00    -0.220 NA
HETATM   10  C10 UNL     1      17.374   3.024  51.702  1.00  0.00     0.232 C 
HETATM   11  N2  UNL     1      16.749   1.933  51.329  1.00  0.00    -0.243 NA
HETATM   12  C11 UNL     1      17.366   0.705  50.793  1.00  0.00     0.374 C 
HETATM   13  C12 UNL     1      18.112   0.015  51.879  1.00  0.00     0.006 A 
HETATM   14  C13 UNL     1      17.460  -1.167  52.150  1.00  0.00     0.030 A 
HETATM   15  C14 UNL     1      17.973  -1.982  53.136  1.00  0.00     0.011 A 
HETATM   16 BR1  UNL     1      17.079  -3.617  53.518  1.00  0.00    -0.051 Br
HETATM   17  C15 UNL     1      19.106  -1.603  53.817  1.00  0.00     0.020 A 
HETATM   18  C16 UNL     1      19.721  -0.413  53.508  1.00  0.00     0.012 A 
HETATM   19  C17 UNL     1      19.245   0.457  52.516  1.00  0.00    -0.007 A 
HETATM   20  C18 UNL     1      20.288   1.508  52.653  1.00  0.00     0.330 C 
HETATM   21  N4  UNL     1      21.552   1.032  52.282  1.00  0.00     0.104 NA
HETATM   22  C19 UNL     1      22.160   1.369  51.067  1.00  0.00     0.312 C 
HETATM   23  H17 UNL     1      21.648   0.001  52.418  1.00  0.00     0.317 HD
ENDROOT
BRANCH  12  24
HETATM   24  N3  UNL     1      18.172   0.959  49.640  1.00  0.00     0.107 N 
HETATM   25  H11 UNL     1      18.485   1.970  49.600  1.00  0.00     0.316 HD
HETATM   26  H12 UNL     1      19.083   0.411  49.644  1.00  0.00     0.316 HD
ENDBRANCH  12  24
BRANCH   6  27
HETATM   27  O2  UNL     1      24.520   6.503  51.065  1.00  0.00    -0.353 OA
HETATM   28  C8  UNL     1      23.784   7.682  50.794  1.00  0.00     0.210 C 
ENDBRANCH   6  27
BRANCH   1  29
HETATM   29  O1  UNL     1      26.003   4.239  50.456  1.00  0.00    -0.353 OA
HETATM   30  C1  UNL     1      26.597   3.512  49.410  1.00  0.00     0.210 C 
ENDBRANCH   1  29
TORSDOF 3
ENDMDL
MODEL 8
REMARK VINA RESULT:      -7.2      4.067      8.146
REMARK  3 active torsions:
REMARK  status: ('A' for Active; 'I' for Inactive)
REMARK    1  A    between atoms: O1_2  and  C2_3 
REMARK    2  A    between atoms: C7_8  and  O2_9 
REMARK    3  A    between atoms: C11_16  and  N3_17 
ROOT
HETATM    1  C2  UNL     1      21.922   7.558  47.828  1.00  0.00     0.102 A 
HETATM    2  C3  UNL     1      21.450   6.780  48.861  1.00  0.00     0.051 A 
HETATM    3  C4  UNL     1      22.272   5.779  49.325  1.00  0.00     0.006 A 
HETATM    4  C5  UNL     1      23.537   5.523  48.808  1.00  0.00     0.088 A 
HETATM    5  C6  UNL     1      23.950   6.356  47.758  1.00  0.00     0.077 A 
HETATM    6  C7  UNL     1      23.161   7.369  47.261  1.00  0.00     0.104 A 
HETATM    7  O3  UNL     1      24.535   4.570  49.121  1.00  0.00    -0.293 OA
HETATM    8  C9  UNL     1      24.269   3.443  49.926  1.00  0.00     0.185 C 
HETATM    9  N1  UNL     1      25.508   3.360  50.268  1.00  0.00    -0.220 NA
HETATM   10  C10 UNL     1      26.257   2.495  51.102  1.00  0.00     0.232 C 
HETATM   11  N2  UNL     1      26.033   2.005  52.297  1.00  0.00    -0.243 NA
HETATM   12  C11 UNL     1      24.848   2.252  53.142  1.00  0.00     0.374 C 
HETATM   13  C12 UNL     1      23.667   1.575  52.543  1.00  0.00     0.006 A 
HETATM   14  C13 UNL     1      23.295   0.556  53.391  1.00  0.00     0.030 A 
HETATM   15  C14 UNL     1      22.213  -0.222  53.037  1.00  0.00     0.011 A 
HETATM   16 BR1  UNL     1      21.691  -1.633  54.200  1.00  0.00    -0.051 Br
HETATM   17  C15 UNL     1      21.541   0.033  51.864  1.00  0.00     0.020 A 
HETATM   18  C16 UNL     1      21.953   1.063  51.052  1.00  0.00     0.012 A 
HETATM   19  C17 UNL     1      23.045   1.887  51.360  1.00  0.00    -0.007 A 
HETATM   20  C18 UNL     1      22.981   2.763  50.159  1.00  0.00     0.330 C 
HETATM   21  N4  UNL     1      21.811   3.533  50.144  1.00  0.00     0.104 NA
HETATM   22  C19 UNL     1      21.801   4.897  50.456  1.00  0.00     0.312 C 
HETATM   23  H17 UNL     1      21.025   3.078  50.658  1.00  0.00     0.317 HD
ENDROOT
BRANCH  12  24
HETATM   24  N3  UNL     1      24.629   3.646  53.378  1.00  0.00     0.107 N 
HETATM   25  H11 UNL     1      25.019   4.239  52.592  1.00  0.00     0.316 HD
HETATM   26  H12 UNL     1      23.598   3.904  53.404  1.00  0.00     0.316 HD
ENDBRANCH  12  24
BRANCH   6  27
HETATM   27  O2  UNL     1      23.565   8.197  46.222  1.00  0.00    -0.353 OA
HETATM   28  C8  UNL     1      23.526   7.763  44.874  1.00  0.00     0.210 C 
ENDBRANCH   6  27
BRANCH   1  29
HETATM   29  O1  UNL     1      21.071   8.557  47.382  1.00  0.00    -0.353 OA
HETATM   30  C1  UNL     1      20.258   9.310  48.247  1.00  0.00     0.210 C 
ENDBRANCH   1  29
TORSDOF 3
ENDMDL
MODEL 9
REMARK VINA RESULT:      -7.2      2.664      4.214
REMARK  3 active torsions:
REMARK  status: ('A' for Active; 'I' for Inactive)
REMARK    1  A    between atoms: O1_2  and  C2_3 
REMARK    2  A    between atoms: C7_8  and  O2_9 
REMARK    3  A    between atoms: C11_16  and  N3_17 
ROOT
HETATM    1  C2  UNL     1      23.032   2.372  50.196  1.00  0.00     0.102 A 
HETATM    2  C3  UNL     1      24.324   2.765  50.466  1.00  0.00     0.051 A 
HETATM    3  C4  UNL     1      24.743   3.965  49.940  1.00  0.00     0.006 A 
HETATM    4  C5  UNL     1      23.934   4.785  49.161  1.00  0.00     0.088 A 
HETATM    5  C6  UNL     1      22.633   4.319  48.927  1.00  0.00     0.077 A 
HETATM    6  C7  UNL     1      22.171   3.125  49.433  1.00  0.00     0.104 A 
HETATM    7  O3  UNL     1      24.147   6.033  48.528  1.00  0.00    -0.293 OA
HETATM    8  C9  UNL     1      25.437   6.578  48.360  1.00  0.00     0.185 C 
HETATM    9  N1  UNL     1      24.956   7.771  48.303  1.00  0.00    -0.220 NA
HETATM   10  C10 UNL     1      25.510   9.064  48.141  1.00  0.00     0.232 C 
HETATM   11  N2  UNL     1      26.552   9.653  48.678  1.00  0.00    -0.243 NA
HETATM   12  C11 UNL     1      27.483   9.070  49.663  1.00  0.00     0.374 C 
HETATM   13  C12 UNL     1      28.303   8.018  49.005  1.00  0.00     0.006 A 
HETATM   14  C13 UNL     1      29.603   8.467  48.960  1.00  0.00     0.030 A 
HETATM   15  C14 UNL     1      30.553   7.653  48.383  1.00  0.00     0.011 A 
HETATM   16 BR1  UNL     1      32.353   8.264  48.317  1.00  0.00    -0.051 Br
HETATM   17  C15 UNL     1      30.187   6.430  47.871  1.00  0.00     0.020 A 
HETATM   18  C16 UNL     1      28.875   6.026  47.940  1.00  0.00     0.012 A 
HETATM   19  C17 UNL     1      27.865   6.812  48.516  1.00  0.00    -0.007 A 
HETATM   20  C18 UNL     1      26.732   5.873  48.298  1.00  0.00     0.330 C 
HETATM   21  N4  UNL     1      26.885   4.698  49.044  1.00  0.00     0.104 NA
HETATM   22  C19 UNL     1      26.150   4.440  50.207  1.00  0.00     0.312 C 
HETATM   23  H17 UNL     1      27.886   4.473  49.238  1.00  0.00     0.317 HD
ENDROOT
BRANCH  12  24
HETATM   24  N3  UNL     1      26.810   8.597  50.834  1.00  0.00     0.107 N 
HETATM   25  H11 UNL     1      26.191   9.346  51.255  1.00  0.00     0.316 HD
HETATM   26  H12 UNL     1      26.140   7.797  50.630  1.00  0.00     0.316 HD
ENDBRANCH  12  24
BRANCH   6  27
HETATM   27  O2  UNL     1      20.882   2.660  49.205  1.00  0.00    -0.353 OA
HETATM   28  C8  UNL     1      19.804   3.026  50.048  1.00  0.00     0.210 C 
ENDBRANCH   6  27
BRANCH   1  29
HETATM   29  O1  UNL     1      22.639   1.159  50.739  1.00  0.00    -0.353 OA
HETATM   30  C1  UNL     1      22.742   0.869  52.111  1.00  0.00     0.210 C 
ENDBRANCH   1  29
TORSDOF 3
ENDMDL
