MODEL 1
REMARK VINA RESULT:      -7.9      0.000      0.000
REMARK  8 active torsions:
REMARK  status: ('A' for Active; 'I' for Inactive)
REMARK    1  A    between atoms: C2_2  and  C3_3 
REMARK       I    between atoms: C3_3  and  N1_5 
REMARK    2  A    between atoms: C5_7  and  C6_8 
REMARK    3  A    between atoms: C6_8  and  C7_9 
REMARK    4  A    between atoms: C8_11  and  C9_12 
REMARK    5  A    between atoms: C9_12  and  O2_13 
REMARK    6  A    between atoms: O2_13  and  C10_14 
REMARK    7  A    between atoms: C11_16  and  N3_17 
REMARK    8  A    between atoms: N3_17  and  C12_18 
ROOT
HETATM    1  C10 UNL     1      26.607   3.742  49.956  1.00  0.00     0.195 A 
HETATM    2  N2  UNL     1      27.567   4.303  49.198  1.00  0.00    -0.037 NA
HETATM    3  C11 UNL     1      27.416   5.510  48.629  1.00  0.00     0.731 A 
HETATM    4  N6  UNL     1      26.248   6.159  48.840  1.00  0.00    -0.043 NA
HETATM    5  C16 UNL     1      25.264   5.637  49.586  1.00  0.00     0.172 A 
HETATM    6  C17 UNL     1      25.380   4.383  50.199  1.00  0.00     0.062 A 
HETATM    7  C18 UNL     1      24.034   4.457  50.832  1.00  0.00     0.192 A 
HETATM    8  N7  UNL     1      23.966   5.734  50.166  1.00  0.00    -0.268 N 
HETATM    9 CL1  UNL     1      22.713   6.904  50.140  1.00  0.00     0.015 Cl
ENDROOT
BRANCH   1  10
HETATM   10  O2  UNL     1      26.690   2.511  50.576  1.00  0.00    -0.333 OA
BRANCH  10  11
HETATM   11  C9  UNL     1      27.129   2.272  51.870  1.00  0.00     0.184 C 
BRANCH  11  12
HETATM   12  C8  UNL     1      26.110   1.767  52.811  1.00  0.00     0.034 C 
HETATM   13  C5  UNL     1      26.403   0.678  53.724  1.00  0.00     0.013 C 
HETATM   14  C4  UNL     1      25.531  -0.472  53.198  1.00  0.00     0.131 C 
HETATM   15  N1  UNL     1      24.315   0.250  52.894  1.00  0.00    -0.348 N 
HETATM   16  C3  UNL     1      22.934   0.301  53.212  1.00  0.00     0.242 C 
HETATM   17  C19 UNL     1      24.991   1.121  51.962  1.00  0.00     0.133 C 
HETATM   18  O1  UNL     1      21.938   0.994  52.876  1.00  0.00    -0.268 OA
BRANCH  13  19
HETATM   19  C6  UNL     1      27.755   0.254  54.086  1.00  0.00     0.038 C 
BRANCH  19  20
HETATM   20  C7  UNL     1      28.381  -0.853  53.293  1.00  0.00     0.222 C 
HETATM   21  F1  UNL     1      29.759  -0.781  53.594  1.00  0.00    -0.255 F 
ENDBRANCH  19  20
ENDBRANCH  13  19
BRANCH  16  22
HETATM   22  C2  UNL     1      22.588  -0.725  54.189  1.00  0.00     0.064 C 
HETATM   23  C1  UNL     1      21.898  -1.594  54.906  1.00  0.00     0.017 C 
ENDBRANCH  16  22
ENDBRANCH  11  12
ENDBRANCH  10  11
ENDBRANCH   1  10
BRANCH   3  24
HETATM   24  N3  UNL     1      28.549   5.897  47.895  1.00  0.00    -0.185 N 
HETATM   25  H14 UNL     1      28.601   5.448  46.961  1.00  0.00     0.184 HD
BRANCH  24  26
HETATM   26  C12 UNL     1      29.506   6.815  48.398  1.00  0.00     0.085 A 
HETATM   27  C13 UNL     1      30.805   6.493  48.719  1.00  0.00     0.170 A 
HETATM   28  N4  UNL     1      31.323   7.672  49.133  1.00  0.00    -0.183 NA
HETATM   29  N5  UNL     1      30.396   8.624  49.060  1.00  0.00    -0.283 N 
HETATM   30  C14 UNL     1      30.676   9.993  49.428  1.00  0.00     0.179 C 
HETATM   31  C15 UNL     1      29.211   8.149  48.601  1.00  0.00     0.143 A 
ENDBRANCH  24  26
ENDBRANCH   3  24
TORSDOF 8
ENDMDL
MODEL 2
REMARK VINA RESULT:      -7.9      2.580      4.476
REMARK  8 active torsions:
REMARK  status: ('A' for Active; 'I' for Inactive)
REMARK    1  A    between atoms: C2_2  and  C3_3 
REMARK       I    between atoms: C3_3  and  N1_5 
REMARK    2  A    between atoms: C5_7  and  C6_8 
REMARK    3  A    between atoms: C6_8  and  C7_9 
REMARK    4  A    between atoms: C8_11  and  C9_12 
REMARK    5  A    between atoms: C9_12  and  O2_13 
REMARK    6  A    between atoms: O2_13  and  C10_14 
REMARK    7  A    between atoms: C11_16  and  N3_17 
REMARK    8  A    between atoms: N3_17  and  C12_18 
ROOT
HETATM    1  C10 UNL     1      23.179   4.683  52.240  1.00  0.00     0.195 A 
HETATM    2  N2  UNL     1      24.024   5.705  52.007  1.00  0.00    -0.037 NA
HETATM    3  C11 UNL     1      23.701   6.733  51.208  1.00  0.00     0.731 A 
HETATM    4  N6  UNL     1      22.479   6.715  50.627  1.00  0.00    -0.043 NA
HETATM    5  C16 UNL     1      21.606   5.717  50.829  1.00  0.00     0.172 A 
HETATM    6  C17 UNL     1      21.902   4.626  51.656  1.00  0.00     0.062 A 
HETATM    7  C18 UNL     1      20.576   3.981  51.448  1.00  0.00     0.192 A 
HETATM    8  N7  UNL     1      20.333   5.120  50.598  1.00  0.00    -0.268 N 
HETATM    9 CL1  UNL     1      18.953   5.535  49.669  1.00  0.00     0.015 Cl
ENDROOT
BRANCH   1  10
HETATM   10  O2  UNL     1      23.437   3.596  53.051  1.00  0.00    -0.333 OA
BRANCH  10  11
HETATM   11  C9  UNL     1      23.386   2.261  52.676  1.00  0.00     0.184 C 
BRANCH  11  12
HETATM   12  C8  UNL     1      24.689   1.577  52.558  1.00  0.00     0.034 C 
HETATM   13  C5  UNL     1      24.865   0.211  53.013  1.00  0.00     0.013 C 
HETATM   14  C4  UNL     1      25.799   0.357  54.224  1.00  0.00     0.131 C 
HETATM   15  N1  UNL     1      26.724   1.345  53.714  1.00  0.00    -0.348 N 
HETATM   16  C3  UNL     1      28.099   1.553  53.435  1.00  0.00     0.242 C 
HETATM   17  C19 UNL     1      25.672   2.310  53.499  1.00  0.00     0.133 C 
HETATM   18  O1  UNL     1      28.813   2.483  52.976  1.00  0.00    -0.268 OA
BRANCH  13  19
HETATM   19  C6  UNL     1      23.763  -0.722  53.248  1.00  0.00     0.038 C 
BRANCH  19  20
HETATM   20  C7  UNL     1      23.310  -0.934  54.660  1.00  0.00     0.222 C 
HETATM   21  F1  UNL     1      22.086  -0.235  54.758  1.00  0.00    -0.255 F 
ENDBRANCH  19  20
ENDBRANCH  13  19
BRANCH  16  22
HETATM   22  C2  UNL     1      28.882   0.370  53.772  1.00  0.00     0.064 C 
HETATM   23  C1  UNL     1      29.658  -0.694  53.667  1.00  0.00     0.017 C 
ENDBRANCH  16  22
ENDBRANCH  11  12
ENDBRANCH  10  11
ENDBRANCH   1  10
BRANCH   3  24
HETATM   24  N3  UNL     1      24.730   7.685  51.123  1.00  0.00    -0.185 N 
HETATM   25  H14 UNL     1      24.619   8.465  51.800  1.00  0.00     0.184 HD
BRANCH  24  26
HETATM   26  C12 UNL     1      25.805   7.567  50.205  1.00  0.00     0.085 A 
HETATM   27  C13 UNL     1      26.013   6.485  49.380  1.00  0.00     0.170 A 
HETATM   28  N4  UNL     1      27.126   6.830  48.693  1.00  0.00    -0.183 NA
HETATM   29  N5  UNL     1      27.546   8.031  49.085  1.00  0.00    -0.283 N 
HETATM   30  C14 UNL     1      28.713   8.658  48.506  1.00  0.00     0.179 C 
HETATM   31  C15 UNL     1      26.751   8.560  50.048  1.00  0.00     0.143 A 
ENDBRANCH  24  26
ENDBRANCH   3  24
TORSDOF 8
ENDMDL
MODEL 3
REMARK VINA RESULT:      -7.7      4.139      8.464
REMARK  8 active torsions:
REMARK  status: ('A' for Active; 'I' for Inactive)
REMARK    1  A    between atoms: C2_2  and  C3_3 
REMARK       I    between atoms: C3_3  and  N1_5 
REMARK    2  A    between atoms: C5_7  and  C6_8 
REMARK    3  A    between atoms: C6_8  and  C7_9 
REMARK    4  A    between atoms: C8_11  and  C9_12 
REMARK    5  A    between atoms: C9_12  and  O2_13 
REMARK    6  A    between atoms: O2_13  and  C10_14 
REMARK    7  A    between atoms: C11_16  and  N3_17 
REMARK    8  A    between atoms: N3_17  and  C12_18 
ROOT
HETATM    1  C10 UNL     1      21.811   0.690  52.639  1.00  0.00     0.195 A 
HETATM    2  N2  UNL     1      22.891   0.312  53.348  1.00  0.00    -0.037 NA
HETATM    3  C11 UNL     1      22.852  -0.703  54.225  1.00  0.00     0.731 A 
HETATM    4  N6  UNL     1      21.674  -1.348  54.384  1.00  0.00    -0.043 NA
HETATM    5  C16 UNL     1      20.572  -1.004  53.701  1.00  0.00     0.172 A 
HETATM    6  C17 UNL     1      20.569   0.047  52.775  1.00  0.00     0.062 A 
HETATM    7  C18 UNL     1      19.137  -0.144  52.413  1.00  0.00     0.192 A 
HETATM    8  N7  UNL     1      19.197  -1.205  53.388  1.00  0.00    -0.268 N 
HETATM    9 CL1  UNL     1      17.980  -2.290  53.920  1.00  0.00     0.015 Cl
ENDROOT
BRANCH   1  10
HETATM   10  O2  UNL     1      21.775   1.718  51.718  1.00  0.00    -0.333 OA
BRANCH  10  11
HETATM   11  C9  UNL     1      21.822   3.075  52.001  1.00  0.00     0.184 C 
BRANCH  11  12
HETATM   12  C8  UNL     1      23.073   3.765  51.631  1.00  0.00     0.034 C 
HETATM   13  C5  UNL     1      23.081   4.834  50.650  1.00  0.00     0.013 C 
HETATM   14  C4  UNL     1      23.846   4.223  49.465  1.00  0.00     0.131 C 
HETATM   15  N1  UNL     1      24.904   3.538  50.172  1.00  0.00    -0.348 N 
HETATM   16  C3  UNL     1      26.316   3.476  50.290  1.00  0.00     0.242 C 
HETATM   17  C19 UNL     1      23.967   2.727  50.915  1.00  0.00     0.133 C 
HETATM   18  O1  UNL     1      27.155   2.820  50.961  1.00  0.00    -0.268 OA
BRANCH  13  19
HETATM   19  C6  UNL     1      21.891   5.579  50.241  1.00  0.00     0.038 C 
BRANCH  19  20
HETATM   20  C7  UNL     1      21.629   6.901  50.896  1.00  0.00     0.222 C 
HETATM   21  F1  UNL     1      22.879   7.560  50.896  1.00  0.00    -0.255 F 
ENDBRANCH  19  20
ENDBRANCH  13  19
BRANCH  16  22
HETATM   22  C2  UNL     1      26.954   4.433  49.393  1.00  0.00     0.064 C 
HETATM   23  C1  UNL     1      27.788   4.975  48.524  1.00  0.00     0.017 C 
ENDBRANCH  16  22
ENDBRANCH  11  12
ENDBRANCH  10  11
ENDBRANCH   1  10
BRANCH   3  24
HETATM   24  N3  UNL     1      24.096  -0.925  54.838  1.00  0.00    -0.185 N 
HETATM   25  H14 UNL     1      24.015  -1.357  55.778  1.00  0.00     0.184 HD
BRANCH  24  26
HETATM   26  C12 UNL     1      25.325  -0.592  54.211  1.00  0.00     0.085 A 
HETATM   27  C13 UNL     1      25.690  -0.992  52.946  1.00  0.00     0.170 A 
HETATM   28  N4  UNL     1      26.911  -0.430  52.785  1.00  0.00    -0.183 NA
HETATM   29  N5  UNL     1      27.243   0.252  53.878  1.00  0.00    -0.283 N 
HETATM   30  C14 UNL     1      28.493   0.969  53.981  1.00  0.00     0.179 C 
HETATM   31  C15 UNL     1      26.278   0.191  54.831  1.00  0.00     0.143 A 
ENDBRANCH  24  26
ENDBRANCH   3  24
TORSDOF 8
ENDMDL
MODEL 4
REMARK VINA RESULT:      -7.7      2.286      5.295
REMARK  8 active torsions:
REMARK  status: ('A' for Active; 'I' for Inactive)
REMARK    1  A    between atoms: C2_2  and  C3_3 
REMARK       I    between atoms: C3_3  and  N1_5 
REMARK    2  A    between atoms: C5_7  and  C6_8 
REMARK    3  A    between atoms: C6_8  and  C7_9 
REMARK    4  A    between atoms: C8_11  and  C9_12 
REMARK    5  A    between atoms: C9_12  and  O2_13 
REMARK    6  A    between atoms: O2_13  and  C10_14 
REMARK    7  A    between atoms: C11_16  and  N3_17 
REMARK    8  A    between atoms: N3_17  and  C12_18 
ROOT
HETATM    1  C10 UNL     1      25.684   3.982  50.348  1.00  0.00     0.195 A 
HETATM    2  N2  UNL     1      24.597   4.512  50.940  1.00  0.00    -0.037 NA
HETATM    3  C11 UNL     1      24.229   5.789  50.749  1.00  0.00     0.731 A 
HETATM    4  N6  UNL     1      24.995   6.546  49.931  1.00  0.00    -0.043 NA
HETATM    5  C16 UNL     1      26.088   6.060  49.322  1.00  0.00     0.172 A 
HETATM    6  C17 UNL     1      26.507   4.735  49.493  1.00  0.00     0.062 A 
HETATM    7  C18 UNL     1      27.671   4.881  48.576  1.00  0.00     0.192 A 
HETATM    8  N7  UNL     1      27.200   6.238  48.451  1.00  0.00    -0.268 N 
HETATM    9 CL1  UNL     1      27.826   7.547  47.539  1.00  0.00     0.015 Cl
ENDROOT
BRANCH   1  10
HETATM   10  O2  UNL     1      26.122   2.681  50.492  1.00  0.00    -0.333 OA
BRANCH  10  11
HETATM   11  C9  UNL     1      26.771   2.151  51.597  1.00  0.00     0.184 C 
BRANCH  11  12
HETATM   12  C8  UNL     1      25.897   1.608  52.655  1.00  0.00     0.034 C 
HETATM   13  C5  UNL     1      26.266   0.419  53.400  1.00  0.00     0.013 C 
HETATM   14  C4  UNL     1      25.240  -0.626  52.937  1.00  0.00     0.131 C 
HETATM   15  N1  UNL     1      24.043   0.185  52.920  1.00  0.00    -0.348 N 
HETATM   16  C3  UNL     1      22.744   0.276  53.482  1.00  0.00     0.242 C 
HETATM   17  C19 UNL     1      24.606   1.110  51.965  1.00  0.00     0.133 C 
HETATM   18  O1  UNL     1      21.755   1.051  53.392  1.00  0.00    -0.268 OA
BRANCH  13  19
HETATM   19  C6  UNL     1      27.628  -0.109  53.476  1.00  0.00     0.038 C 
BRANCH  19  20
HETATM   20  C7  UNL     1      28.462   0.263  54.664  1.00  0.00     0.222 C 
HETATM   21  F1  UNL     1      29.784   0.336  54.171  1.00  0.00    -0.255 F 
ENDBRANCH  19  20
ENDBRANCH  13  19
BRANCH  16  22
HETATM   22  C2  UNL     1      22.501  -0.823  54.410  1.00  0.00     0.064 C 
HETATM   23  C1  UNL     1      21.948  -1.865  55.004  1.00  0.00     0.017 C 
ENDBRANCH  16  22
ENDBRANCH  11  12
ENDBRANCH  10  11
ENDBRANCH   1  10
BRANCH   3  24
HETATM   24  N3  UNL     1      23.060   6.116  51.455  1.00  0.00    -0.185 N 
HETATM   25  H14 UNL     1      23.166   6.965  52.044  1.00  0.00     0.184 HD
BRANCH  24  26
HETATM   26  C12 UNL     1      21.868   5.354  51.354  1.00  0.00     0.085 A 
HETATM   27  C13 UNL     1      21.446   4.435  52.287  1.00  0.00     0.170 A 
HETATM   28  N4  UNL     1      20.278   3.986  51.773  1.00  0.00    -0.183 NA
HETATM   29  N5  UNL     1      20.028   4.597  50.617  1.00  0.00    -0.283 N 
HETATM   30  C14 UNL     1      18.834   4.321  49.851  1.00  0.00     0.179 C 
HETATM   31  C15 UNL     1      21.001   5.482  50.287  1.00  0.00     0.143 A 
ENDBRANCH  24  26
ENDBRANCH   3  24
TORSDOF 8
ENDMDL
MODEL 5
REMARK VINA RESULT:      -7.7      4.101      7.951
REMARK  8 active torsions:
REMARK  status: ('A' for Active; 'I' for Inactive)
REMARK    1  A    between atoms: C2_2  and  C3_3 
REMARK       I    between atoms: C3_3  and  N1_5 
REMARK    2  A    between atoms: C5_7  and  C6_8 
REMARK    3  A    between atoms: C6_8  and  C7_9 
REMARK    4  A    between atoms: C8_11  and  C9_12 
REMARK    5  A    between atoms: C9_12  and  O2_13 
REMARK    6  A    between atoms: O2_13  and  C10_14 
REMARK    7  A    between atoms: C11_16  and  N3_17 
REMARK    8  A    between atoms: N3_17  and  C12_18 
ROOT
HETATM    1  C10 UNL     1      22.519   1.220  52.640  1.00  0.00     0.195 A 
HETATM    2  N2  UNL     1      23.545   0.643  53.293  1.00  0.00    -0.037 NA
HETATM    3  C11 UNL     1      23.396  -0.485  54.005  1.00  0.00     0.731 A 
HETATM    4  N6  UNL     1      22.163  -1.037  54.054  1.00  0.00    -0.043 NA
HETATM    5  C16 UNL     1      21.112  -0.495  53.420  1.00  0.00     0.172 A 
HETATM    6  C17 UNL     1      21.222   0.679  52.665  1.00  0.00     0.062 A 
HETATM    7  C18 UNL     1      19.788   0.676  52.265  1.00  0.00     0.192 A 
HETATM    8  N7  UNL     1      19.732  -0.521  53.068  1.00  0.00    -0.268 N 
HETATM    9 CL1  UNL     1      18.412  -1.559  53.418  1.00  0.00     0.015 Cl
ENDROOT
BRANCH   1  10
HETATM   10  O2  UNL     1      22.594   2.374  51.886  1.00  0.00    -0.333 OA
BRANCH  10  11
HETATM   11  C9  UNL     1      22.702   2.446  50.504  1.00  0.00     0.184 C 
BRANCH  11  12
HETATM   12  C8  UNL     1      23.040   3.773  49.955  1.00  0.00     0.034 C 
HETATM   13  C5  UNL     1      24.416   4.150  49.691  1.00  0.00     0.013 C 
HETATM   14  C4  UNL     1      24.692   5.245  50.733  1.00  0.00     0.131 C 
HETATM   15  N1  UNL     1      23.447   5.978  50.666  1.00  0.00    -0.348 N 
HETATM   16  C3  UNL     1      22.919   7.265  50.391  1.00  0.00     0.242 C 
HETATM   17  C19 UNL     1      22.671   4.817  51.034  1.00  0.00     0.133 C 
HETATM   18  O1  UNL     1      21.782   7.806  50.361  1.00  0.00    -0.268 OA
BRANCH  13  19
HETATM   19  C6  UNL     1      25.516   3.194  49.559  1.00  0.00     0.038 C 
BRANCH  19  20
HETATM   20  C7  UNL     1      26.405   2.977  50.745  1.00  0.00     0.222 C 
HETATM   21  F1  UNL     1      25.904   1.812  51.367  1.00  0.00    -0.255 F 
ENDBRANCH  19  20
ENDBRANCH  13  19
BRANCH  16  22
HETATM   22  C2  UNL     1      23.984   8.202  50.053  1.00  0.00     0.064 C 
HETATM   23  C1  UNL     1      24.837   8.938  49.363  1.00  0.00     0.017 C 
ENDBRANCH  16  22
ENDBRANCH  11  12
ENDBRANCH  10  11
ENDBRANCH   1  10
BRANCH   3  24
HETATM   24  N3  UNL     1      24.602  -0.908  54.588  1.00  0.00    -0.185 N 
HETATM   25  H14 UNL     1      24.462  -1.462  55.455  1.00  0.00     0.184 HD
BRANCH  24  26
HETATM   26  C12 UNL     1      25.869  -0.604  54.027  1.00  0.00     0.085 A 
HETATM   27  C13 UNL     1      26.375  -1.179  52.884  1.00  0.00     0.170 A 
HETATM   28  N4  UNL     1      27.578  -0.575  52.740  1.00  0.00    -0.183 NA
HETATM   29  N5  UNL     1      27.768   0.294  53.730  1.00  0.00    -0.283 N 
HETATM   30  C14 UNL     1      28.967   1.096  53.822  1.00  0.00     0.179 C 
HETATM   31  C15 UNL     1      26.718   0.328  54.589  1.00  0.00     0.143 A 
ENDBRANCH  24  26
ENDBRANCH   3  24
TORSDOF 8
ENDMDL
MODEL 6
REMARK VINA RESULT:      -7.6      3.810      6.759
REMARK  8 active torsions:
REMARK  status: ('A' for Active; 'I' for Inactive)
REMARK    1  A    between atoms: C2_2  and  C3_3 
REMARK       I    between atoms: C3_3  and  N1_5 
REMARK    2  A    between atoms: C5_7  and  C6_8 
REMARK    3  A    between atoms: C6_8  and  C7_9 
REMARK    4  A    between atoms: C8_11  and  C9_12 
REMARK    5  A    between atoms: C9_12  and  O2_13 
REMARK    6  A    between atoms: O2_13  and  C10_14 
REMARK    7  A    between atoms: C11_16  and  N3_17 
REMARK    8  A    between atoms: N3_17  and  C12_18 
ROOT
HETATM    1  C10 UNL     1      23.727   3.100  51.208  1.00  0.00     0.195 A 
HETATM    2  N2  UNL     1      24.084   1.998  51.894  1.00  0.00    -0.037 NA
HETATM    3  C11 UNL     1      25.330   1.501  51.850  1.00  0.00     0.731 A 
HETATM    4  N6  UNL     1      26.236   2.147  51.081  1.00  0.00    -0.043 NA
HETATM    5  C16 UNL     1      25.923   3.247  50.380  1.00  0.00     0.172 A 
HETATM    6  C17 UNL     1      24.637   3.800  50.398  1.00  0.00     0.062 A 
HETATM    7  C18 UNL     1      24.998   4.923  49.489  1.00  0.00     0.192 A 
HETATM    8  N7  UNL     1      26.299   4.301  49.499  1.00  0.00    -0.268 N 
HETATM    9 CL1  UNL     1      27.747   4.749  48.696  1.00  0.00     0.015 Cl
ENDROOT
BRANCH   1  10
HETATM   10  O2  UNL     1      22.470   3.671  51.206  1.00  0.00    -0.333 OA
BRANCH  10  11
HETATM   11  C9  UNL     1      21.573   3.686  52.264  1.00  0.00     0.184 C 
BRANCH  11  12
HETATM   12  C8  UNL     1      20.313   2.948  52.049  1.00  0.00     0.034 C 
HETATM   13  C5  UNL     1      20.139   1.597  52.546  1.00  0.00     0.013 C 
HETATM   14  C4  UNL     1      20.080   0.751  51.264  1.00  0.00     0.131 C 
HETATM   15  N1  UNL     1      19.255   1.602  50.436  1.00  0.00    -0.348 N 
HETATM   16  C3  UNL     1      18.033   1.621  49.718  1.00  0.00     0.242 C 
HETATM   17  C19 UNL     1      20.188   2.701  50.528  1.00  0.00     0.133 C 
HETATM   18  O1  UNL     1      17.394   2.444  49.010  1.00  0.00    -0.268 OA
BRANCH  13  19
HETATM   19  C6  UNL     1      20.966   0.995  53.592  1.00  0.00     0.038 C 
BRANCH  19  20
HETATM   20  C7  UNL     1      21.726  -0.252  53.258  1.00  0.00     0.222 C 
HETATM   21  F1  UNL     1      22.753  -0.323  54.226  1.00  0.00    -0.255 F 
ENDBRANCH  19  20
ENDBRANCH  13  19
BRANCH  16  22
HETATM   22  C2  UNL     1      17.340   0.343  49.837  1.00  0.00     0.064 C 
HETATM   23  C1  UNL     1      16.418  -0.598  49.746  1.00  0.00     0.017 C 
ENDBRANCH  16  22
ENDBRANCH  11  12
ENDBRANCH  10  11
ENDBRANCH   1  10
BRANCH   3  24
HETATM   24  N3  UNL     1      25.475   0.357  52.652  1.00  0.00    -0.185 N 
HETATM   25  H14 UNL     1      24.634  -0.252  52.646  1.00  0.00     0.184 HD
BRANCH  24  26
HETATM   26  C12 UNL     1      26.660   0.080  53.381  1.00  0.00     0.085 A 
HETATM   27  C13 UNL     1      26.842   0.366  54.714  1.00  0.00     0.170 A 
HETATM   28  N4  UNL     1      28.095  -0.083  54.959  1.00  0.00    -0.183 NA
HETATM   29  N5  UNL     1      28.616  -0.598  53.847  1.00  0.00    -0.283 N 
HETATM   30  C14 UNL     1      29.943  -1.168  53.819  1.00  0.00     0.179 C 
HETATM   31  C15 UNL     1      27.756  -0.526  52.800  1.00  0.00     0.143 A 
ENDBRANCH  24  26
ENDBRANCH   3  24
TORSDOF 8
ENDMDL
MODEL 7
REMARK VINA RESULT:      -7.6      1.623      2.068
REMARK  8 active torsions:
REMARK  status: ('A' for Active; 'I' for Inactive)
REMARK    1  A    between atoms: C2_2  and  C3_3 
REMARK       I    between atoms: C3_3  and  N1_5 
REMARK    2  A    between atoms: C5_7  and  C6_8 
REMARK    3  A    between atoms: C6_8  and  C7_9 
REMARK    4  A    between atoms: C8_11  and  C9_12 
REMARK    5  A    between atoms: C9_12  and  O2_13 
REMARK    6  A    between atoms: O2_13  and  C10_14 
REMARK    7  A    between atoms: C11_16  and  N3_17 
REMARK    8  A    between atoms: N3_17  and  C12_18 
ROOT
HETATM    1  C10 UNL     1      26.680   4.193  49.549  1.00  0.00     0.195 A 
HETATM    2  N2  UNL     1      27.715   4.564  48.772  1.00  0.00    -0.037 NA
HETATM    3  C11 UNL     1      27.888   5.833  48.369  1.00  0.00     0.731 A 
HETATM    4  N6  UNL     1      26.975   6.747  48.768  1.00  0.00    -0.043 NA
HETATM    5  C16 UNL     1      25.927   6.422  49.540  1.00  0.00     0.172 A 
HETATM    6  C17 UNL     1      25.710   5.112  49.985  1.00  0.00     0.062 A 
HETATM    7  C18 UNL     1      24.484   5.469  50.751  1.00  0.00     0.192 A 
HETATM    8  N7  UNL     1      24.751   6.795  50.251  1.00  0.00    -0.268 N 
HETATM    9 CL1  UNL     1      23.893   8.261  50.487  1.00  0.00     0.015 Cl
ENDROOT
BRANCH   1  10
HETATM   10  O2  UNL     1      26.439   2.914  50.007  1.00  0.00    -0.333 OA
BRANCH  10  11
HETATM   11  C9  UNL     1      26.877   2.375  51.208  1.00  0.00     0.184 C 
BRANCH  11  12
HETATM   12  C8  UNL     1      25.827   2.092  52.206  1.00  0.00     0.034 C 
HETATM   13  C5  UNL     1      25.942   0.975  53.123  1.00  0.00     0.013 C 
HETATM   14  C4  UNL     1      24.832   0.018  52.661  1.00  0.00     0.131 C 
HETATM   15  N1  UNL     1      23.771   0.967  52.403  1.00  0.00    -0.348 N 
HETATM   16  C3  UNL     1      22.446   1.296  52.787  1.00  0.00     0.242 C 
HETATM   17  C19 UNL     1      24.559   1.677  51.424  1.00  0.00     0.133 C 
HETATM   18  O1  UNL     1      21.593   2.173  52.486  1.00  0.00    -0.268 OA
BRANCH  13  19
HETATM   19  C6  UNL     1      27.198   0.290  53.427  1.00  0.00     0.038 C 
BRANCH  19  20
HETATM   20  C7  UNL     1      27.563   0.095  54.867  1.00  0.00     0.222 C 
HETATM   21  F1  UNL     1      26.371   0.352  55.582  1.00  0.00    -0.255 F 
ENDBRANCH  19  20
ENDBRANCH  13  19
BRANCH  16  22
HETATM   22  C2  UNL     1      21.952   0.369  53.798  1.00  0.00     0.064 C 
HETATM   23  C1  UNL     1      21.879  -0.639  54.648  1.00  0.00     0.017 C 
ENDBRANCH  16  22
ENDBRANCH  11  12
ENDBRANCH  10  11
ENDBRANCH   1  10
BRANCH   3  24
HETATM   24  N3  UNL     1      29.039   5.987  47.579  1.00  0.00    -0.185 N 
HETATM   25  H14 UNL     1      28.831   6.327  46.620  1.00  0.00     0.184 HD
BRANCH  24  26
HETATM   26  C12 UNL     1      30.342   5.708  48.066  1.00  0.00     0.085 A 
HETATM   27  C13 UNL     1      30.865   6.216  49.233  1.00  0.00     0.170 A 
HETATM   28  N4  UNL     1      32.101   5.668  49.282  1.00  0.00    -0.183 NA
HETATM   29  N5  UNL     1      32.295   4.892  48.217  1.00  0.00    -0.283 N 
HETATM   30  C14 UNL     1      33.528   4.167  48.015  1.00  0.00     0.179 C 
HETATM   31  C15 UNL     1      31.214   4.872  47.398  1.00  0.00     0.143 A 
ENDBRANCH  24  26
ENDBRANCH   3  24
TORSDOF 8
ENDMDL
MODEL 8
REMARK VINA RESULT:      -7.5      2.935      4.138
REMARK  8 active torsions:
REMARK  status: ('A' for Active; 'I' for Inactive)
REMARK    1  A    between atoms: C2_2  and  C3_3 
REMARK       I    between atoms: C3_3  and  N1_5 
REMARK    2  A    between atoms: C5_7  and  C6_8 
REMARK    3  A    between atoms: C6_8  and  C7_9 
REMARK    4  A    between atoms: C8_11  and  C9_12 
REMARK    5  A    between atoms: C9_12  and  O2_13 
REMARK    6  A    between atoms: O2_13  and  C10_14 
REMARK    7  A    between atoms: C11_16  and  N3_17 
REMARK    8  A    between atoms: N3_17  and  C12_18 
ROOT
HETATM    1  C10 UNL     1      24.093   6.274  50.422  1.00  0.00     0.195 A 
HETATM    2  N2  UNL     1      25.378   6.673  50.419  1.00  0.00    -0.037 NA
HETATM    3  C11 UNL     1      26.024   6.997  49.288  1.00  0.00     0.731 A 
HETATM    4  N6  UNL     1      25.336   6.908  48.127  1.00  0.00    -0.043 NA
HETATM    5  C16 UNL     1      24.055   6.513  48.083  1.00  0.00     0.172 A 
HETATM    6  C17 UNL     1      23.343   6.168  49.238  1.00  0.00     0.062 A 
HETATM    7  C18 UNL     1      22.084   5.881  48.497  1.00  0.00     0.192 A 
HETATM    8  N7  UNL     1      22.871   6.234  47.342  1.00  0.00    -0.268 N 
HETATM    9 CL1  UNL     1      22.443   6.279  45.682  1.00  0.00     0.015 Cl
ENDROOT
BRANCH   1  10
HETATM   10  O2  UNL     1      23.362   5.930  51.542  1.00  0.00    -0.333 OA
BRANCH  10  11
HETATM   11  C9  UNL     1      22.963   4.651  51.901  1.00  0.00     0.184 C 
BRANCH  11  12
HETATM   12  C8  UNL     1      24.001   3.606  51.812  1.00  0.00     0.034 C 
HETATM   13  C5  UNL     1      23.716   2.310  51.227  1.00  0.00     0.013 C 
HETATM   14  C4  UNL     1      23.794   1.353  52.427  1.00  0.00     0.131 C 
HETATM   15  N1  UNL     1      24.956   1.886  53.102  1.00  0.00    -0.348 N 
HETATM   16  C3  UNL     1      26.254   1.530  53.548  1.00  0.00     0.242 C 
HETATM   17  C19 UNL     1      24.345   3.186  53.260  1.00  0.00     0.133 C 
HETATM   18  O1  UNL     1      27.209   2.095  54.144  1.00  0.00    -0.268 OA
BRANCH  13  19
HETATM   19  C6  UNL     1      22.576   2.039  50.351  1.00  0.00     0.038 C 
BRANCH  19  20
HETATM   20  C7  UNL     1      22.709   2.382  48.899  1.00  0.00     0.222 C 
HETATM   21  F1  UNL     1      24.016   2.902  48.766  1.00  0.00    -0.255 F 
ENDBRANCH  19  20
ENDBRANCH  13  19
BRANCH  16  22
HETATM   22  C2  UNL     1      26.551   0.139  53.226  1.00  0.00     0.064 C 
HETATM   23  C1  UNL     1      27.157  -0.942  52.771  1.00  0.00     0.017 C 
ENDBRANCH  16  22
ENDBRANCH  11  12
ENDBRANCH  10  11
ENDBRANCH   1  10
BRANCH   3  24
HETATM   24  N3  UNL     1      27.350   7.395  49.528  1.00  0.00    -0.185 N 
HETATM   25  H14 UNL     1      27.962   6.611  49.823  1.00  0.00     0.184 HD
BRANCH  24  26
HETATM   26  C12 UNL     1      27.784   8.736  49.369  1.00  0.00     0.085 A 
HETATM   27  C13 UNL     1      26.959   9.836  49.422  1.00  0.00     0.170 A 
HETATM   28  N4  UNL     1      27.811  10.871  49.234  1.00  0.00    -0.183 NA
HETATM   29  N5  UNL     1      29.052  10.413  49.081  1.00  0.00    -0.283 N 
HETATM   30  C14 UNL     1      30.173  11.301  48.877  1.00  0.00     0.179 C 
HETATM   31  C15 UNL     1      29.109   9.059  49.154  1.00  0.00     0.143 A 
ENDBRANCH  24  26
ENDBRANCH   3  24
TORSDOF 8
ENDMDL
MODEL 9
REMARK VINA RESULT:      -7.5      4.484      8.121
REMARK  8 active torsions:
REMARK  status: ('A' for Active; 'I' for Inactive)
REMARK    1  A    between atoms: C2_2  and  C3_3 
REMARK       I    between atoms: C3_3  and  N1_5 
REMARK    2  A    between atoms: C5_7  and  C6_8 
REMARK    3  A    between atoms: C6_8  and  C7_9 
REMARK    4  A    between atoms: C8_11  and  C9_12 
REMARK    5  A    between atoms: C9_12  and  O2_13 
REMARK    6  A    between atoms: O2_13  and  C10_14 
REMARK    7  A    between atoms: C11_16  and  N3_17 
REMARK    8  A    between atoms: N3_17  and  C12_18 
ROOT
HETATM    1  C10 UNL     1      22.523   1.261  52.880  1.00  0.00     0.195 A 
HETATM    2  N2  UNL     1      23.541   0.632  53.497  1.00  0.00    -0.037 NA
HETATM    3  C11 UNL     1      23.382  -0.547  54.119  1.00  0.00     0.731 A 
HETATM    4  N6  UNL     1      22.147  -1.097  54.111  1.00  0.00    -0.043 NA
HETATM    5  C16 UNL     1      21.104  -0.506  53.510  1.00  0.00     0.172 A 
HETATM    6  C17 UNL     1      21.225   0.723  52.849  1.00  0.00     0.062 A 
HETATM    7  C18 UNL     1      19.796   0.755  52.435  1.00  0.00     0.192 A 
HETATM    8  N7  UNL     1      19.728  -0.500  53.141  1.00  0.00    -0.268 N 
HETATM    9 CL1  UNL     1      18.403  -1.558  53.396  1.00  0.00     0.015 Cl
ENDROOT
BRANCH   1  10
HETATM   10  O2  UNL     1      22.610   2.469  52.218  1.00  0.00    -0.333 OA
BRANCH  10  11
HETATM   11  C9  UNL     1      23.696   2.930  51.488  1.00  0.00     0.184 C 
BRANCH  11  12
HETATM   12  C8  UNL     1      23.520   2.958  50.023  1.00  0.00     0.034 C 
HETATM   13  C5  UNL     1      24.435   3.692  49.170  1.00  0.00     0.013 C 
HETATM   14  C4  UNL     1      23.574   4.843  48.630  1.00  0.00     0.131 C 
HETATM   15  N1  UNL     1      22.342   4.134  48.362  1.00  0.00    -0.348 N 
HETATM   16  C3  UNL     1      21.438   3.817  47.317  1.00  0.00     0.242 C 
HETATM   17  C19 UNL     1      22.207   3.722  49.739  1.00  0.00     0.133 C 
HETATM   18  O1  UNL     1      20.363   3.171  47.195  1.00  0.00    -0.268 OA
BRANCH  13  19
HETATM   19  C6  UNL     1      25.773   4.120  49.579  1.00  0.00     0.038 C 
BRANCH  19  20
HETATM   20  C7  UNL     1      26.270   5.443  49.085  1.00  0.00     0.222 C 
HETATM   21  F1  UNL     1      27.357   5.131  48.238  1.00  0.00    -0.255 F 
ENDBRANCH  19  20
ENDBRANCH  13  19
BRANCH  16  22
HETATM   22  C2  UNL     1      21.879   4.395  46.053  1.00  0.00     0.064 C 
HETATM   23  C1  UNL     1      21.949   5.163  44.980  1.00  0.00     0.017 C 
ENDBRANCH  16  22
ENDBRANCH  11  12
ENDBRANCH  10  11
ENDBRANCH   1  10
BRANCH   3  24
HETATM   24  N3  UNL     1      24.581  -1.018  54.680  1.00  0.00    -0.185 N 
HETATM   25  H14 UNL     1      24.430  -1.629  55.505  1.00  0.00     0.184 HD
BRANCH  24  26
HETATM   26  C12 UNL     1      25.854  -0.684  54.151  1.00  0.00     0.085 A 
HETATM   27  C13 UNL     1      26.353  -1.157  52.959  1.00  0.00     0.170 A 
HETATM   28  N4  UNL     1      27.566  -0.563  52.874  1.00  0.00    -0.183 NA
HETATM   29  N5  UNL     1      27.769   0.206  53.941  1.00  0.00    -0.283 N 
HETATM   30  C14 UNL     1      28.981   0.975  54.109  1.00  0.00     0.179 C 
HETATM   31  C15 UNL     1      26.718   0.176  54.799  1.00  0.00     0.143 A 
ENDBRANCH  24  26
ENDBRANCH   3  24
TORSDOF 8
ENDMDL
