MODEL 1
REMARK VINA RESULT:      -8.4      0.000      0.000
REMARK  6 active torsions:
REMARK  status: ('A' for Active; 'I' for Inactive)
REMARK    1  A    between atoms: N2_5  and  C4_6 
REMARK    2  A    between atoms: C4_6  and  C5_7 
REMARK    3  A    between atoms: C6_8  and  C7_9 
REMARK    4  A    between atoms: C7_9  and  N3_10 
REMARK    5  A    between atoms: C11_14  and  C12_15 
REMARK    6  A    between atoms: N6_27  and  N7_28 
ROOT
HETATM    1  N3  UNL     1      22.165   2.667  51.481  1.00  0.00    -0.274 N 
HETATM    2  C8  UNL     1      23.537   2.339  51.246  1.00  0.00     0.114 A 
HETATM    3  C9  UNL     1      24.174   1.391  51.922  1.00  0.00     0.037 A 
HETATM    4  C10 UNL     1      23.474   0.637  52.954  1.00  0.00     0.044 A 
HETATM    5  C11 UNL     1      24.171  -0.323  53.652  1.00  0.00     0.082 A 
HETATM    6  N4  UNL     1      23.459  -0.951  54.603  1.00  0.00    -0.240 NA
HETATM    7  C18 UNL     1      22.173  -0.670  54.854  1.00  0.00     0.236 A 
HETATM    8  N5  UNL     1      21.501   0.267  54.166  1.00  0.00    -0.221 NA
HETATM    9  C19 UNL     1      22.152   0.945  53.188  1.00  0.00     0.175 A 
HETATM   10  N6  UNL     1      21.444   1.956  52.475  1.00  0.00    -0.199 N 
ENDROOT
BRANCH   1  11
HETATM   11  C7  UNL     1      21.385   3.688  50.818  1.00  0.00     0.243 C 
BRANCH  11  12
HETATM   12  C6  UNL     1      22.251   4.798  50.485  1.00  0.00    -0.083 C 
HETATM   13  C5  UNL     1      22.972   5.736  50.185  1.00  0.00    -0.074 C 
BRANCH  13  14
HETATM   14  C4  UNL     1      23.845   6.855  49.804  1.00  0.00     0.368 C 
BRANCH  14  15
HETATM   15  N2  UNL     1      25.204   6.631  50.219  1.00  0.00     0.129 N 
HETATM   16  C3  UNL     1      26.111   7.709  50.029  1.00  0.00     0.306 C 
HETATM   17  C2  UNL     1      26.996   7.286  48.898  1.00  0.00     0.304 C 
HETATM   18  N1  UNL     1      26.684   5.906  48.604  1.00  0.00     0.114 N 
HETATM   19  C1  UNL     1      27.924   5.170  48.546  1.00  0.00     0.312 C 
HETATM   20  C20 UNL     1      25.810   5.453  49.656  1.00  0.00     0.543 C 
ENDBRANCH  14  15
ENDBRANCH  13  14
ENDBRANCH  11  12
ENDBRANCH   1  11
BRANCH  10  21
HETATM   21  N7  UNL     1      20.097   2.225  52.755  1.00  0.00    -0.226 NA
HETATM   22  H18 UNL     1      19.940   2.015  53.774  1.00  0.00     0.145 HD
HETATM   23  H19 UNL     1      20.001   3.281  52.702  1.00  0.00     0.145 HD
ENDBRANCH  10  21
BRANCH   5  24
HETATM   24  C12 UNL     1      25.563  -0.690  53.443  1.00  0.00    -0.005 A 
HETATM   25  C13 UNL     1      26.080  -1.787  52.788  1.00  0.00     0.017 A 
HETATM   26  C14 UNL     1      27.452  -1.932  52.641  1.00  0.00     0.044 A 
HETATM   27  C15 UNL     1      28.344  -0.981  53.141  1.00  0.00     0.133 A 
HETATM   28  F1  UNL     1      29.660  -1.194  52.960  1.00  0.00    -0.205 F 
HETATM   29  C16 UNL     1      27.863   0.147  53.811  1.00  0.00     0.050 A 
HETATM   30 BR1  UNL     1      29.107   1.402  54.461  1.00  0.00    -0.048 Br
HETATM   31  C17 UNL     1      26.504   0.229  53.925  1.00  0.00     0.036 A 
ENDBRANCH   5  24
TORSDOF 6
ENDMDL
MODEL 2
REMARK VINA RESULT:      -8.0      3.611      6.878
REMARK  6 active torsions:
REMARK  status: ('A' for Active; 'I' for Inactive)
REMARK    1  A    between atoms: N2_5  and  C4_6 
REMARK    2  A    between atoms: C4_6  and  C5_7 
REMARK    3  A    between atoms: C6_8  and  C7_9 
REMARK    4  A    between atoms: C7_9  and  N3_10 
REMARK    5  A    between atoms: C11_14  and  C12_15 
REMARK    6  A    between atoms: N6_27  and  N7_28 
ROOT
HETATM    1  N3  UNL     1      22.027  -0.784  53.885  1.00  0.00    -0.274 N 
HETATM    2  C8  UNL     1      22.097   0.146  52.800  1.00  0.00     0.114 A 
HETATM    3  C9  UNL     1      23.216   0.780  52.471  1.00  0.00     0.037 A 
HETATM    4  C10 UNL     1      24.437   0.544  53.229  1.00  0.00     0.044 A 
HETATM    5  C11 UNL     1      25.574   1.236  52.876  1.00  0.00     0.082 A 
HETATM    6  N4  UNL     1      26.647   0.979  53.642  1.00  0.00    -0.240 NA
HETATM    7  C18 UNL     1      26.619   0.117  54.669  1.00  0.00     0.236 A 
HETATM    8  N5  UNL     1      25.506  -0.555  55.004  1.00  0.00    -0.221 NA
HETATM    9  C19 UNL     1      24.380  -0.350  54.276  1.00  0.00     0.175 A 
HETATM   10  N6  UNL     1      23.193  -1.046  54.648  1.00  0.00    -0.199 N 
ENDROOT
BRANCH   1  11
HETATM   11  C7  UNL     1      20.862  -1.511  54.337  1.00  0.00     0.243 C 
BRANCH  11  12
HETATM   12  C6  UNL     1      19.715  -1.092  53.561  1.00  0.00    -0.083 C 
HETATM   13  C5  UNL     1      18.736  -0.743  52.922  1.00  0.00    -0.074 C 
BRANCH  13  14
HETATM   14  C4  UNL     1      17.545  -0.340  52.161  1.00  0.00     0.368 C 
BRANCH  14  15
HETATM   15  N2  UNL     1      17.852  -0.127  50.773  1.00  0.00     0.129 N 
HETATM   16  C3  UNL     1      18.931   0.754  50.490  1.00  0.00     0.306 C 
HETATM   17  C2  UNL     1      18.296   1.995  49.943  1.00  0.00     0.304 C 
HETATM   18  N1  UNL     1      16.890   1.710  49.759  1.00  0.00     0.114 N 
HETATM   19  C1  UNL     1      16.522   2.123  48.426  1.00  0.00     0.312 C 
HETATM   20  C20 UNL     1      16.730   0.295  49.975  1.00  0.00     0.543 C 
ENDBRANCH  14  15
ENDBRANCH  13  14
ENDBRANCH  11  12
ENDBRANCH   1  11
BRANCH  10  21
HETATM   21  N7  UNL     1      23.195  -1.946  55.723  1.00  0.00    -0.226 NA
HETATM   22  H18 UNL     1      22.824  -2.864  55.367  1.00  0.00     0.145 HD
HETATM   23  H19 UNL     1      24.218  -2.152  55.920  1.00  0.00     0.145 HD
ENDBRANCH  10  21
BRANCH   5  24
HETATM   24  C12 UNL     1      25.690   2.184  51.779  1.00  0.00    -0.005 A 
HETATM   25  C13 UNL     1      26.538   2.152  50.694  1.00  0.00     0.017 A 
HETATM   26  C14 UNL     1      26.456   3.130  49.712  1.00  0.00     0.044 A 
HETATM   27  C15 UNL     1      25.520   4.164  49.789  1.00  0.00     0.133 A 
HETATM   28  F1  UNL     1      25.504   5.075  48.799  1.00  0.00    -0.205 F 
HETATM   29  C16 UNL     1      24.640   4.234  50.872  1.00  0.00     0.050 A 
HETATM   30 BR1  UNL     1      23.393   5.644  50.925  1.00  0.00    -0.048 Br
HETATM   31  C17 UNL     1      24.774   3.244  51.804  1.00  0.00     0.036 A 
ENDBRANCH   5  24
TORSDOF 6
ENDMDL
MODEL 3
REMARK VINA RESULT:      -8.0      3.445      7.632
REMARK  6 active torsions:
REMARK  status: ('A' for Active; 'I' for Inactive)
REMARK    1  A    between atoms: N2_5  and  C4_6 
REMARK    2  A    between atoms: C4_6  and  C5_7 
REMARK    3  A    between atoms: C6_8  and  C7_9 
REMARK    4  A    between atoms: C7_9  and  N3_10 
REMARK    5  A    between atoms: C11_14  and  C12_15 
REMARK    6  A    between atoms: N6_27  and  N7_28 
ROOT
HETATM    1  N3  UNL     1      24.003   3.417  49.930  1.00  0.00    -0.274 N 
HETATM    2  C8  UNL     1      25.430   3.413  50.033  1.00  0.00     0.114 A 
HETATM    3  C9  UNL     1      26.188   4.384  49.539  1.00  0.00     0.037 A 
HETATM    4  C10 UNL     1      25.570   5.513  48.856  1.00  0.00     0.044 A 
HETATM    5  C11 UNL     1      26.386   6.493  48.335  1.00  0.00     0.082 A 
HETATM    6  N4  UNL     1      25.737   7.482  47.699  1.00  0.00    -0.240 NA
HETATM    7  C18 UNL     1      24.402   7.519  47.580  1.00  0.00     0.236 A 
HETATM    8  N5  UNL     1      23.615   6.560  48.094  1.00  0.00    -0.221 NA
HETATM    9  C19 UNL     1      24.196   5.527  48.752  1.00  0.00     0.175 A 
HETATM   10  N6  UNL     1      23.360   4.498  49.276  1.00  0.00    -0.199 N 
ENDROOT
BRANCH   1  11
HETATM   11  C7  UNL     1      23.091   2.405  50.415  1.00  0.00     0.243 C 
BRANCH  11  12
HETATM   12  C6  UNL     1      23.740   1.649  51.463  1.00  0.00    -0.083 C 
HETATM   13  C5  UNL     1      24.284   0.993  52.336  1.00  0.00    -0.074 C 
BRANCH  13  14
HETATM   14  C4  UNL     1      24.924   0.188  53.386  1.00  0.00     0.368 C 
BRANCH  14  15
HETATM   15  N2  UNL     1      25.957   0.925  54.062  1.00  0.00     0.129 N 
HETATM   16  C3  UNL     1      26.394   2.124  53.436  1.00  0.00     0.306 C 
HETATM   17  C2  UNL     1      27.760   1.818  52.905  1.00  0.00     0.304 C 
HETATM   18  N1  UNL     1      28.133   0.515  53.409  1.00  0.00     0.114 N 
HETATM   19  C1  UNL     1      29.455   0.617  53.977  1.00  0.00     0.312 C 
HETATM   20  C20 UNL     1      27.130   0.151  54.377  1.00  0.00     0.543 C 
ENDBRANCH  14  15
ENDBRANCH  13  14
ENDBRANCH  11  12
ENDBRANCH   1  11
BRANCH  10  21
HETATM   21  N7  UNL     1      21.967   4.566  49.141  1.00  0.00    -0.226 NA
HETATM   22  H18 UNL     1      21.571   4.829  50.080  1.00  0.00     0.145 HD
HETATM   23  H19 UNL     1      21.780   5.425  48.545  1.00  0.00     0.145 HD
ENDBRANCH  10  21
BRANCH   5  24
HETATM   24  C12 UNL     1      27.837   6.530  48.421  1.00  0.00    -0.005 A 
HETATM   25  C13 UNL     1      28.743   5.512  48.215  1.00  0.00     0.017 A 
HETATM   26  C14 UNL     1      30.106   5.763  48.286  1.00  0.00     0.044 A 
HETATM   27  C15 UNL     1      30.600   7.040  48.562  1.00  0.00     0.133 A 
HETATM   28  F1  UNL     1      31.934   7.203  48.616  1.00  0.00    -0.205 F 
HETATM   29  C16 UNL     1      29.716   8.102  48.777  1.00  0.00     0.050 A 
HETATM   30 BR1  UNL     1      30.432   9.805  49.138  1.00  0.00    -0.048 Br
HETATM   31  C17 UNL     1      28.389   7.788  48.695  1.00  0.00     0.036 A 
ENDBRANCH   5  24
TORSDOF 6
ENDMDL
MODEL 4
REMARK VINA RESULT:      -7.9      2.056      2.856
REMARK  6 active torsions:
REMARK  status: ('A' for Active; 'I' for Inactive)
REMARK    1  A    between atoms: N2_5  and  C4_6 
REMARK    2  A    between atoms: C4_6  and  C5_7 
REMARK    3  A    between atoms: C6_8  and  C7_9 
REMARK    4  A    between atoms: C7_9  and  N3_10 
REMARK    5  A    between atoms: C11_14  and  C12_15 
REMARK    6  A    between atoms: N6_27  and  N7_28 
ROOT
HETATM    1  N3  UNL     1      24.043   3.906  49.520  1.00  0.00    -0.274 N 
HETATM    2  C8  UNL     1      25.420   3.666  49.824  1.00  0.00     0.114 A 
HETATM    3  C9  UNL     1      25.809   2.830  50.779  1.00  0.00     0.037 A 
HETATM    4  C10 UNL     1      24.816   2.116  51.570  1.00  0.00     0.044 A 
HETATM    5  C11 UNL     1      25.252   1.274  52.568  1.00  0.00     0.082 A 
HETATM    6  N4  UNL     1      24.271   0.676  53.266  1.00  0.00    -0.240 NA
HETATM    7  C18 UNL     1      22.970   0.879  53.012  1.00  0.00     0.236 A 
HETATM    8  N5  UNL     1      22.555   1.700  52.035  1.00  0.00    -0.221 NA
HETATM    9  C19 UNL     1      23.486   2.340  51.285  1.00  0.00     0.175 A 
HETATM   10  N6  UNL     1      23.043   3.230  50.263  1.00  0.00    -0.199 N 
ENDROOT
BRANCH   1  11
HETATM   11  C7  UNL     1      23.515   4.805  48.518  1.00  0.00     0.243 C 
BRANCH  11  12
HETATM   12  C6  UNL     1      24.296   6.022  48.519  1.00  0.00    -0.083 C 
HETATM   13  C5  UNL     1      24.972   7.038  48.512  1.00  0.00    -0.074 C 
BRANCH  13  14
HETATM   14  C4  UNL     1      25.803   8.250  48.514  1.00  0.00     0.368 C 
BRANCH  14  15
HETATM   15  N2  UNL     1      26.958   8.098  49.356  1.00  0.00     0.129 N 
HETATM   16  C3  UNL     1      27.374   9.251  50.076  1.00  0.00     0.306 C 
HETATM   17  C2  UNL     1      28.636   9.701  49.408  1.00  0.00     0.304 C 
HETATM   18  N1  UNL     1      28.998   8.683  48.448  1.00  0.00     0.114 N 
HETATM   19  C1  UNL     1      30.389   8.354  48.648  1.00  0.00     0.312 C 
HETATM   20  C20 UNL     1      28.116   7.568  48.685  1.00  0.00     0.543 C 
ENDBRANCH  14  15
ENDBRANCH  13  14
ENDBRANCH  11  12
ENDBRANCH   1  11
BRANCH  10  21
HETATM   21  N7  UNL     1      21.676   3.417  50.017  1.00  0.00    -0.226 NA
HETATM   22  H18 UNL     1      21.170   2.573  50.389  1.00  0.00     0.145 HD
HETATM   23  H19 UNL     1      21.373   4.196  50.673  1.00  0.00     0.145 HD
ENDBRANCH  10  21
BRANCH   5  24
HETATM   24  C12 UNL     1      26.639   0.998  52.907  1.00  0.00    -0.005 A 
HETATM   25  C13 UNL     1      27.615   1.870  53.338  1.00  0.00     0.017 A 
HETATM   26  C14 UNL     1      28.878   1.399  53.671  1.00  0.00     0.044 A 
HETATM   27  C15 UNL     1      29.196   0.041  53.585  1.00  0.00     0.133 A 
HETATM   28  F1  UNL     1      30.442  -0.337  53.923  1.00  0.00    -0.205 F 
HETATM   29  C16 UNL     1      28.236  -0.878  53.153  1.00  0.00     0.050 A 
HETATM   30 BR1  UNL     1      28.714  -2.697  53.061  1.00  0.00    -0.048 Br
HETATM   31  C17 UNL     1      27.016  -0.350  52.839  1.00  0.00     0.036 A 
ENDBRANCH   5  24
TORSDOF 6
ENDMDL
MODEL 5
REMARK VINA RESULT:      -7.9      3.896      7.920
REMARK  6 active torsions:
REMARK  status: ('A' for Active; 'I' for Inactive)
REMARK    1  A    between atoms: N2_5  and  C4_6 
REMARK    2  A    between atoms: C4_6  and  C5_7 
REMARK    3  A    between atoms: C6_8  and  C7_9 
REMARK    4  A    between atoms: C7_9  and  N3_10 
REMARK    5  A    between atoms: C11_14  and  C12_15 
REMARK    6  A    between atoms: N6_27  and  N7_28 
ROOT
HETATM    1  N3  UNL     1      23.126  -0.204  53.824  1.00  0.00    -0.274 N 
HETATM    2  C8  UNL     1      22.424   0.673  52.939  1.00  0.00     0.114 A 
HETATM    3  C9  UNL     1      23.044   1.528  52.135  1.00  0.00     0.037 A 
HETATM    4  C10 UNL     1      24.499   1.600  52.132  1.00  0.00     0.044 A 
HETATM    5  C11 UNL     1      25.111   2.513  51.303  1.00  0.00     0.082 A 
HETATM    6  N4  UNL     1      26.452   2.533  51.383  1.00  0.00    -0.240 NA
HETATM    7  C18 UNL     1      27.144   1.729  52.202  1.00  0.00     0.236 A 
HETATM    8  N5  UNL     1      26.539   0.839  53.005  1.00  0.00    -0.221 NA
HETATM    9  C19 UNL     1      25.185   0.759  52.982  1.00  0.00     0.175 A 
HETATM   10  N6  UNL     1      24.543  -0.169  53.853  1.00  0.00    -0.199 N 
ENDROOT
BRANCH   1  11
HETATM   11  C7  UNL     1      22.550  -1.155  54.749  1.00  0.00     0.243 C 
BRANCH  11  12
HETATM   12  C6  UNL     1      21.191  -1.441  54.345  1.00  0.00    -0.083 C 
HETATM   13  C5  UNL     1      20.046  -1.667  53.990  1.00  0.00    -0.074 C 
BRANCH  13  14
HETATM   14  C4  UNL     1      18.662  -1.917  53.563  1.00  0.00     0.368 C 
BRANCH  14  15
HETATM   15  N2  UNL     1      18.007  -0.703  53.155  1.00  0.00     0.129 N 
HETATM   16  C3  UNL     1      16.641  -0.816  52.780  1.00  0.00     0.306 C 
HETATM   17  C2  UNL     1      16.623  -0.643  51.293  1.00  0.00     0.304 C 
HETATM   18  N1  UNL     1      17.956  -0.253  50.892  1.00  0.00     0.114 N 
HETATM   19  C1  UNL     1      17.844   0.904  50.036  1.00  0.00     0.312 C 
HETATM   20  C20 UNL     1      18.684   0.013  52.106  1.00  0.00     0.543 C 
ENDBRANCH  14  15
ENDBRANCH  13  14
ENDBRANCH  11  12
ENDBRANCH   1  11
BRANCH  10  21
HETATM   21  N7  UNL     1      25.294  -1.002  54.694  1.00  0.00    -0.226 NA
HETATM   22  H18 UNL     1      24.621  -1.651  55.178  1.00  0.00     0.145 HD
HETATM   23  H19 UNL     1      25.836  -1.647  54.046  1.00  0.00     0.145 HD
ENDBRANCH  10  21
BRANCH   5  24
HETATM   24  C12 UNL     1      24.437   3.419  50.386  1.00  0.00    -0.005 A 
HETATM   25  C13 UNL     1      23.781   3.130  49.210  1.00  0.00     0.017 A 
HETATM   26  C14 UNL     1      23.142   4.136  48.498  1.00  0.00     0.044 A 
HETATM   27  C15 UNL     1      23.140   5.459  48.948  1.00  0.00     0.133 A 
HETATM   28  F1  UNL     1      22.501   6.377  48.201  1.00  0.00    -0.205 F 
HETATM   29  C16 UNL     1      23.793   5.797  50.136  1.00  0.00     0.050 A 
HETATM   30 BR1  UNL     1      23.755   7.592  50.701  1.00  0.00    -0.048 Br
HETATM   31  C17 UNL     1      24.403   4.762  50.787  1.00  0.00     0.036 A 
ENDBRANCH   5  24
TORSDOF 6
ENDMDL
MODEL 6
REMARK VINA RESULT:      -7.9      2.723      4.474
REMARK  6 active torsions:
REMARK  status: ('A' for Active; 'I' for Inactive)
REMARK    1  A    between atoms: N2_5  and  C4_6 
REMARK    2  A    between atoms: C4_6  and  C5_7 
REMARK    3  A    between atoms: C6_8  and  C7_9 
REMARK    4  A    between atoms: C7_9  and  N3_10 
REMARK    5  A    between atoms: C11_14  and  C12_15 
REMARK    6  A    between atoms: N6_27  and  N7_28 
ROOT
HETATM    1  N3  UNL     1      25.825   4.946  49.453  1.00  0.00    -0.274 N 
HETATM    2  C8  UNL     1      26.737   3.874  49.706  1.00  0.00     0.114 A 
HETATM    3  C9  UNL     1      26.471   2.891  50.558  1.00  0.00     0.037 A 
HETATM    4  C10 UNL     1      25.206   2.878  51.281  1.00  0.00     0.044 A 
HETATM    5  C11 UNL     1      24.971   1.856  52.174  1.00  0.00     0.082 A 
HETATM    6  N4  UNL     1      23.794   1.935  52.817  1.00  0.00    -0.240 NA
HETATM    7  C18 UNL     1      22.915   2.925  52.609  1.00  0.00     0.236 A 
HETATM    8  N5  UNL     1      23.152   3.916  51.734  1.00  0.00    -0.221 NA
HETATM    9  C19 UNL     1      24.320   3.906  51.044  1.00  0.00     0.175 A 
HETATM   10  N6  UNL     1      24.581   4.971  50.134  1.00  0.00    -0.199 N 
ENDROOT
BRANCH   1  11
HETATM   11  C7  UNL     1      26.023   6.070  48.565  1.00  0.00     0.243 C 
BRANCH  11  12
HETATM   12  C6  UNL     1      27.434   6.196  48.274  1.00  0.00    -0.083 C 
HETATM   13  C5  UNL     1      28.624   6.323  48.034  1.00  0.00    -0.074 C 
BRANCH  13  14
HETATM   14  C4  UNL     1      30.053   6.496  47.734  1.00  0.00     0.368 C 
BRANCH  14  15
HETATM   15  N2  UNL     1      30.859   5.530  48.430  1.00  0.00     0.129 N 
HETATM   16  C3  UNL     1      31.699   6.031  49.462  1.00  0.00     0.306 C 
HETATM   17  C2  UNL     1      33.090   5.943  48.916  1.00  0.00     0.304 C 
HETATM   18  N1  UNL     1      33.015   5.222  47.666  1.00  0.00     0.114 N 
HETATM   19  C1  UNL     1      34.017   4.184  47.687  1.00  0.00     0.312 C 
HETATM   20  C20 UNL     1      31.672   4.707  47.573  1.00  0.00     0.543 C 
ENDBRANCH  14  15
ENDBRANCH  13  14
ENDBRANCH  11  12
ENDBRANCH   1  11
BRANCH  10  21
HETATM   21  N7  UNL     1      23.640   5.991  49.932  1.00  0.00    -0.226 NA
HETATM   22  H18 UNL     1      24.161   6.838  49.589  1.00  0.00     0.145 HD
HETATM   23  H19 UNL     1      23.073   5.690  49.085  1.00  0.00     0.145 HD
ENDBRANCH  10  21
BRANCH   5  24
HETATM   24  C12 UNL     1      25.867   0.747  52.458  1.00  0.00    -0.005 A 
HETATM   25  C13 UNL     1      25.699  -0.594  52.186  1.00  0.00     0.017 A 
HETATM   26  C14 UNL     1      26.706  -1.501  52.484  1.00  0.00     0.044 A 
HETATM   27  C15 UNL     1      27.911  -1.090  53.059  1.00  0.00     0.133 A 
HETATM   28  F1  UNL     1      28.837  -2.030  53.320  1.00  0.00    -0.205 F 
HETATM   29  C16 UNL     1      28.125   0.260  53.350  1.00  0.00     0.050 A 
HETATM   30 BR1  UNL     1      29.769   0.762  54.118  1.00  0.00    -0.048 Br
HETATM   31  C17 UNL     1      27.095   1.100  53.035  1.00  0.00     0.036 A 
ENDBRANCH   5  24
TORSDOF 6
ENDMDL
MODEL 7
REMARK VINA RESULT:      -7.9      4.823      7.817
REMARK  6 active torsions:
REMARK  status: ('A' for Active; 'I' for Inactive)
REMARK    1  A    between atoms: N2_5  and  C4_6 
REMARK    2  A    between atoms: C4_6  and  C5_7 
REMARK    3  A    between atoms: C6_8  and  C7_9 
REMARK    4  A    between atoms: C7_9  and  N3_10 
REMARK    5  A    between atoms: C11_14  and  C12_15 
REMARK    6  A    between atoms: N6_27  and  N7_28 
ROOT
HETATM    1  N3  UNL     1      18.551  -0.439  52.223  1.00  0.00    -0.274 N 
HETATM    2  C8  UNL     1      19.394   0.427  51.458  1.00  0.00     0.114 A 
HETATM    3  C9  UNL     1      20.681   0.601  51.731  1.00  0.00     0.037 A 
HETATM    4  C10 UNL     1      21.288  -0.104  52.852  1.00  0.00     0.044 A 
HETATM    5  C11 UNL     1      22.620   0.117  53.123  1.00  0.00     0.082 A 
HETATM    6  N4  UNL     1      23.093  -0.551  54.189  1.00  0.00    -0.240 NA
HETATM    7  C18 UNL     1      22.334  -1.369  54.931  1.00  0.00     0.236 A 
HETATM    8  N5  UNL     1      21.036  -1.579  54.658  1.00  0.00    -0.221 NA
HETATM    9  C19 UNL     1      20.485  -0.941  53.596  1.00  0.00     0.175 A 
HETATM   10  N6  UNL     1      19.101  -1.147  53.321  1.00  0.00    -0.199 N 
ENDROOT
BRANCH   1  11
HETATM   11  C7  UNL     1      17.140  -0.684  52.022  1.00  0.00     0.243 C 
BRANCH  11  12
HETATM   12  C6  UNL     1      16.454   0.584  51.902  1.00  0.00    -0.083 C 
HETATM   13  C5  UNL     1      15.885   1.657  51.783  1.00  0.00    -0.074 C 
BRANCH  13  14
HETATM   14  C4  UNL     1      15.219   2.958  51.632  1.00  0.00     0.368 C 
BRANCH  14  15
HETATM   15  N2  UNL     1      13.802   2.855  51.854  1.00  0.00     0.129 N 
HETATM   16  C3  UNL     1      13.014   3.968  51.452  1.00  0.00     0.306 C 
HETATM   17  C2  UNL     1      12.582   4.628  52.725  1.00  0.00     0.304 C 
HETATM   18  N1  UNL     1      12.982   3.763  53.812  1.00  0.00     0.114 N 
HETATM   19  C1  UNL     1      11.844   3.580  54.679  1.00  0.00     0.312 C 
HETATM   20  C20 UNL     1      13.436   2.535  53.209  1.00  0.00     0.543 C 
ENDBRANCH  14  15
ENDBRANCH  13  14
ENDBRANCH  11  12
ENDBRANCH   1  11
BRANCH  10  21
HETATM   21  N7  UNL     1      18.333  -2.013  54.112  1.00  0.00    -0.226 NA
HETATM   22  H18 UNL     1      18.988  -2.722  54.530  1.00  0.00     0.145 HD
HETATM   23  H19 UNL     1      18.026  -1.436  54.949  1.00  0.00     0.145 HD
ENDBRANCH  10  21
BRANCH   5  24
HETATM   24  C12 UNL     1      23.512   0.983  52.369  1.00  0.00    -0.005 A 
HETATM   25  C13 UNL     1      23.234   1.769  51.272  1.00  0.00     0.017 A 
HETATM   26  C14 UNL     1      24.218   2.581  50.724  1.00  0.00     0.044 A 
HETATM   27  C15 UNL     1      25.506   2.631  51.262  1.00  0.00     0.133 A 
HETATM   28  F1  UNL     1      26.404   3.440  50.674  1.00  0.00    -0.205 F 
HETATM   29  C16 UNL     1      25.832   1.851  52.376  1.00  0.00     0.050 A 
HETATM   30 BR1  UNL     1      27.580   1.959  53.066  1.00  0.00    -0.048 Br
HETATM   31  C17 UNL     1      24.821   1.073  52.865  1.00  0.00     0.036 A 
ENDBRANCH   5  24
TORSDOF 6
ENDMDL
MODEL 8
REMARK VINA RESULT:      -7.9      4.348      9.171
REMARK  6 active torsions:
REMARK  status: ('A' for Active; 'I' for Inactive)
REMARK    1  A    between atoms: N2_5  and  C4_6 
REMARK    2  A    between atoms: C4_6  and  C5_7 
REMARK    3  A    between atoms: C6_8  and  C7_9 
REMARK    4  A    between atoms: C7_9  and  N3_10 
REMARK    5  A    between atoms: C11_14  and  C12_15 
REMARK    6  A    between atoms: N6_27  and  N7_28 
ROOT
HETATM    1  N3  UNL     1      26.808   5.803  48.892  1.00  0.00    -0.274 N 
HETATM    2  C8  UNL     1      27.833   4.857  48.576  1.00  0.00     0.114 A 
HETATM    3  C9  UNL     1      29.065   5.219  48.242  1.00  0.00     0.037 A 
HETATM    4  C10 UNL     1      29.418   6.631  48.184  1.00  0.00     0.044 A 
HETATM    5  C11 UNL     1      30.699   6.973  47.811  1.00  0.00     0.082 A 
HETATM    6  N4  UNL     1      30.932   8.296  47.757  1.00  0.00    -0.240 NA
HETATM    7  C18 UNL     1      29.997   9.212  48.043  1.00  0.00     0.236 A 
HETATM    8  N5  UNL     1      28.751   8.868  48.407  1.00  0.00    -0.221 NA
HETATM    9  C19 UNL     1      28.438   7.551  48.486  1.00  0.00     0.175 A 
HETATM   10  N6  UNL     1      27.108   7.188  48.850  1.00  0.00    -0.199 N 
ENDROOT
BRANCH   1  11
HETATM   11  C7  UNL     1      25.436   5.517  49.249  1.00  0.00     0.243 C 
BRANCH  11  12
HETATM   12  C6  UNL     1      25.404   4.347  50.098  1.00  0.00    -0.083 C 
HETATM   13  C5  UNL     1      25.379   3.372  50.831  1.00  0.00    -0.074 C 
BRANCH  13  14
HETATM   14  C4  UNL     1      25.365   2.206  51.726  1.00  0.00     0.368 C 
BRANCH  14  15
HETATM   15  N2  UNL     1      26.637   1.536  51.741  1.00  0.00     0.129 N 
HETATM   16  C3  UNL     1      26.610   0.128  51.936  1.00  0.00     0.306 C 
HETATM   17  C2  UNL     1      27.130  -0.088  53.324  1.00  0.00     0.304 C 
HETATM   18  N1  UNL     1      27.611   1.187  53.804  1.00  0.00     0.114 N 
HETATM   19  C1  UNL     1      28.937   0.992  54.339  1.00  0.00     0.312 C 
HETATM   20  C20 UNL     1      27.585   2.083  52.676  1.00  0.00     0.543 C 
ENDBRANCH  14  15
ENDBRANCH  13  14
ENDBRANCH  11  12
ENDBRANCH   1  11
BRANCH  10  21
HETATM   21  N7  UNL     1      26.152   8.169  49.150  1.00  0.00    -0.226 NA
HETATM   22  H18 UNL     1      25.353   8.046  48.477  1.00  0.00     0.145 HD
HETATM   23  H19 UNL     1      25.735   7.883  50.084  1.00  0.00     0.145 HD
ENDBRANCH  10  21
BRANCH   5  24
HETATM   24  C12 UNL     1      31.771   6.045  47.487  1.00  0.00    -0.005 A 
HETATM   25  C13 UNL     1      32.491   5.226  48.329  1.00  0.00     0.017 A 
HETATM   26  C14 UNL     1      33.444   4.358  47.815  1.00  0.00     0.044 A 
HETATM   27  C15 UNL     1      33.700   4.284  46.444  1.00  0.00     0.133 A 
HETATM   28  F1  UNL     1      34.641   3.420  46.024  1.00  0.00    -0.205 F 
HETATM   29  C16 UNL     1      32.992   5.096  45.553  1.00  0.00     0.050 A 
HETATM   30 BR1  UNL     1      33.369   4.953  43.715  1.00  0.00    -0.048 Br
HETATM   31  C17 UNL     1      32.071   5.929  46.123  1.00  0.00     0.036 A 
ENDBRANCH   5  24
TORSDOF 6
ENDMDL
MODEL 9
REMARK VINA RESULT:      -7.8      4.127      7.343
REMARK  6 active torsions:
REMARK  status: ('A' for Active; 'I' for Inactive)
REMARK    1  A    between atoms: N2_5  and  C4_6 
REMARK    2  A    between atoms: C4_6  and  C5_7 
REMARK    3  A    between atoms: C6_8  and  C7_9 
REMARK    4  A    between atoms: C7_9  and  N3_10 
REMARK    5  A    between atoms: C11_14  and  C12_15 
REMARK    6  A    between atoms: N6_27  and  N7_28 
ROOT
HETATM    1  N3  UNL     1      27.420   6.107  48.389  1.00  0.00    -0.274 N 
HETATM    2  C8  UNL     1      27.266   4.752  48.821  1.00  0.00     0.114 A 
HETATM    3  C9  UNL     1      26.293   4.366  49.636  1.00  0.00     0.037 A 
HETATM    4  C10 UNL     1      25.328   5.338  50.130  1.00  0.00     0.044 A 
HETATM    5  C11 UNL     1      24.345   4.908  50.993  1.00  0.00     0.082 A 
HETATM    6  N4  UNL     1      23.514   5.874  51.422  1.00  0.00    -0.240 NA
HETATM    7  C18 UNL     1      23.628   7.154  51.041  1.00  0.00     0.236 A 
HETATM    8  N5  UNL     1      24.589   7.563  50.197  1.00  0.00    -0.221 NA
HETATM    9  C19 UNL     1      25.467   6.646  49.720  1.00  0.00     0.175 A 
HETATM   10  N6  UNL     1      26.501   7.087  48.843  1.00  0.00    -0.199 N 
ENDROOT
BRANCH   1  11
HETATM   11  C7  UNL     1      28.450   6.635  47.522  1.00  0.00     0.243 C 
BRANCH  11  12
HETATM   12  C6  UNL     1      29.736   6.146  47.967  1.00  0.00    -0.083 C 
HETATM   13  C5  UNL     1      30.815   5.714  48.341  1.00  0.00    -0.074 C 
BRANCH  13  14
HETATM   14  C4  UNL     1      32.103   5.179  48.803  1.00  0.00     0.368 C 
BRANCH  14  15
HETATM   15  N2  UNL     1      33.182   5.580  47.940  1.00  0.00     0.129 N 
HETATM   16  C3  UNL     1      34.445   4.974  48.182  1.00  0.00     0.306 C 
HETATM   17  C2  UNL     1      35.292   6.052  48.783  1.00  0.00     0.304 C 
HETATM   18  N1  UNL     1      34.543   7.285  48.692  1.00  0.00     0.114 N 
HETATM   19  C1  UNL     1      35.406   8.292  48.122  1.00  0.00     0.312 C 
HETATM   20  C20 UNL     1      33.392   7.002  47.874  1.00  0.00     0.543 C 
ENDBRANCH  14  15
ENDBRANCH  13  14
ENDBRANCH  11  12
ENDBRANCH   1  11
BRANCH  10  21
HETATM   21  N7  UNL     1      26.593   8.431  48.458  1.00  0.00    -0.226 NA
HETATM   22  H18 UNL     1      27.225   8.914  49.146  1.00  0.00     0.145 HD
HETATM   23  H19 UNL     1      27.159   8.432  47.559  1.00  0.00     0.145 HD
ENDBRANCH  10  21
BRANCH   5  24
HETATM   24  C12 UNL     1      24.150   3.543  51.453  1.00  0.00    -0.005 A 
HETATM   25  C13 UNL     1      24.821   2.858  52.443  1.00  0.00     0.017 A 
HETATM   26  C14 UNL     1      24.444   1.566  52.780  1.00  0.00     0.044 A 
HETATM   27  C15 UNL     1      23.383   0.924  52.137  1.00  0.00     0.133 A 
HETATM   28  F1  UNL     1      23.080  -0.330  52.519  1.00  0.00    -0.205 F 
HETATM   29  C16 UNL     1      22.674   1.581  51.128  1.00  0.00     0.050 A 
HETATM   30 BR1  UNL     1      21.248   0.675  50.298  1.00  0.00    -0.048 Br
HETATM   31  C17 UNL     1      23.096   2.849  50.843  1.00  0.00     0.036 A 
ENDBRANCH   5  24
TORSDOF 6
ENDMDL
