MODEL 1
REMARK VINA RESULT:      -8.8      0.000      0.000
REMARK  9 active torsions:
REMARK  status: ('A' for Active; 'I' for Inactive)
REMARK    1  A    between atoms: C2_2  and  C3_3 
REMARK    2  A    between atoms: C3_3  and  O1_25 
REMARK    3  A    between atoms: C4_4  and  C5_5 
REMARK    4  A    between atoms: C5_5  and  C6_6 
REMARK    5  A    between atoms: N1_8  and  C8_9 
REMARK    6  A    between atoms: C10_11  and  C11_12 
REMARK    7  A    between atoms: C11_12  and  N2_13 
REMARK    8  A    between atoms: C18_22  and  N5_23 
REMARK    9  A    between atoms: O1_25  and  C20_26 
ROOT
HETATM    1  C6  UNL     1      22.210   1.443  50.377  1.00  0.00    -0.021 A 
HETATM    2  C7  UNL     1      23.307   1.402  51.236  1.00  0.00     0.101 A 
HETATM    3  N1  UNL     1      22.975   0.868  52.430  1.00  0.00    -0.336 N 
HETATM    4  C16 UNL     1      21.673   0.546  52.394  1.00  0.00     0.146 A 
HETATM    5  N3  UNL     1      20.842  -0.008  53.295  1.00  0.00    -0.223 NA
HETATM    6  C17 UNL     1      19.552  -0.207  52.940  1.00  0.00     0.237 A 
HETATM    7  N4  UNL     1      19.071   0.133  51.708  1.00  0.00    -0.224 NA
HETATM    8  C18 UNL     1      19.882   0.697  50.765  1.00  0.00     0.137 A 
HETATM    9  C19 UNL     1      21.197   0.898  51.133  1.00  0.00     0.063 A 
ENDROOT
BRANCH   1  10
HETATM   10  C5  UNL     1      22.292   1.986  48.997  1.00  0.00     0.070 C 
BRANCH  10  11
HETATM   11  C4  UNL     1      22.897   3.315  48.933  1.00  0.00     0.010 C 
HETATM   12  C3  UNL     1      22.847   4.461  49.549  1.00  0.00     0.050 C 
BRANCH  12  13
HETATM   13  C2  UNL     1      22.095   4.980  50.689  1.00  0.00     0.060 C 
HETATM   14  C1  UNL     1      22.920   4.845  51.941  1.00  0.00     0.012 C 
ENDBRANCH  12  13
BRANCH  12  15
HETATM   15  O1  UNL     1      23.631   5.510  49.137  1.00  0.00    -0.315 OA
BRANCH  15  16
HETATM   16  C20 UNL     1      24.995   5.371  49.006  1.00  0.00     0.081 A 
HETATM   17  C21 UNL     1      25.807   4.308  49.327  1.00  0.00     0.038 A 
HETATM   18  C22 UNL     1      27.167   4.358  49.121  1.00  0.00     0.003 A 
HETATM   19  C23 UNL     1      27.755   5.484  48.582  1.00  0.00     0.001 A 
HETATM   20  C24 UNL     1      26.956   6.561  48.254  1.00  0.00     0.009 A 
HETATM   21  C25 UNL     1      25.576   6.514  48.462  1.00  0.00    -0.028 A 
HETATM   22  C26 UNL     1      24.870   7.746  48.058  1.00  0.00     0.051 C 
ENDBRANCH  15  16
ENDBRANCH  12  15
ENDBRANCH  10  11
ENDBRANCH   1  10
BRANCH   3  23
HETATM   23  C8  UNL     1      23.923   0.694  53.541  1.00  0.00     0.092 C 
HETATM   24  C9  UNL     1      25.182   1.523  53.398  1.00  0.00     0.032 C 
HETATM   25  C10 UNL     1      26.044   0.317  53.522  1.00  0.00     0.018 C 
HETATM   26  C15 UNL     1      24.785  -0.524  53.456  1.00  0.00     0.032 C 
BRANCH  25  27
HETATM   27  C11 UNL     1      26.847   0.184  54.759  1.00  0.00     0.277 C 
BRANCH  27  28
HETATM   28  N2  UNL     1      28.214  -0.081  54.675  1.00  0.00     0.088 N 
HETATM   29  C12 UNL     1      29.167   0.896  54.287  1.00  0.00     0.274 C 
HETATM   30  C13 UNL     1      29.936  -0.153  53.457  1.00  0.00     0.060 C 
HETATM   31  C14 UNL     1      28.593  -0.886  53.530  1.00  0.00     0.274 C 
ENDBRANCH  27  28
ENDBRANCH  25  27
ENDBRANCH   3  23
BRANCH   8  32
HETATM   32  N5  UNL     1      19.414   1.062  49.474  1.00  0.00    -0.383 N 
HETATM   33  H25 UNL     1      18.952   0.354  48.852  1.00  0.00     0.157 HD
HETATM   34  H26 UNL     1      19.722   2.053  49.577  1.00  0.00     0.157 HD
ENDBRANCH   8  32
TORSDOF 9
ENDMDL
MODEL 2
REMARK VINA RESULT:      -8.8      4.388      8.272
REMARK  9 active torsions:
REMARK  status: ('A' for Active; 'I' for Inactive)
REMARK    1  A    between atoms: C2_2  and  C3_3 
REMARK    2  A    between atoms: C3_3  and  O1_25 
REMARK    3  A    between atoms: C4_4  and  C5_5 
REMARK    4  A    between atoms: C5_5  and  C6_6 
REMARK    5  A    between atoms: N1_8  and  C8_9 
REMARK    6  A    between atoms: C10_11  and  C11_12 
REMARK    7  A    between atoms: C11_12  and  N2_13 
REMARK    8  A    between atoms: C18_22  and  N5_23 
REMARK    9  A    between atoms: O1_25  and  C20_26 
ROOT
HETATM    1  C6  UNL     1      26.495   4.567  49.318  1.00  0.00    -0.021 A 
HETATM    2  C7  UNL     1      27.697   4.759  48.639  1.00  0.00     0.101 A 
HETATM    3  N1  UNL     1      27.931   6.071  48.418  1.00  0.00    -0.336 N 
HETATM    4  C16 UNL     1      26.908   6.767  48.938  1.00  0.00     0.146 A 
HETATM    5  N3  UNL     1      26.636   8.084  48.999  1.00  0.00    -0.223 NA
HETATM    6  C17 UNL     1      25.492   8.474  49.607  1.00  0.00     0.237 A 
HETATM    7  N4  UNL     1      24.614   7.583  50.155  1.00  0.00    -0.224 NA
HETATM    8  C18 UNL     1      24.854   6.239  50.114  1.00  0.00     0.137 A 
HETATM    9  C19 UNL     1      26.022   5.847  49.492  1.00  0.00     0.063 A 
ENDROOT
BRANCH   1  10
HETATM   10  C5  UNL     1      25.991   3.219  49.687  1.00  0.00     0.070 C 
BRANCH  10  11
HETATM   11  C4  UNL     1      26.451   2.769  51.000  1.00  0.00     0.010 C 
HETATM   12  C3  UNL     1      25.969   2.427  52.159  1.00  0.00     0.050 C 
BRANCH  12  13
HETATM   13  C2  UNL     1      24.624   2.331  52.722  1.00  0.00     0.060 C 
HETATM   14  C1  UNL     1      23.809   1.353  51.916  1.00  0.00     0.012 C 
ENDBRANCH  12  13
BRANCH  12  15
HETATM   15  O1  UNL     1      26.806   2.047  53.179  1.00  0.00    -0.315 OA
BRANCH  15  16
HETATM   16  C20 UNL     1      27.437   0.824  53.163  1.00  0.00     0.081 A 
HETATM   17  C21 UNL     1      26.986  -0.395  52.711  1.00  0.00     0.038 A 
HETATM   18  C22 UNL     1      27.775  -1.521  52.781  1.00  0.00     0.003 A 
HETATM   19  C23 UNL     1      29.048  -1.456  53.310  1.00  0.00     0.001 A 
HETATM   20  C24 UNL     1      29.518  -0.242  53.768  1.00  0.00     0.009 A 
HETATM   21  C25 UNL     1      28.720   0.903  53.700  1.00  0.00    -0.028 A 
HETATM   22  C26 UNL     1      29.372   2.116  54.232  1.00  0.00     0.051 C 
ENDBRANCH  15  16
ENDBRANCH  12  15
ENDBRANCH  10  11
ENDBRANCH   1  10
BRANCH   3  23
HETATM   23  C8  UNL     1      29.121   6.585  47.724  1.00  0.00     0.092 C 
HETATM   24  C9  UNL     1      30.266   5.595  47.674  1.00  0.00     0.032 C 
HETATM   25  C10 UNL     1      31.195   6.569  48.308  1.00  0.00     0.018 C 
HETATM   26  C15 UNL     1      30.001   7.472  48.543  1.00  0.00     0.032 C 
BRANCH  25  27
HETATM   27  C11 UNL     1      32.271   7.128  47.459  1.00  0.00     0.277 C 
BRANCH  27  28
HETATM   28  N2  UNL     1      33.569   6.626  47.562  1.00  0.00     0.088 N 
HETATM   29  C12 UNL     1      33.934   5.617  48.490  1.00  0.00     0.274 C 
HETATM   30  C13 UNL     1      35.267   6.336  48.781  1.00  0.00     0.060 C 
HETATM   31  C14 UNL     1      34.506   7.531  48.200  1.00  0.00     0.274 C 
ENDBRANCH  27  28
ENDBRANCH  25  27
ENDBRANCH   3  23
BRANCH   8  32
HETATM   32  N5  UNL     1      23.961   5.286  50.674  1.00  0.00    -0.383 N 
HETATM   33  H25 UNL     1      23.313   5.554  51.455  1.00  0.00     0.157 HD
HETATM   34  H26 UNL     1      24.282   4.524  50.039  1.00  0.00     0.157 HD
ENDBRANCH   8  32
TORSDOF 9
ENDMDL
MODEL 3
REMARK VINA RESULT:      -8.6      1.635      6.435
REMARK  9 active torsions:
REMARK  status: ('A' for Active; 'I' for Inactive)
REMARK    1  A    between atoms: C2_2  and  C3_3 
REMARK    2  A    between atoms: C3_3  and  O1_25 
REMARK    3  A    between atoms: C4_4  and  C5_5 
REMARK    4  A    between atoms: C5_5  and  C6_6 
REMARK    5  A    between atoms: N1_8  and  C8_9 
REMARK    6  A    between atoms: C10_11  and  C11_12 
REMARK    7  A    between atoms: C11_12  and  N2_13 
REMARK    8  A    between atoms: C18_22  and  N5_23 
REMARK    9  A    between atoms: O1_25  and  C20_26 
ROOT
HETATM    1  C6  UNL     1      25.978   1.790  52.091  1.00  0.00    -0.021 A 
HETATM    2  C7  UNL     1      24.739   1.155  52.044  1.00  0.00     0.101 A 
HETATM    3  N1  UNL     1      24.602   0.271  53.056  1.00  0.00    -0.336 N 
HETATM    4  C16 UNL     1      25.727   0.299  53.786  1.00  0.00     0.146 A 
HETATM    5  N3  UNL     1      26.120  -0.367  54.887  1.00  0.00    -0.223 NA
HETATM    6  C17 UNL     1      27.347  -0.104  55.391  1.00  0.00     0.237 A 
HETATM    7  N4  UNL     1      28.191   0.807  54.824  1.00  0.00    -0.224 NA
HETATM    8  C18 UNL     1      27.831   1.504  53.707  1.00  0.00     0.137 A 
HETATM    9  C19 UNL     1      26.578   1.231  53.197  1.00  0.00     0.063 A 
ENDROOT
BRANCH   1  10
HETATM   10  C5  UNL     1      26.395   2.809  51.094  1.00  0.00     0.070 C 
BRANCH  10  11
HETATM   11  C4  UNL     1      25.277   3.361  50.329  1.00  0.00     0.010 C 
HETATM   12  C3  UNL     1      24.961   4.435  49.665  1.00  0.00     0.050 C 
BRANCH  12  13
HETATM   13  C2  UNL     1      25.647   5.688  49.356  1.00  0.00     0.060 C 
HETATM   14  C1  UNL     1      26.959   5.391  48.679  1.00  0.00     0.012 C 
ENDBRANCH  12  13
BRANCH  12  15
HETATM   15  O1  UNL     1      23.732   4.548  49.065  1.00  0.00    -0.315 OA
BRANCH  15  16
HETATM   16  C20 UNL     1      22.849   3.492  49.045  1.00  0.00     0.081 A 
HETATM   17  C21 UNL     1      22.791   2.408  48.200  1.00  0.00     0.038 A 
HETATM   18  C22 UNL     1      21.819   1.442  48.340  1.00  0.00     0.003 A 
HETATM   19  C23 UNL     1      20.873   1.537  49.339  1.00  0.00     0.001 A 
HETATM   20  C24 UNL     1      20.916   2.617  50.198  1.00  0.00     0.009 A 
HETATM   21  C25 UNL     1      21.899   3.599  50.058  1.00  0.00    -0.028 A 
HETATM   22  C26 UNL     1      21.804   4.684  51.055  1.00  0.00     0.051 C 
ENDBRANCH  15  16
ENDBRANCH  12  15
ENDBRANCH  10  11
ENDBRANCH   1  10
BRANCH   3  23
HETATM   23  C8  UNL     1      23.401  -0.550  53.269  1.00  0.00     0.092 C 
HETATM   24  C9  UNL     1      22.275  -0.236  52.306  1.00  0.00     0.032 C 
HETATM   25  C10 UNL     1      21.329   0.019  53.426  1.00  0.00     0.018 C 
HETATM   26  C15 UNL     1      22.505  -0.092  54.374  1.00  0.00     0.032 C 
BRANCH  25  27
HETATM   27  C11 UNL     1      20.240  -0.963  53.627  1.00  0.00     0.277 C 
BRANCH  27  28
HETATM   28  N2  UNL     1      18.919  -0.601  53.362  1.00  0.00     0.088 N 
HETATM   29  C12 UNL     1      17.863  -1.545  53.275  1.00  0.00     0.274 C 
HETATM   30  C13 UNL     1      17.252  -0.784  52.080  1.00  0.00     0.060 C 
HETATM   31  C14 UNL     1      18.674  -0.220  51.985  1.00  0.00     0.274 C 
ENDBRANCH  27  28
ENDBRANCH  25  27
ENDBRANCH   3  23
BRANCH   8  32
HETATM   32  N5  UNL     1      28.686   2.459  53.093  1.00  0.00    -0.383 N 
HETATM   33  H25 UNL     1      29.112   3.235  53.655  1.00  0.00     0.157 HD
HETATM   34  H26 UNL     1      28.601   2.016  52.152  1.00  0.00     0.157 HD
ENDBRANCH   8  32
TORSDOF 9
ENDMDL
MODEL 4
REMARK VINA RESULT:      -8.3      2.839      7.272
REMARK  9 active torsions:
REMARK  status: ('A' for Active; 'I' for Inactive)
REMARK    1  A    between atoms: C2_2  and  C3_3 
REMARK    2  A    between atoms: C3_3  and  O1_25 
REMARK    3  A    between atoms: C4_4  and  C5_5 
REMARK    4  A    between atoms: C5_5  and  C6_6 
REMARK    5  A    between atoms: N1_8  and  C8_9 
REMARK    6  A    between atoms: C10_11  and  C11_12 
REMARK    7  A    between atoms: C11_12  and  N2_13 
REMARK    8  A    between atoms: C18_22  and  N5_23 
REMARK    9  A    between atoms: O1_25  and  C20_26 
ROOT
HETATM    1  C6  UNL     1      24.818   0.867  52.860  1.00  0.00    -0.021 A 
HETATM    2  C7  UNL     1      24.628   1.766  51.812  1.00  0.00     0.101 A 
HETATM    3  N1  UNL     1      25.741   2.494  51.584  1.00  0.00    -0.336 N 
HETATM    4  C16 UNL     1      26.680   2.103  52.458  1.00  0.00     0.146 A 
HETATM    5  N3  UNL     1      27.952   2.489  52.670  1.00  0.00    -0.223 NA
HETATM    6  C17 UNL     1      28.651   1.883  53.656  1.00  0.00     0.237 A 
HETATM    7  N4  UNL     1      28.112   0.900  54.437  1.00  0.00    -0.224 NA
HETATM    8  C18 UNL     1      26.825   0.479  54.254  1.00  0.00     0.137 A 
HETATM    9  C19 UNL     1      26.118   1.103  53.247  1.00  0.00     0.063 A 
ENDROOT
BRANCH   1  10
HETATM   10  C5  UNL     1      23.753  -0.058  53.326  1.00  0.00     0.070 C 
BRANCH  10  11
HETATM   11  C4  UNL     1      22.478   0.133  52.635  1.00  0.00     0.010 C 
HETATM   12  C3  UNL     1      21.218  -0.161  52.774  1.00  0.00     0.050 C 
BRANCH  12  13
HETATM   13  C2  UNL     1      20.439  -0.881  53.780  1.00  0.00     0.060 C 
HETATM   14  C1  UNL     1      18.996  -0.940  53.351  1.00  0.00     0.012 C 
ENDBRANCH  12  13
BRANCH  12  15
HETATM   15  O1  UNL     1      20.300   0.237  51.835  1.00  0.00    -0.315 OA
BRANCH  15  16
HETATM   16  C20 UNL     1      20.681   0.967  50.731  1.00  0.00     0.081 A 
HETATM   17  C21 UNL     1      21.268   0.550  49.559  1.00  0.00     0.038 A 
HETATM   18  C22 UNL     1      21.579   1.443  48.558  1.00  0.00     0.003 A 
HETATM   19  C23 UNL     1      21.308   2.787  48.705  1.00  0.00     0.001 A 
HETATM   20  C24 UNL     1      20.718   3.224  49.874  1.00  0.00     0.009 A 
HETATM   21  C25 UNL     1      20.401   2.322  50.892  1.00  0.00    -0.028 A 
HETATM   22  C26 UNL     1      19.777   2.951  52.073  1.00  0.00     0.051 C 
ENDBRANCH  15  16
ENDBRANCH  12  15
ENDBRANCH  10  11
ENDBRANCH   1  10
BRANCH   3  23
HETATM   23  C8  UNL     1      25.846   3.524  50.539  1.00  0.00     0.092 C 
HETATM   24  C9  UNL     1      25.081   4.791  50.860  1.00  0.00     0.032 C 
HETATM   25  C10 UNL     1      24.318   4.707  49.585  1.00  0.00     0.018 C 
HETATM   26  C15 UNL     1      24.933   3.339  49.370  1.00  0.00     0.032 C 
BRANCH  25  27
HETATM   27  C11 UNL     1      24.619   5.722  48.550  1.00  0.00     0.277 C 
BRANCH  27  28
HETATM   28  N2  UNL     1      23.598   6.533  48.054  1.00  0.00     0.088 N 
HETATM   29  C12 UNL     1      22.471   6.914  48.828  1.00  0.00     0.274 C 
HETATM   30  C13 UNL     1      21.543   6.727  47.610  1.00  0.00     0.060 C 
HETATM   31  C14 UNL     1      22.712   5.866  47.119  1.00  0.00     0.274 C 
ENDBRANCH  27  28
ENDBRANCH  25  27
ENDBRANCH   3  23
BRANCH   8  32
HETATM   32  N5  UNL     1      26.235  -0.540  55.049  1.00  0.00    -0.383 N 
HETATM   33  H25 UNL     1      26.800  -1.049  55.773  1.00  0.00     0.157 HD
HETATM   34  H26 UNL     1      25.302  -0.438  54.593  1.00  0.00     0.157 HD
ENDBRANCH   8  32
TORSDOF 9
ENDMDL
MODEL 5
REMARK VINA RESULT:      -8.3      3.410      8.204
REMARK  9 active torsions:
REMARK  status: ('A' for Active; 'I' for Inactive)
REMARK    1  A    between atoms: C2_2  and  C3_3 
REMARK    2  A    between atoms: C3_3  and  O1_25 
REMARK    3  A    between atoms: C4_4  and  C5_5 
REMARK    4  A    between atoms: C5_5  and  C6_6 
REMARK    5  A    between atoms: N1_8  and  C8_9 
REMARK    6  A    between atoms: C10_11  and  C11_12 
REMARK    7  A    between atoms: C11_12  and  N2_13 
REMARK    8  A    between atoms: C18_22  and  N5_23 
REMARK    9  A    between atoms: O1_25  and  C20_26 
ROOT
HETATM    1  C6  UNL     1      22.928   4.321  52.097  1.00  0.00    -0.021 A 
HETATM    2  C7  UNL     1      21.853   3.467  51.860  1.00  0.00     0.101 A 
HETATM    3  N1  UNL     1      20.911   4.063  51.099  1.00  0.00    -0.336 N 
HETATM    4  C16 UNL     1      21.331   5.305  50.816  1.00  0.00     0.146 A 
HETATM    5  N3  UNL     1      20.794   6.313  50.105  1.00  0.00    -0.223 NA
HETATM    6  C17 UNL     1      21.488   7.470  50.008  1.00  0.00     0.237 A 
HETATM    7  N4  UNL     1      22.705   7.645  50.602  1.00  0.00    -0.224 NA
HETATM    8  C18 UNL     1      23.285   6.647  51.331  1.00  0.00     0.137 A 
HETATM    9  C19 UNL     1      22.571   5.470  51.428  1.00  0.00     0.063 A 
ENDROOT
BRANCH   1  10
HETATM   10  C5  UNL     1      24.106   3.921  52.909  1.00  0.00     0.070 C 
BRANCH  10  11
HETATM   11  C4  UNL     1      24.219   2.475  53.092  1.00  0.00     0.010 C 
HETATM   12  C3  UNL     1      24.946   1.476  52.686  1.00  0.00     0.050 C 
BRANCH  12  13
HETATM   13  C2  UNL     1      26.084   1.338  51.779  1.00  0.00     0.060 C 
HETATM   14  C1  UNL     1      26.724  -0.012  51.975  1.00  0.00     0.012 C 
ENDBRANCH  12  13
BRANCH  12  15
HETATM   15  O1  UNL     1      24.696   0.202  53.134  1.00  0.00    -0.315 OA
BRANCH  15  16
HETATM   16  C20 UNL     1      23.411  -0.229  53.375  1.00  0.00     0.081 A 
HETATM   17  C21 UNL     1      22.272  -0.066  52.620  1.00  0.00     0.038 A 
HETATM   18  C22 UNL     1      21.061  -0.576  53.034  1.00  0.00     0.003 A 
HETATM   19  C23 UNL     1      20.959  -1.267  54.223  1.00  0.00     0.001 A 
HETATM   20  C24 UNL     1      22.091  -1.441  54.993  1.00  0.00     0.009 A 
HETATM   21  C25 UNL     1      23.321  -0.925  54.578  1.00  0.00    -0.028 A 
HETATM   22  C26 UNL     1      24.429  -1.197  55.514  1.00  0.00     0.051 C 
ENDBRANCH  15  16
ENDBRANCH  12  15
ENDBRANCH  10  11
ENDBRANCH   1  10
BRANCH   3  23
HETATM   23  C8  UNL     1      19.661   3.410  50.683  1.00  0.00     0.092 C 
HETATM   24  C9  UNL     1      19.011   2.592  51.779  1.00  0.00     0.032 C 
HETATM   25  C10 UNL     1      19.000   1.374  50.924  1.00  0.00     0.018 C 
HETATM   26  C15 UNL     1      19.832   2.139  49.915  1.00  0.00     0.032 C 
BRANCH  25  27
HETATM   27  C11 UNL     1      17.682   0.896  50.447  1.00  0.00     0.277 C 
BRANCH  27  28
HETATM   28  N2  UNL     1      17.233  -0.376  50.804  1.00  0.00     0.088 N 
HETATM   29  C12 UNL     1      15.860  -0.687  50.982  1.00  0.00     0.274 C 
HETATM   30  C13 UNL     1      16.195  -1.562  52.208  1.00  0.00     0.060 C 
HETATM   31  C14 UNL     1      17.477  -0.724  52.191  1.00  0.00     0.274 C 
ENDBRANCH  27  28
ENDBRANCH  25  27
ENDBRANCH   3  23
BRANCH   8  32
HETATM   32  N5  UNL     1      24.549   6.798  51.962  1.00  0.00    -0.383 N 
HETATM   33  H25 UNL     1      24.819   7.707  52.411  1.00  0.00     0.157 HD
HETATM   34  H26 UNL     1      24.840   5.819  51.745  1.00  0.00     0.157 HD
ENDBRANCH   8  32
TORSDOF 9
ENDMDL
MODEL 6
REMARK VINA RESULT:      -8.3      2.787      6.108
REMARK  9 active torsions:
REMARK  status: ('A' for Active; 'I' for Inactive)
REMARK    1  A    between atoms: C2_2  and  C3_3 
REMARK    2  A    between atoms: C3_3  and  O1_25 
REMARK    3  A    between atoms: C4_4  and  C5_5 
REMARK    4  A    between atoms: C5_5  and  C6_6 
REMARK    5  A    between atoms: N1_8  and  C8_9 
REMARK    6  A    between atoms: C10_11  and  C11_12 
REMARK    7  A    between atoms: C11_12  and  N2_13 
REMARK    8  A    between atoms: C18_22  and  N5_23 
REMARK    9  A    between atoms: O1_25  and  C20_26 
ROOT
HETATM    1  C6  UNL     1      22.366   2.769  48.908  1.00  0.00    -0.021 A 
HETATM    2  C7  UNL     1      23.298   2.510  49.910  1.00  0.00     0.101 A 
HETATM    3  N1  UNL     1      24.186   3.521  50.028  1.00  0.00    -0.336 N 
HETATM    4  C16 UNL     1      23.868   4.459  49.123  1.00  0.00     0.146 A 
HETATM    5  N3  UNL     1      24.408   5.652  48.813  1.00  0.00    -0.223 NA
HETATM    6  C17 UNL     1      23.838   6.377  47.824  1.00  0.00     0.237 A 
HETATM    7  N4  UNL     1      22.741   5.941  47.137  1.00  0.00    -0.224 NA
HETATM    8  C18 UNL     1      22.162   4.737  47.421  1.00  0.00     0.137 A 
HETATM    9  C19 UNL     1      22.749   4.002  48.430  1.00  0.00     0.063 A 
ENDROOT
BRANCH   1  10
HETATM   10  C5  UNL     1      21.275   1.821  48.564  1.00  0.00     0.070 C 
BRANCH  10  11
HETATM   11  C4  UNL     1      20.750   1.098  49.721  1.00  0.00     0.010 C 
HETATM   12  C3  UNL     1      19.986   1.298  50.755  1.00  0.00     0.050 C 
BRANCH  12  13
HETATM   13  C2  UNL     1      19.239   2.443  51.271  1.00  0.00     0.060 C 
HETATM   14  C1  UNL     1      20.197   3.446  51.859  1.00  0.00     0.012 C 
ENDBRANCH  12  13
BRANCH  12  15
HETATM   15  O1  UNL     1      19.740   0.284  51.648  1.00  0.00    -0.315 OA
BRANCH  15  16
HETATM   16  C20 UNL     1      20.684  -0.091  52.576  1.00  0.00     0.081 A 
HETATM   17  C21 UNL     1      22.000   0.291  52.699  1.00  0.00     0.038 A 
HETATM   18  C22 UNL     1      22.798  -0.201  53.708  1.00  0.00     0.003 A 
HETATM   19  C23 UNL     1      22.294  -1.096  54.628  1.00  0.00     0.001 A 
HETATM   20  C24 UNL     1      20.975  -1.491  54.522  1.00  0.00     0.009 A 
HETATM   21  C25 UNL     1      20.163  -0.995  53.500  1.00  0.00    -0.028 A 
HETATM   22  C26 UNL     1      18.783  -1.517  53.528  1.00  0.00     0.051 C 
ENDBRANCH  15  16
ENDBRANCH  12  15
ENDBRANCH  10  11
ENDBRANCH   1  10
BRANCH   3  23
HETATM   23  C8  UNL     1      25.288   3.534  51.001  1.00  0.00     0.092 C 
HETATM   24  C9  UNL     1      26.495   2.733  50.560  1.00  0.00     0.032 C 
HETATM   25  C10 UNL     1      26.463   1.917  51.803  1.00  0.00     0.018 C 
HETATM   26  C15 UNL     1      25.142   2.577  52.140  1.00  0.00     0.032 C 
BRANCH  25  27
HETATM   27  C11 UNL     1      27.559   2.127  52.777  1.00  0.00     0.277 C 
BRANCH  27  28
HETATM   28  N2  UNL     1      28.478   1.106  53.020  1.00  0.00     0.088 N 
HETATM   29  C12 UNL     1      28.096  -0.249  53.196  1.00  0.00     0.274 C 
HETATM   30  C13 UNL     1      29.133  -0.418  54.326  1.00  0.00     0.060 C 
HETATM   31  C14 UNL     1      29.028   1.110  54.362  1.00  0.00     0.274 C 
ENDBRANCH  27  28
ENDBRANCH  25  27
ENDBRANCH   3  23
BRANCH   8  32
HETATM   32  N5  UNL     1      21.021   4.255  46.725  1.00  0.00    -0.383 N 
HETATM   33  H25 UNL     1      20.405   4.912  46.187  1.00  0.00     0.157 HD
HETATM   34  H26 UNL     1      21.189   3.267  47.014  1.00  0.00     0.157 HD
ENDBRANCH   8  32
TORSDOF 9
ENDMDL
MODEL 7
REMARK VINA RESULT:      -8.2      4.130      8.386
REMARK  9 active torsions:
REMARK  status: ('A' for Active; 'I' for Inactive)
REMARK    1  A    between atoms: C2_2  and  C3_3 
REMARK    2  A    between atoms: C3_3  and  O1_25 
REMARK    3  A    between atoms: C4_4  and  C5_5 
REMARK    4  A    between atoms: C5_5  and  C6_6 
REMARK    5  A    between atoms: N1_8  and  C8_9 
REMARK    6  A    between atoms: C10_11  and  C11_12 
REMARK    7  A    between atoms: C11_12  and  N2_13 
REMARK    8  A    between atoms: C18_22  and  N5_23 
REMARK    9  A    between atoms: O1_25  and  C20_26 
ROOT
HETATM    1  C6  UNL     1      26.044   4.285  49.561  1.00  0.00    -0.021 A 
HETATM    2  C7  UNL     1      27.149   4.754  48.853  1.00  0.00     0.101 A 
HETATM    3  N1  UNL     1      27.089   6.092  48.681  1.00  0.00    -0.336 N 
HETATM    4  C16 UNL     1      25.963   6.535  49.261  1.00  0.00     0.146 A 
HETATM    5  N3  UNL     1      25.419   7.759  49.386  1.00  0.00    -0.223 NA
HETATM    6  C17 UNL     1      24.244   7.874  50.044  1.00  0.00     0.237 A 
HETATM    7  N4  UNL     1      23.598   6.797  50.582  1.00  0.00    -0.224 NA
HETATM    8  C18 UNL     1      24.117   5.538  50.477  1.00  0.00     0.137 A 
HETATM    9  C19 UNL     1      25.316   5.428  49.803  1.00  0.00     0.063 A 
ENDROOT
BRANCH   1  10
HETATM   10  C5  UNL     1      25.854   2.849  49.889  1.00  0.00     0.070 C 
BRANCH  10  11
HETATM   11  C4  UNL     1      26.412   2.473  51.187  1.00  0.00     0.010 C 
HETATM   12  C3  UNL     1      26.017   2.177  52.391  1.00  0.00     0.050 C 
BRANCH  12  13
HETATM   13  C2  UNL     1      24.714   2.076  53.046  1.00  0.00     0.060 C 
HETATM   14  C1  UNL     1      23.927   0.947  52.433  1.00  0.00     0.012 C 
ENDBRANCH  12  13
BRANCH  12  15
HETATM   15  O1  UNL     1      26.928   1.866  53.369  1.00  0.00    -0.315 OA
BRANCH  15  16
HETATM   16  C20 UNL     1      27.640   0.688  53.330  1.00  0.00     0.081 A 
HETATM   17  C21 UNL     1      27.246  -0.566  52.923  1.00  0.00     0.038 A 
HETATM   18  C22 UNL     1      28.113  -1.635  52.959  1.00  0.00     0.003 A 
HETATM   19  C23 UNL     1      29.407  -1.476  53.407  1.00  0.00     0.001 A 
HETATM   20  C24 UNL     1      29.821  -0.225  53.820  1.00  0.00     0.009 A 
HETATM   21  C25 UNL     1      28.945   0.862  53.785  1.00  0.00    -0.028 A 
HETATM   22  C26 UNL     1      29.543   2.125  54.260  1.00  0.00     0.051 C 
ENDBRANCH  15  16
ENDBRANCH  12  15
ENDBRANCH  10  11
ENDBRANCH   1  10
BRANCH   3  23
HETATM   23  C8  UNL     1      28.114   6.873  47.971  1.00  0.00     0.092 C 
HETATM   24  C9  UNL     1      29.527   6.392  48.228  1.00  0.00     0.032 C 
HETATM   25  C10 UNL     1      29.951   7.742  48.686  1.00  0.00     0.018 C 
HETATM   26  C15 UNL     1      28.496   8.162  48.625  1.00  0.00     0.032 C 
BRANCH  25  27
HETATM   27  C11 UNL     1      30.878   8.492  47.808  1.00  0.00     0.277 C 
BRANCH  27  28
HETATM   28  N2  UNL     1      31.359   9.739  48.209  1.00  0.00     0.088 N 
HETATM   29  C12 UNL     1      30.908  10.399  49.381  1.00  0.00     0.274 C 
HETATM   30  C13 UNL     1      30.914  11.755  48.647  1.00  0.00     0.060 C 
HETATM   31  C14 UNL     1      30.869  10.848  47.413  1.00  0.00     0.274 C 
ENDBRANCH  27  28
ENDBRANCH  25  27
ENDBRANCH   3  23
BRANCH   8  32
HETATM   32  N5  UNL     1      23.470   4.398  51.025  1.00  0.00    -0.383 N 
HETATM   33  H25 UNL     1      22.675   3.939  50.518  1.00  0.00     0.157 HD
HETATM   34  H26 UNL     1      24.082   4.383  51.870  1.00  0.00     0.157 HD
ENDBRANCH   8  32
TORSDOF 9
ENDMDL
MODEL 8
REMARK VINA RESULT:      -8.1      3.111      8.228
REMARK  9 active torsions:
REMARK  status: ('A' for Active; 'I' for Inactive)
REMARK    1  A    between atoms: C2_2  and  C3_3 
REMARK    2  A    between atoms: C3_3  and  O1_25 
REMARK    3  A    between atoms: C4_4  and  C5_5 
REMARK    4  A    between atoms: C5_5  and  C6_6 
REMARK    5  A    between atoms: N1_8  and  C8_9 
REMARK    6  A    between atoms: C10_11  and  C11_12 
REMARK    7  A    between atoms: C11_12  and  N2_13 
REMARK    8  A    between atoms: C18_22  and  N5_23 
REMARK    9  A    between atoms: O1_25  and  C20_26 
ROOT
HETATM    1  C6  UNL     1      25.229   3.693  50.379  1.00  0.00    -0.021 A 
HETATM    2  C7  UNL     1      23.876   3.455  50.606  1.00  0.00     0.101 A 
HETATM    3  N1  UNL     1      23.105   4.372  49.983  1.00  0.00    -0.336 N 
HETATM    4  C16 UNL     1      23.915   5.225  49.339  1.00  0.00     0.146 A 
HETATM    5  N3  UNL     1      23.682   6.307  48.574  1.00  0.00    -0.223 NA
HETATM    6  C17 UNL     1      24.743   6.968  48.057  1.00  0.00     0.237 A 
HETATM    7  N4  UNL     1      26.031   6.575  48.284  1.00  0.00    -0.224 NA
HETATM    8  C18 UNL     1      26.310   5.482  49.053  1.00  0.00     0.137 A 
HETATM    9  C19 UNL     1      25.223   4.813  49.579  1.00  0.00     0.063 A 
ENDROOT
BRANCH   1  10
HETATM   10  C5  UNL     1      26.301   2.836  50.949  1.00  0.00     0.070 C 
BRANCH  10  11
HETATM   11  C4  UNL     1      25.833   1.965  52.027  1.00  0.00     0.010 C 
HETATM   12  C3  UNL     1      25.961   0.738  52.438  1.00  0.00     0.050 C 
BRANCH  12  13
HETATM   13  C2  UNL     1      26.700  -0.431  51.965  1.00  0.00     0.060 C 
HETATM   14  C1  UNL     1      27.582  -0.952  53.070  1.00  0.00     0.012 C 
ENDBRANCH  12  13
BRANCH  12  15
HETATM   15  O1  UNL     1      25.307   0.307  53.566  1.00  0.00    -0.315 OA
BRANCH  15  16
HETATM   16  C20 UNL     1      23.972  -0.031  53.529  1.00  0.00     0.081 A 
HETATM   17  C21 UNL     1      23.005   0.301  52.609  1.00  0.00     0.038 A 
HETATM   18  C22 UNL     1      21.707  -0.138  52.745  1.00  0.00     0.003 A 
HETATM   19  C23 UNL     1      21.341  -0.929  53.814  1.00  0.00     0.001 A 
HETATM   20  C24 UNL     1      22.298  -1.273  54.747  1.00  0.00     0.009 A 
HETATM   21  C25 UNL     1      23.615  -0.829  54.613  1.00  0.00    -0.028 A 
HETATM   22  C26 UNL     1      24.512  -1.286  55.694  1.00  0.00     0.051 C 
ENDBRANCH  15  16
ENDBRANCH  12  15
ENDBRANCH  10  11
ENDBRANCH   1  10
BRANCH   3  23
HETATM   23  C8  UNL     1      21.635   4.380  50.038  1.00  0.00     0.092 C 
HETATM   24  C9  UNL     1      21.083   4.382  51.449  1.00  0.00     0.032 C 
HETATM   25  C10 UNL     1      20.273   3.163  51.180  1.00  0.00     0.018 C 
HETATM   26  C15 UNL     1      20.985   3.048  49.847  1.00  0.00     0.032 C 
BRANCH  25  27
HETATM   27  C11 UNL     1      18.803   3.328  51.117  1.00  0.00     0.277 C 
BRANCH  27  28
HETATM   28  N2  UNL     1      17.973   2.212  51.218  1.00  0.00     0.088 N 
HETATM   29  C12 UNL     1      18.453   0.922  51.564  1.00  0.00     0.274 C 
HETATM   30  C13 UNL     1      17.516   0.271  50.525  1.00  0.00     0.060 C 
HETATM   31  C14 UNL     1      17.525   1.688  49.943  1.00  0.00     0.274 C 
ENDBRANCH  27  28
ENDBRANCH  25  27
ENDBRANCH   3  23
BRANCH   8  32
HETATM   32  N5  UNL     1      27.639   5.047  49.309  1.00  0.00    -0.383 N 
HETATM   33  H25 UNL     1      27.908   4.042  49.174  1.00  0.00     0.157 HD
HETATM   34  H26 UNL     1      27.960   6.000  49.586  1.00  0.00     0.157 HD
ENDBRANCH   8  32
TORSDOF 9
ENDMDL
MODEL 9
REMARK VINA RESULT:      -8.1      2.898      8.188
REMARK  9 active torsions:
REMARK  status: ('A' for Active; 'I' for Inactive)
REMARK    1  A    between atoms: C2_2  and  C3_3 
REMARK    2  A    between atoms: C3_3  and  O1_25 
REMARK    3  A    between atoms: C4_4  and  C5_5 
REMARK    4  A    between atoms: C5_5  and  C6_6 
REMARK    5  A    between atoms: N1_8  and  C8_9 
REMARK    6  A    between atoms: C10_11  and  C11_12 
REMARK    7  A    between atoms: C11_12  and  N2_13 
REMARK    8  A    between atoms: C18_22  and  N5_23 
REMARK    9  A    between atoms: O1_25  and  C20_26 
ROOT
HETATM    1  C6  UNL     1      24.700   0.791  52.944  1.00  0.00    -0.021 A 
HETATM    2  C7  UNL     1      24.458   1.638  51.865  1.00  0.00     0.101 A 
HETATM    3  N1  UNL     1      25.546   2.381  51.572  1.00  0.00    -0.336 N 
HETATM    4  C16 UNL     1      26.519   2.050  52.433  1.00  0.00     0.146 A 
HETATM    5  N3  UNL     1      27.787   2.473  52.589  1.00  0.00    -0.223 NA
HETATM    6  C17 UNL     1      28.529   1.926  53.579  1.00  0.00     0.237 A 
HETATM    7  N4  UNL     1      28.037   0.966  54.416  1.00  0.00    -0.224 NA
HETATM    8  C18 UNL     1      26.757   0.509  54.292  1.00  0.00     0.137 A 
HETATM    9  C19 UNL     1      26.005   1.072  53.281  1.00  0.00     0.063 A 
ENDROOT
BRANCH   1  10
HETATM   10  C5  UNL     1      23.672  -0.138  53.481  1.00  0.00     0.070 C 
BRANCH  10  11
HETATM   11  C4  UNL     1      22.430  -0.136  52.708  1.00  0.00     0.010 C 
HETATM   12  C3  UNL     1      21.349   0.574  52.565  1.00  0.00     0.050 C 
BRANCH  12  13
HETATM   13  C2  UNL     1      20.844   1.805  53.170  1.00  0.00     0.060 C 
HETATM   14  C1  UNL     1      21.073   2.959  52.229  1.00  0.00     0.012 C 
ENDBRANCH  12  13
BRANCH  12  15
HETATM   15  O1  UNL     1      20.377   0.194  51.674  1.00  0.00    -0.315 OA
BRANCH  15  16
HETATM   16  C20 UNL     1      19.191  -0.357  52.106  1.00  0.00     0.081 A 
HETATM   17  C21 UNL     1      18.934  -1.137  53.210  1.00  0.00     0.038 A 
HETATM   18  C22 UNL     1      17.665  -1.601  53.478  1.00  0.00     0.003 A 
HETATM   19  C23 UNL     1      16.613  -1.293  52.641  1.00  0.00     0.001 A 
HETATM   20  C24 UNL     1      16.852  -0.511  51.529  1.00  0.00     0.009 A 
HETATM   21  C25 UNL     1      18.137  -0.039  51.253  1.00  0.00    -0.028 A 
HETATM   22  C26 UNL     1      18.222   0.781  50.028  1.00  0.00     0.051 C 
ENDBRANCH  15  16
ENDBRANCH  12  15
ENDBRANCH  10  11
ENDBRANCH   1  10
BRANCH   3  23
HETATM   23  C8  UNL     1      25.595   3.367  50.482  1.00  0.00     0.092 C 
HETATM   24  C9  UNL     1      24.908   4.675  50.817  1.00  0.00     0.032 C 
HETATM   25  C10 UNL     1      24.033   4.574  49.619  1.00  0.00     0.018 C 
HETATM   26  C15 UNL     1      24.575   3.176  49.405  1.00  0.00     0.032 C 
BRANCH  25  27
HETATM   27  C11 UNL     1      24.277   5.537  48.521  1.00  0.00     0.277 C 
BRANCH  27  28
HETATM   28  N2  UNL     1      23.259   6.401  48.115  1.00  0.00     0.088 N 
HETATM   29  C12 UNL     1      22.029   6.524  48.810  1.00  0.00     0.274 C 
HETATM   30  C13 UNL     1      21.259   6.611  47.477  1.00  0.00     0.060 C 
HETATM   31  C14 UNL     1      22.536   5.956  46.940  1.00  0.00     0.274 C 
ENDBRANCH  27  28
ENDBRANCH  25  27
ENDBRANCH   3  23
BRANCH   8  32
HETATM   32  N5  UNL     1      26.215  -0.488  55.147  1.00  0.00    -0.383 N 
HETATM   33  H25 UNL     1      25.177  -0.617  55.229  1.00  0.00     0.157 HD
HETATM   34  H26 UNL     1      27.156  -0.815  55.459  1.00  0.00     0.157 HD
ENDBRANCH   8  32
TORSDOF 9
ENDMDL
