MODEL 1
REMARK VINA RESULT:      -8.6      0.000      0.000
REMARK  4 active torsions:
REMARK  status: ('A' for Active; 'I' for Inactive)
REMARK    1  A    between atoms: O1_2  and  C2_3 
REMARK    2  A    between atoms: C8_13  and  N4_14 
REMARK    3  A    between atoms: N4_14  and  C9_15 
REMARK    4  A    between atoms: C18_26  and  O3_27 
ROOT
HETATM    1  C2  UNL     1      25.445   7.706  48.105  1.00  0.00     0.148 C 
HETATM    2  C3  UNL     1      25.770   6.491  48.519  1.00  0.00     0.021 A 
HETATM    3  C4  UNL     1      24.711   5.599  48.961  1.00  0.00     0.051 A 
HETATM    4  C5  UNL     1      25.088   4.396  49.365  1.00  0.00     0.081 A 
HETATM    5  O2  UNL     1      24.075   3.548  49.788  1.00  0.00    -0.306 OA
HETATM    6  C6  UNL     1      22.754   3.672  49.453  1.00  0.00     0.254 C 
HETATM    7  N1  UNL     1      22.016   3.039  50.291  1.00  0.00    -0.255 NA
HETATM    8  C7  UNL     1      22.543   2.307  51.422  1.00  0.00     0.324 C 
HETATM    9  N2  UNL     1      23.309   3.182  52.266  1.00  0.00    -0.169 NA
HETATM   10  N3  UNL     1      24.533   3.023  52.556  1.00  0.00    -0.134 NA
HETATM   11  C8  UNL     1      25.306   1.944  52.073  1.00  0.00     0.165 C 
HETATM   12  C15 UNL     1      26.321   2.270  51.275  1.00  0.00     0.136 C 
HETATM   13  N5  UNL     1      26.887   3.462  50.735  1.00  0.00    -0.382 N 
HETATM   14  C16 UNL     1      26.470   3.864  49.413  1.00  0.00     0.164 A 
HETATM   15  C17 UNL     1      27.437   4.884  48.932  1.00  0.00     0.042 A 
HETATM   16  C18 UNL     1      27.170   6.104  48.511  1.00  0.00     0.079 A 
HETATM   17  H15 UNL     1      27.581   3.990  51.331  1.00  0.00     0.160 HD
ENDROOT
BRANCH  11  18
HETATM   18  N4  UNL     1      25.237   0.536  52.257  1.00  0.00    -0.338 N 
HETATM   19  H9  UNL     1      25.692  -0.099  51.537  1.00  0.00     0.167 HD
BRANCH  18  20
HETATM   20  C9  UNL     1      24.592  -0.124  53.355  1.00  0.00     0.035 A 
HETATM   21  C10 UNL     1      25.272  -0.533  54.486  1.00  0.00     0.029 A 
HETATM   22  C11 UNL     1      24.629  -1.158  55.513  1.00  0.00     0.004 A 
HETATM   23  C12 UNL     1      23.271  -1.413  55.476  1.00  0.00     0.019 A 
HETATM   24  C13 UNL     1      22.563  -1.011  54.349  1.00  0.00     0.013 A 
HETATM   25 BR1  UNL     1      20.676  -1.327  54.217  1.00  0.00    -0.051 Br
HETATM   26  C14 UNL     1      23.233  -0.375  53.308  1.00  0.00     0.048 A 
ENDBRANCH  18  20
ENDBRANCH  11  18
BRANCH  16  27
HETATM   27  O3  UNL     1      28.193   6.945  48.090  1.00  0.00    -0.355 OA
HETATM   28  C19 UNL     1      29.541   6.527  48.143  1.00  0.00     0.210 C 
ENDBRANCH  16  27
BRANCH   1  29
HETATM   29  O1  UNL     1      26.219   8.743  47.638  1.00  0.00    -0.367 OA
HETATM   30  C1  UNL     1      26.287   9.927  48.412  1.00  0.00     0.208 C 
ENDBRANCH   1  29
TORSDOF 4
ENDMDL
MODEL 2
REMARK VINA RESULT:      -8.2      4.471      7.947
REMARK  4 active torsions:
REMARK  status: ('A' for Active; 'I' for Inactive)
REMARK    1  A    between atoms: O1_2  and  C2_3 
REMARK    2  A    between atoms: C8_13  and  N4_14 
REMARK    3  A    between atoms: N4_14  and  C9_15 
REMARK    4  A    between atoms: C18_26  and  O3_27 
ROOT
HETATM    1  C2  UNL     1      17.535   0.654  50.916  1.00  0.00     0.148 C 
HETATM    2  C3  UNL     1      18.589   0.594  51.717  1.00  0.00     0.021 A 
HETATM    3  C4  UNL     1      19.577   1.658  51.649  1.00  0.00     0.051 A 
HETATM    4  C5  UNL     1      20.611   1.552  52.469  1.00  0.00     0.081 A 
HETATM    5  O2  UNL     1      21.553   2.568  52.400  1.00  0.00    -0.306 OA
HETATM    6  C6  UNL     1      21.324   3.819  51.896  1.00  0.00     0.254 C 
HETATM    7  N1  UNL     1      22.432   4.383  51.575  1.00  0.00    -0.255 NA
HETATM    8  C7  UNL     1      23.724   3.753  51.738  1.00  0.00     0.324 C 
HETATM    9  N2  UNL     1      23.770   2.518  51.005  1.00  0.00    -0.169 NA
HETATM   10  N3  UNL     1      23.993   1.379  51.515  1.00  0.00    -0.134 NA
HETATM   11  C8  UNL     1      24.226   1.184  52.895  1.00  0.00     0.165 C 
HETATM   12  C15 UNL     1      23.319   0.454  53.539  1.00  0.00     0.136 C 
HETATM   13  N5  UNL     1      22.108  -0.230  53.222  1.00  0.00    -0.382 N 
HETATM   14  C16 UNL     1      20.865   0.468  53.447  1.00  0.00     0.164 A 
HETATM   15  C17 UNL     1      19.775  -0.539  53.402  1.00  0.00     0.042 A 
HETATM   16  C18 UNL     1      18.708  -0.531  52.628  1.00  0.00     0.079 A 
HETATM   17  H15 UNL     1      22.185  -1.211  52.838  1.00  0.00     0.160 HD
ENDROOT
BRANCH  11  18
HETATM   18  N4  UNL     1      25.255   1.613  53.779  1.00  0.00    -0.338 N 
HETATM   19  H9  UNL     1      25.002   2.251  54.589  1.00  0.00     0.167 HD
BRANCH  18  20
HETATM   20  C9  UNL     1      26.639   1.251  53.675  1.00  0.00     0.035 A 
HETATM   21  C10 UNL     1      27.662   2.175  53.765  1.00  0.00     0.029 A 
HETATM   22  C11 UNL     1      28.969   1.798  53.661  1.00  0.00     0.004 A 
HETATM   23  C12 UNL     1      29.334   0.480  53.461  1.00  0.00     0.019 A 
HETATM   24  C13 UNL     1      28.323  -0.469  53.366  1.00  0.00     0.013 A 
HETATM   25 BR1  UNL     1      28.743  -2.320  53.088  1.00  0.00    -0.051 Br
HETATM   26  C14 UNL     1      26.994  -0.069  53.474  1.00  0.00     0.048 A 
ENDBRANCH  18  20
ENDBRANCH  11  18
BRANCH  16  27
HETATM   27  O3  UNL     1      17.771  -1.554  52.706  1.00  0.00    -0.355 OA
HETATM   28  C19 UNL     1      17.891  -2.573  53.677  1.00  0.00     0.210 C 
ENDBRANCH  16  27
BRANCH   1  29
HETATM   29  O1  UNL     1      16.462  -0.192  50.766  1.00  0.00    -0.367 OA
HETATM   30  C1  UNL     1      16.164  -0.669  49.466  1.00  0.00     0.208 C 
ENDBRANCH   1  29
TORSDOF 4
ENDMDL
MODEL 3
REMARK VINA RESULT:      -8.2      1.705      1.951
REMARK  4 active torsions:
REMARK  status: ('A' for Active; 'I' for Inactive)
REMARK    1  A    between atoms: O1_2  and  C2_3 
REMARK    2  A    between atoms: C8_13  and  N4_14 
REMARK    3  A    between atoms: N4_14  and  C9_15 
REMARK    4  A    between atoms: C18_26  and  O3_27 
ROOT
HETATM    1  C2  UNL     1      26.100   9.470  49.792  1.00  0.00     0.148 C 
HETATM    2  C3  UNL     1      25.961   8.158  49.664  1.00  0.00     0.021 A 
HETATM    3  C4  UNL     1      24.717   7.544  50.100  1.00  0.00     0.051 A 
HETATM    4  C5  UNL     1      24.628   6.232  49.951  1.00  0.00     0.081 A 
HETATM    5  O2  UNL     1      23.440   5.649  50.369  1.00  0.00    -0.306 OA
HETATM    6  C6  UNL     1      22.252   6.309  50.523  1.00  0.00     0.254 C 
HETATM    7  N1  UNL     1      21.468   5.648  51.296  1.00  0.00    -0.255 NA
HETATM    8  C7  UNL     1      21.826   4.385  51.903  1.00  0.00     0.324 C 
HETATM    9  N2  UNL     1      23.011   4.536  52.702  1.00  0.00    -0.169 NA
HETATM   10  N3  UNL     1      24.091   3.896  52.527  1.00  0.00    -0.134 NA
HETATM   11  C8  UNL     1      24.262   2.938  51.502  1.00  0.00     0.165 C 
HETATM   12  C15 UNL     1      25.175   3.233  50.580  1.00  0.00     0.136 C 
HETATM   13  N5  UNL     1      26.083   4.298  50.308  1.00  0.00    -0.382 N 
HETATM   14  C16 UNL     1      25.657   5.326  49.389  1.00  0.00     0.164 A 
HETATM   15  C17 UNL     1      26.864   6.094  48.990  1.00  0.00     0.042 A 
HETATM   16  C18 UNL     1      27.056   7.394  49.094  1.00  0.00     0.079 A 
HETATM   17  H15 UNL     1      27.020   4.280  50.795  1.00  0.00     0.160 HD
ENDROOT
BRANCH  11  18
HETATM   18  N4  UNL     1      23.652   1.682  51.230  1.00  0.00    -0.338 N 
HETATM   19  H9  UNL     1      23.594   1.347  50.225  1.00  0.00     0.167 HD
BRANCH  18  20
HETATM   20  C9  UNL     1      23.093   0.803  52.217  1.00  0.00     0.035 A 
HETATM   21  C10 UNL     1      23.861   0.170  53.175  1.00  0.00     0.029 A 
HETATM   22  C11 UNL     1      23.299  -0.661  54.099  1.00  0.00     0.004 A 
HETATM   23  C12 UNL     1      21.940  -0.910  54.124  1.00  0.00     0.019 A 
HETATM   24  C13 UNL     1      21.145  -0.284  53.171  1.00  0.00     0.013 A 
HETATM   25 BR1  UNL     1      19.249  -0.575  53.136  1.00  0.00    -0.051 Br
HETATM   26  C14 UNL     1      21.733   0.560  52.234  1.00  0.00     0.048 A 
ENDBRANCH  18  20
ENDBRANCH  11  18
BRANCH  16  27
HETATM   27  O3  UNL     1      28.250   7.967  48.673  1.00  0.00    -0.355 OA
HETATM   28  C19 UNL     1      29.295   7.167  48.159  1.00  0.00     0.210 C 
ENDBRANCH  16  27
BRANCH   1  29
HETATM   29  O1  UNL     1      27.143  10.306  49.471  1.00  0.00    -0.367 OA
HETATM   30  C1  UNL     1      26.956  11.234  48.418  1.00  0.00     0.208 C 
ENDBRANCH   1  29
TORSDOF 4
ENDMDL
MODEL 4
REMARK VINA RESULT:      -8.1      3.932      8.752
REMARK  4 active torsions:
REMARK  status: ('A' for Active; 'I' for Inactive)
REMARK    1  A    between atoms: O1_2  and  C2_3 
REMARK    2  A    between atoms: C8_13  and  N4_14 
REMARK    3  A    between atoms: N4_14  and  C9_15 
REMARK    4  A    between atoms: C18_26  and  O3_27 
ROOT
HETATM    1  C2  UNL     1      19.284  -0.572  53.472  1.00  0.00     0.148 C 
HETATM    2  C3  UNL     1      20.099  -0.097  52.542  1.00  0.00     0.021 A 
HETATM    3  C4  UNL     1      21.508   0.059  52.863  1.00  0.00     0.051 A 
HETATM    4  C5  UNL     1      22.281   0.536  51.900  1.00  0.00     0.081 A 
HETATM    5  O2  UNL     1      23.624   0.685  52.211  1.00  0.00    -0.306 OA
HETATM    6  C6  UNL     1      24.275   0.029  53.220  1.00  0.00     0.254 C 
HETATM    7  N1  UNL     1      25.352   0.651  53.539  1.00  0.00    -0.255 NA
HETATM    8  C7  UNL     1      25.786   1.873  52.898  1.00  0.00     0.324 C 
HETATM    9  N2  UNL     1      24.778   2.889  53.032  1.00  0.00    -0.169 NA
HETATM   10  N3  UNL     1      24.206   3.476  52.066  1.00  0.00    -0.134 NA
HETATM   11  C8  UNL     1      24.496   3.195  50.712  1.00  0.00     0.165 C 
HETATM   12  C15 UNL     1      23.496   2.680  50.000  1.00  0.00     0.136 C 
HETATM   13  N5  UNL     1      22.137   2.308  50.220  1.00  0.00    -0.382 N 
HETATM   14  C16 UNL     1      21.862   0.926  50.533  1.00  0.00     0.164 A 
HETATM   15  C17 UNL     1      20.404   0.711  50.355  1.00  0.00     0.042 A 
HETATM   16  C18 UNL     1      19.548   0.244  51.242  1.00  0.00     0.079 A 
HETATM   17  H15 UNL     1      21.403   3.063  50.143  1.00  0.00     0.160 HD
ENDROOT
BRANCH  11  18
HETATM   18  N4  UNL     1      25.663   3.346  49.914  1.00  0.00    -0.338 N 
HETATM   19  H9  UNL     1      26.284   2.501  49.747  1.00  0.00     0.167 HD
BRANCH  18  20
HETATM   20  C9  UNL     1      26.090   4.568  49.297  1.00  0.00     0.035 A 
HETATM   21  C10 UNL     1      25.226   5.611  49.023  1.00  0.00     0.029 A 
HETATM   22  C11 UNL     1      25.664   6.760  48.435  1.00  0.00     0.004 A 
HETATM   23  C12 UNL     1      26.988   6.941  48.084  1.00  0.00     0.019 A 
HETATM   24  C13 UNL     1      27.879   5.908  48.349  1.00  0.00     0.013 A 
HETATM   25 BR1  UNL     1      29.735   6.076  47.894  1.00  0.00    -0.051 Br
HETATM   26  C14 UNL     1      27.417   4.740  48.950  1.00  0.00     0.048 A 
ENDBRANCH  18  20
ENDBRANCH  11  18
BRANCH  16  27
HETATM   27  O3  UNL     1      18.205   0.100  50.920  1.00  0.00    -0.355 OA
HETATM   28  C19 UNL     1      17.360   1.227  50.819  1.00  0.00     0.210 C 
ENDBRANCH  16  27
BRANCH   1  29
HETATM   29  O1  UNL     1      17.932  -0.821  53.452  1.00  0.00    -0.367 OA
HETATM   30  C1  UNL     1      17.501  -2.170  53.454  1.00  0.00     0.208 C 
ENDBRANCH   1  29
TORSDOF 4
ENDMDL
MODEL 5
REMARK VINA RESULT:      -8.1      1.532      1.803
REMARK  4 active torsions:
REMARK  status: ('A' for Active; 'I' for Inactive)
REMARK    1  A    between atoms: O1_2  and  C2_3 
REMARK    2  A    between atoms: C8_13  and  N4_14 
REMARK    3  A    between atoms: N4_14  and  C9_15 
REMARK    4  A    between atoms: C18_26  and  O3_27 
ROOT
HETATM    1  C2  UNL     1      27.542   8.654  48.090  1.00  0.00     0.148 C 
HETATM    2  C3  UNL     1      27.289   7.380  48.354  1.00  0.00     0.021 A 
HETATM    3  C4  UNL     1      25.914   6.979  48.600  1.00  0.00     0.051 A 
HETATM    4  C5  UNL     1      25.714   5.697  48.859  1.00  0.00     0.081 A 
HETATM    5  O2  UNL     1      24.401   5.318  49.095  1.00  0.00    -0.306 OA
HETATM    6  C6  UNL     1      23.296   6.019  48.696  1.00  0.00     0.254 C 
HETATM    7  N1  UNL     1      22.272   5.678  49.390  1.00  0.00    -0.255 NA
HETATM    8  C7  UNL     1      22.317   4.686  50.442  1.00  0.00     0.324 C 
HETATM    9  N2  UNL     1      23.271   5.070  51.446  1.00  0.00    -0.169 NA
HETATM   10  N3  UNL     1      24.279   4.383  51.790  1.00  0.00    -0.134 NA
HETATM   11  C8  UNL     1      24.591   3.131  51.214  1.00  0.00     0.165 C 
HETATM   12  C15 UNL     1      25.735   3.075  50.536  1.00  0.00     0.136 C 
HETATM   13  N5  UNL     1      26.799   3.964  50.202  1.00  0.00    -0.382 N 
HETATM   14  C16 UNL     1      26.741   4.630  48.923  1.00  0.00     0.164 A 
HETATM   15  C17 UNL     1      28.089   5.189  48.650  1.00  0.00     0.042 A 
HETATM   16  C18 UNL     1      28.398   6.443  48.383  1.00  0.00     0.079 A 
HETATM   17  H15 UNL     1      27.575   4.089  50.908  1.00  0.00     0.160 HD
ENDROOT
BRANCH  11  18
HETATM   18  N4  UNL     1      23.929   1.872  51.198  1.00  0.00    -0.338 N 
HETATM   19  H9  UNL     1      23.388   1.588  50.330  1.00  0.00     0.167 HD
BRANCH  18  20
HETATM   20  C9  UNL     1      23.927   0.926  52.276  1.00  0.00     0.035 A 
HETATM   21  C10 UNL     1      25.077   0.546  52.941  1.00  0.00     0.029 A 
HETATM   22  C11 UNL     1      25.040  -0.357  53.962  1.00  0.00     0.004 A 
HETATM   23  C12 UNL     1      23.857  -0.935  54.383  1.00  0.00     0.019 A 
HETATM   24  C13 UNL     1      22.685  -0.569  53.731  1.00  0.00     0.013 A 
HETATM   25 BR1  UNL     1      21.000  -1.323  54.251  1.00  0.00    -0.051 Br
HETATM   26  C14 UNL     1      22.738   0.354  52.689  1.00  0.00     0.048 A 
ENDBRANCH  18  20
ENDBRANCH  11  18
BRANCH  16  27
HETATM   27  O3  UNL     1      29.717   6.810  48.149  1.00  0.00    -0.355 OA
HETATM   28  C19 UNL     1      30.784   6.085  48.724  1.00  0.00     0.210 C 
ENDBRANCH  16  27
BRANCH   1  29
HETATM   29  O1  UNL     1      28.722   9.307  47.821  1.00  0.00    -0.367 OA
HETATM   30  C1  UNL     1      29.198  10.244  48.770  1.00  0.00     0.208 C 
ENDBRANCH   1  29
TORSDOF 4
ENDMDL
MODEL 6
REMARK VINA RESULT:      -8.1      3.864      8.579
REMARK  4 active torsions:
REMARK  status: ('A' for Active; 'I' for Inactive)
REMARK    1  A    between atoms: O1_2  and  C2_3 
REMARK    2  A    between atoms: C8_13  and  N4_14 
REMARK    3  A    between atoms: N4_14  and  C9_15 
REMARK    4  A    between atoms: C18_26  and  O3_27 
ROOT
HETATM    1  C2  UNL     1      22.714   0.066  53.096  1.00  0.00     0.148 C 
HETATM    2  C3  UNL     1      23.715   0.848  52.721  1.00  0.00     0.021 A 
HETATM    3  C4  UNL     1      23.431   2.238  52.401  1.00  0.00     0.051 A 
HETATM    4  C5  UNL     1      24.465   2.977  52.032  1.00  0.00     0.081 A 
HETATM    5  O2  UNL     1      24.190   4.302  51.726  1.00  0.00    -0.306 OA
HETATM    6  C6  UNL     1      23.088   4.995  52.149  1.00  0.00     0.254 C 
HETATM    7  N1  UNL     1      22.884   6.016  51.399  1.00  0.00    -0.255 NA
HETATM    8  C7  UNL     1      23.723   6.357  50.271  1.00  0.00     0.324 C 
HETATM    9  N2  UNL     1      23.756   5.270  49.331  1.00  0.00    -0.169 NA
HETATM   10  N3  UNL     1      24.804   4.661  48.961  1.00  0.00    -0.134 NA
HETATM   11  C8  UNL     1      26.093   4.984  49.442  1.00  0.00     0.165 C 
HETATM   12  C15 UNL     1      26.704   4.034  50.146  1.00  0.00     0.136 C 
HETATM   13  N5  UNL     1      26.417   2.708  50.584  1.00  0.00    -0.382 N 
HETATM   14  C16 UNL     1      25.875   2.541  51.911  1.00  0.00     0.164 A 
HETATM   15  C17 UNL     1      26.008   1.106  52.269  1.00  0.00     0.042 A 
HETATM   16  C18 UNL     1      25.050   0.282  52.648  1.00  0.00     0.079 A 
HETATM   17  H15 UNL     1      26.617   1.916  49.914  1.00  0.00     0.160 HD
ENDROOT
BRANCH  11  18
HETATM   18  N4  UNL     1      26.912   6.142  49.333  1.00  0.00    -0.338 N 
HETATM   19  H9  UNL     1      27.479   6.450  50.176  1.00  0.00     0.167 HD
BRANCH  18  20
HETATM   20  C9  UNL     1      27.044   6.954  48.158  1.00  0.00     0.035 A 
HETATM   21  C10 UNL     1      25.969   7.572  47.550  1.00  0.00     0.029 A 
HETATM   22  C11 UNL     1      26.129   8.337  46.433  1.00  0.00     0.004 A 
HETATM   23  C12 UNL     1      27.369   8.532  45.854  1.00  0.00     0.019 A 
HETATM   24  C13 UNL     1      28.468   7.921  46.447  1.00  0.00     0.013 A 
HETATM   25 BR1  UNL     1      30.224   8.140  45.708  1.00  0.00    -0.051 Br
HETATM   26  C14 UNL     1      28.289   7.142  47.587  1.00  0.00     0.048 A 
ENDBRANCH  18  20
ENDBRANCH  11  18
BRANCH  16  27
HETATM   27  O3  UNL     1      25.337  -1.043  52.951  1.00  0.00    -0.355 OA
HETATM   28  C19 UNL     1      26.624  -1.577  52.717  1.00  0.00     0.210 C 
ENDBRANCH  16  27
BRANCH   1  29
HETATM   29  O1  UNL     1      22.685  -1.262  53.453  1.00  0.00    -0.367 OA
HETATM   30  C1  UNL     1      21.871  -1.643  54.548  1.00  0.00     0.208 C 
ENDBRANCH   1  29
TORSDOF 4
ENDMDL
MODEL 7
REMARK VINA RESULT:      -7.7      2.017      2.410
REMARK  4 active torsions:
REMARK  status: ('A' for Active; 'I' for Inactive)
REMARK    1  A    between atoms: O1_2  and  C2_3 
REMARK    2  A    between atoms: C8_13  and  N4_14 
REMARK    3  A    between atoms: N4_14  and  C9_15 
REMARK    4  A    between atoms: C18_26  and  O3_27 
ROOT
HETATM    1  C2  UNL     1      25.309   9.191  47.655  1.00  0.00     0.148 C 
HETATM    2  C3  UNL     1      25.577   7.948  48.026  1.00  0.00     0.021 A 
HETATM    3  C4  UNL     1      24.469   7.032  48.244  1.00  0.00     0.051 A 
HETATM    4  C5  UNL     1      24.789   5.801  48.613  1.00  0.00     0.081 A 
HETATM    5  O2  UNL     1      23.730   4.931  48.822  1.00  0.00    -0.306 OA
HETATM    6  C6  UNL     1      22.472   5.085  48.306  1.00  0.00     0.254 C 
HETATM    7  N1  UNL     1      21.622   4.398  48.981  1.00  0.00    -0.255 NA
HETATM    8  C7  UNL     1      21.982   3.585  50.122  1.00  0.00     0.324 C 
HETATM    9  N2  UNL     1      22.611   4.395  51.129  1.00  0.00    -0.169 NA
HETATM   10  N3  UNL     1      23.780   4.210  51.584  1.00  0.00    -0.134 NA
HETATM   11  C8  UNL     1      24.622   3.164  51.143  1.00  0.00     0.165 C 
HETATM   12  C15 UNL     1      25.740   3.540  50.528  1.00  0.00     0.136 C 
HETATM   13  N5  UNL     1      26.373   4.765  50.163  1.00  0.00    -0.382 N 
HETATM   14  C16 UNL     1      26.153   5.261  48.825  1.00  0.00     0.164 A 
HETATM   15  C17 UNL     1      27.173   6.308  48.565  1.00  0.00     0.042 A 
HETATM   16  C18 UNL     1      26.965   7.556  48.196  1.00  0.00     0.079 A 
HETATM   17  H15 UNL     1      26.969   5.246  50.890  1.00  0.00     0.160 HD
ENDROOT
BRANCH  11  18
HETATM   18  N4  UNL     1      24.534   1.746  51.216  1.00  0.00    -0.338 N 
HETATM   19  H9  UNL     1      24.207   1.208  50.361  1.00  0.00     0.167 HD
BRANCH  18  20
HETATM   20  C9  UNL     1      24.855   0.956  52.369  1.00  0.00     0.035 A 
HETATM   21  C10 UNL     1      23.914   0.203  53.045  1.00  0.00     0.029 A 
HETATM   22  C11 UNL     1      24.252  -0.538  54.139  1.00  0.00     0.004 A 
HETATM   23  C12 UNL     1      25.546  -0.574  54.624  1.00  0.00     0.019 A 
HETATM   24  C13 UNL     1      26.511   0.174  53.961  1.00  0.00     0.013 A 
HETATM   25 BR1  UNL     1      28.330   0.181  54.569  1.00  0.00    -0.051 Br
HETATM   26  C14 UNL     1      26.151   0.927  52.847  1.00  0.00     0.048 A 
ENDBRANCH  18  20
ENDBRANCH  11  18
BRANCH  16  27
HETATM   27  O3  UNL     1      28.034   8.419  47.990  1.00  0.00    -0.355 OA
HETATM   28  C19 UNL     1      29.161   8.391  48.841  1.00  0.00     0.210 C 
ENDBRANCH  16  27
BRANCH   1  29
HETATM   29  O1  UNL     1      26.137  10.254  47.382  1.00  0.00    -0.367 OA
HETATM   30  C1  UNL     1      26.060  11.394  48.219  1.00  0.00     0.208 C 
ENDBRANCH   1  29
TORSDOF 4
ENDMDL
MODEL 8
REMARK VINA RESULT:      -7.6      2.430      3.747
REMARK  4 active torsions:
REMARK  status: ('A' for Active; 'I' for Inactive)
REMARK    1  A    between atoms: O1_2  and  C2_3 
REMARK    2  A    between atoms: C8_13  and  N4_14 
REMARK    3  A    between atoms: N4_14  and  C9_15 
REMARK    4  A    between atoms: C18_26  and  O3_27 
ROOT
HETATM    1  C2  UNL     1      29.570   9.255  48.310  1.00  0.00     0.148 C 
HETATM    2  C3  UNL     1      29.010   8.054  48.317  1.00  0.00     0.021 A 
HETATM    3  C4  UNL     1      27.561   7.961  48.246  1.00  0.00     0.051 A 
HETATM    4  C5  UNL     1      27.050   6.740  48.256  1.00  0.00     0.081 A 
HETATM    5  O2  UNL     1      25.667   6.655  48.189  1.00  0.00    -0.306 OA
HETATM    6  C6  UNL     1      24.841   7.637  47.715  1.00  0.00     0.254 C 
HETATM    7  N1  UNL     1      23.645   7.467  48.151  1.00  0.00    -0.255 NA
HETATM    8  C7  UNL     1      23.262   6.377  49.021  1.00  0.00     0.324 C 
HETATM    9  N2  UNL     1      24.041   6.407  50.228  1.00  0.00    -0.169 NA
HETATM   10  N3  UNL     1      24.790   5.468  50.633  1.00  0.00    -0.134 NA
HETATM   11  C8  UNL     1      24.951   4.253  49.929  1.00  0.00     0.165 C 
HETATM   12  C15 UNL     1      26.175   4.010  49.467  1.00  0.00     0.136 C 
HETATM   13  N5  UNL     1      27.446   4.657  49.476  1.00  0.00    -0.382 N 
HETATM   14  C16 UNL     1      27.797   5.462  48.331  1.00  0.00     0.164 A 
HETATM   15  C17 UNL     1      29.259   5.717  48.397  1.00  0.00     0.042 A 
HETATM   16  C18 UNL     1      29.869   6.886  48.394  1.00  0.00     0.079 A 
HETATM   17  H15 UNL     1      28.064   4.514  50.321  1.00  0.00     0.160 HD
ENDROOT
BRANCH  11  18
HETATM   18  N4  UNL     1      24.062   3.196  49.595  1.00  0.00    -0.338 N 
HETATM   19  H9  UNL     1      23.813   3.038  48.574  1.00  0.00     0.167 HD
BRANCH  18  20
HETATM   20  C9  UNL     1      23.454   2.298  50.534  1.00  0.00     0.035 A 
HETATM   21  C10 UNL     1      24.143   1.748  51.597  1.00  0.00     0.029 A 
HETATM   22  C11 UNL     1      23.535   0.897  52.472  1.00  0.00     0.004 A 
HETATM   23  C12 UNL     1      22.206   0.543  52.341  1.00  0.00     0.019 A 
HETATM   24  C13 UNL     1      21.489   1.082  51.279  1.00  0.00     0.013 A 
HETATM   25 BR1  UNL     1      19.640   0.643  51.024  1.00  0.00    -0.051 Br
HETATM   26  C14 UNL     1      22.123   1.949  50.394  1.00  0.00     0.048 A 
ENDBRANCH  18  20
ENDBRANCH  11  18
BRANCH  16  27
HETATM   27  O3  UNL     1      31.255   6.959  48.462  1.00  0.00    -0.355 OA
HETATM   28  C19 UNL     1      31.956   6.403  49.555  1.00  0.00     0.210 C 
ENDBRANCH  16  27
BRANCH   1  29
HETATM   29  O1  UNL     1      30.888   9.640  48.365  1.00  0.00    -0.367 OA
HETATM   30  C1  UNL     1      31.216  10.961  47.973  1.00  0.00     0.208 C 
ENDBRANCH   1  29
TORSDOF 4
ENDMDL
MODEL 9
REMARK VINA RESULT:      -7.3      3.804      5.092
REMARK  4 active torsions:
REMARK  status: ('A' for Active; 'I' for Inactive)
REMARK    1  A    between atoms: O1_2  and  C2_3 
REMARK    2  A    between atoms: C8_13  and  N4_14 
REMARK    3  A    between atoms: N4_14  and  C9_15 
REMARK    4  A    between atoms: C18_26  and  O3_27 
ROOT
HETATM    1  C2  UNL     1      29.423   8.653  47.377  1.00  0.00     0.148 C 
HETATM    2  C3  UNL     1      28.623   7.670  47.764  1.00  0.00     0.021 A 
HETATM    3  C4  UNL     1      27.202   7.941  47.898  1.00  0.00     0.051 A 
HETATM    4  C5  UNL     1      26.445   6.927  48.286  1.00  0.00     0.081 A 
HETATM    5  O2  UNL     1      25.089   7.189  48.414  1.00  0.00    -0.306 OA
HETATM    6  C6  UNL     1      24.427   8.221  47.808  1.00  0.00     0.254 C 
HETATM    7  N1  UNL     1      23.324   8.467  48.416  1.00  0.00    -0.255 NA
HETATM    8  C7  UNL     1      22.874   7.734  49.579  1.00  0.00     0.324 C 
HETATM    9  N2  UNL     1      23.848   7.828  50.632  1.00  0.00    -0.169 NA
HETATM   10  N3  UNL     1      24.433   6.841  51.171  1.00  0.00    -0.134 NA
HETATM   11  C8  UNL     1      24.191   5.501  50.792  1.00  0.00     0.165 C 
HETATM   12  C15 UNL     1      25.227   4.853  50.262  1.00  0.00     0.136 C 
HETATM   13  N5  UNL     1      26.588   5.136  49.946  1.00  0.00    -0.382 N 
HETATM   14  C16 UNL     1      26.893   5.549  48.598  1.00  0.00     0.164 A 
HETATM   15  C17 UNL     1      28.362   5.426  48.416  1.00  0.00     0.042 A 
HETATM   16  C18 UNL     1      29.204   6.367  48.035  1.00  0.00     0.079 A 
HETATM   17  H15 UNL     1      27.303   5.029  50.717  1.00  0.00     0.160 HD
ENDROOT
BRANCH  11  18
HETATM   18  N4  UNL     1      23.045   4.662  50.854  1.00  0.00    -0.338 N 
HETATM   19  H9  UNL     1      22.418   4.713  51.709  1.00  0.00     0.167 HD
BRANCH  18  20
HETATM   20  C9  UNL     1      22.647   3.729  49.840  1.00  0.00     0.035 A 
HETATM   21  C10 UNL     1      22.452   2.385  50.095  1.00  0.00     0.029 A 
HETATM   22  C11 UNL     1      22.074   1.523  49.108  1.00  0.00     0.004 A 
HETATM   23  C12 UNL     1      21.868   1.948  47.809  1.00  0.00     0.019 A 
HETATM   24  C13 UNL     1      22.056   3.295  47.526  1.00  0.00     0.013 A 
HETATM   25 BR1  UNL     1      21.791   3.967  45.750  1.00  0.00    -0.051 Br
HETATM   26  C14 UNL     1      22.443   4.163  48.544  1.00  0.00     0.048 A 
ENDBRANCH  18  20
ENDBRANCH  11  18
BRANCH  16  27
HETATM   27  O3  UNL     1      30.560   6.093  47.911  1.00  0.00    -0.355 OA
HETATM   28  C19 UNL     1      31.352   5.830  49.051  1.00  0.00     0.210 C 
ENDBRANCH  16  27
BRANCH   1  29
HETATM   29  O1  UNL     1      30.782   8.687  47.168  1.00  0.00    -0.367 OA
HETATM   30  C1  UNL     1      31.574   9.466  48.047  1.00  0.00     0.208 C 
ENDBRANCH   1  29
TORSDOF 4
ENDMDL
