MODEL 1
REMARK VINA RESULT:     -10.3      0.000      0.000
REMARK  2 active torsions:
REMARK  status: ('A' for Active; 'I' for Inactive)
REMARK    1  A    between atoms: C3_4  and  C4_5 
REMARK    2  A    between atoms: C9_12  and  C10_13 
ROOT
HETATM    1  C4  UNL     1      25.054   0.594  52.804  1.00  0.00    -0.022 A 
HETATM    2  C5  UNL     1      23.875  -0.011  53.171  1.00  0.00     0.014 A 
HETATM    3  C6  UNL     1      22.655   0.297  52.607  1.00  0.00     0.033 A 
HETATM    4  C7  UNL     1      22.638   1.265  51.625  1.00  0.00     0.070 A 
HETATM    5  N2  UNL     1      21.479   1.627  51.019  1.00  0.00    -0.241 NA
HETATM    6  C8  UNL     1      21.543   2.582  50.067  1.00  0.00     0.234 A 
HETATM    7  N3  UNL     1      22.688   3.209  49.670  1.00  0.00    -0.240 NA
HETATM    8  C9  UNL     1      23.859   2.852  50.273  1.00  0.00     0.082 A 
HETATM    9  C18 UNL     1      23.816   1.878  51.249  1.00  0.00     0.023 A 
HETATM   10  C19 UNL     1      25.043   1.577  51.807  1.00  0.00     0.028 A 
ENDROOT
BRANCH   8  11
HETATM   11  C10 UNL     1      25.000   3.575  49.779  1.00  0.00     0.008 A 
HETATM   12  C11 UNL     1      26.257   3.317  49.537  1.00  0.00     0.020 A 
HETATM   13  C12 UNL     1      26.948   4.323  49.074  1.00  0.00     0.078 A 
HETATM   14  N4  UNL     1      28.245   4.497  48.699  1.00  0.00    -0.259 NA
HETATM   15  C16 UNL     1      26.087   5.415  48.976  1.00  0.00    -0.006 A 
HETATM   16  C13 UNL     1      28.713   5.682  48.241  1.00  0.00     0.117 A 
HETATM   17  C14 UNL     1      27.897   6.805  48.122  1.00  0.00     0.020 A 
HETATM   18  C15 UNL     1      26.586   6.614  48.505  1.00  0.00     0.015 A 
HETATM   19  C17 UNL     1      24.889   4.999  49.395  1.00  0.00     0.028 A 
ENDBRANCH   8  11
BRANCH   1  20
HETATM   20  C3  UNL     1      26.333   0.252  53.415  1.00  0.00     0.010 A 
HETATM   21  C2  UNL     1      27.558  -0.089  52.863  1.00  0.00     0.125 A 
HETATM   22  N1  UNL     1      28.455  -0.324  53.831  1.00  0.00    -0.285 N 
HETATM   23  C1  UNL     1      29.830  -0.702  53.647  1.00  0.00     0.179 C 
HETATM   24  N5  UNL     1      27.839  -0.143  54.984  1.00  0.00    -0.185 NA
HETATM   25  C20 UNL     1      26.564   0.204  54.795  1.00  0.00     0.152 A 
ENDBRANCH   1  20
TORSDOF 2
ENDMDL
MODEL 2
REMARK VINA RESULT:      -9.7      1.672      6.211
REMARK  2 active torsions:
REMARK  status: ('A' for Active; 'I' for Inactive)
REMARK    1  A    between atoms: C3_4  and  C4_5 
REMARK    2  A    between atoms: C9_12  and  C10_13 
ROOT
HETATM    1  C4  UNL     1      22.932   2.473  50.857  1.00  0.00    -0.022 A 
HETATM    2  C5  UNL     1      21.571   2.316  50.740  1.00  0.00     0.014 A 
HETATM    3  C6  UNL     1      20.847   1.391  51.463  1.00  0.00     0.033 A 
HETATM    4  C7  UNL     1      21.545   0.590  52.342  1.00  0.00     0.070 A 
HETATM    5  N2  UNL     1      20.909  -0.346  53.091  1.00  0.00    -0.241 NA
HETATM    6  C8  UNL     1      21.659  -1.092  53.930  1.00  0.00     0.234 A 
HETATM    7  N3  UNL     1      23.010  -0.972  54.079  1.00  0.00    -0.240 NA
HETATM    8  C9  UNL     1      23.659  -0.034  53.331  1.00  0.00     0.082 A 
HETATM    9  C18 UNL     1      22.911   0.739  52.467  1.00  0.00     0.023 A 
HETATM   10  C19 UNL     1      23.644   1.663  51.749  1.00  0.00     0.028 A 
ENDROOT
BRANCH   8  11
HETATM   11  C10 UNL     1      25.077   0.005  53.568  1.00  0.00     0.008 A 
HETATM   12  C11 UNL     1      25.908   0.751  54.244  1.00  0.00     0.020 A 
HETATM   13  C12 UNL     1      27.162   0.396  54.163  1.00  0.00     0.078 A 
HETATM   14  N4  UNL     1      28.324   0.873  54.687  1.00  0.00    -0.259 NA
HETATM   15  C16 UNL     1      27.228  -0.727  53.339  1.00  0.00    -0.006 A 
HETATM   16  C13 UNL     1      29.522   0.295  54.433  1.00  0.00     0.117 A 
HETATM   17  C14 UNL     1      29.646  -0.828  53.619  1.00  0.00     0.020 A 
HETATM   18  C15 UNL     1      28.461  -1.300  53.095  1.00  0.00     0.015 A 
HETATM   19  C17 UNL     1      25.978  -0.998  52.957  1.00  0.00     0.028 A 
ENDBRANCH   8  11
BRANCH   1  20
HETATM   20  C3  UNL     1      23.676   3.459  50.083  1.00  0.00     0.010 A 
HETATM   21  C2  UNL     1      25.011   3.828  50.098  1.00  0.00     0.125 A 
HETATM   22  N1  UNL     1      25.237   4.794  49.196  1.00  0.00    -0.285 N 
HETATM   23  C1  UNL     1      26.498   5.429  48.923  1.00  0.00     0.179 C 
HETATM   24  N5  UNL     1      24.086   5.052  48.606  1.00  0.00    -0.185 NA
HETATM   25  C20 UNL     1      23.114   4.281  49.098  1.00  0.00     0.152 A 
ENDBRANCH   1  20
TORSDOF 2
ENDMDL
MODEL 3
REMARK VINA RESULT:      -9.6      1.473      2.120
REMARK  2 active torsions:
REMARK  status: ('A' for Active; 'I' for Inactive)
REMARK    1  A    between atoms: C3_4  and  C4_5 
REMARK    2  A    between atoms: C9_12  and  C10_13 
ROOT
HETATM    1  C4  UNL     1      24.594   0.035  53.692  1.00  0.00    -0.022 A 
HETATM    2  C5  UNL     1      23.619  -0.778  54.219  1.00  0.00     0.014 A 
HETATM    3  C6  UNL     1      22.269  -0.563  54.038  1.00  0.00     0.033 A 
HETATM    4  C7  UNL     1      21.899   0.532  53.286  1.00  0.00     0.070 A 
HETATM    5  N2  UNL     1      20.591   0.816  53.060  1.00  0.00    -0.241 NA
HETATM    6  C8  UNL     1      20.307   1.905  52.315  1.00  0.00     0.234 A 
HETATM    7  N3  UNL     1      21.240   2.740  51.772  1.00  0.00    -0.240 NA
HETATM    8  C9  UNL     1      22.557   2.464  51.993  1.00  0.00     0.082 A 
HETATM    9  C18 UNL     1      22.869   1.355  52.753  1.00  0.00     0.023 A 
HETATM   10  C19 UNL     1      24.223   1.148  52.928  1.00  0.00     0.028 A 
ENDROOT
BRANCH   8  11
HETATM   11  C10 UNL     1      23.451   3.407  51.377  1.00  0.00     0.008 A 
HETATM   12  C11 UNL     1      23.641   4.698  51.410  1.00  0.00     0.020 A 
HETATM   13  C12 UNL     1      24.610   5.134  50.652  1.00  0.00     0.078 A 
HETATM   14  N4  UNL     1      25.137   6.361  50.389  1.00  0.00    -0.259 NA
HETATM   15  C16 UNL     1      25.172   4.030  50.011  1.00  0.00    -0.006 A 
HETATM   16  C13 UNL     1      26.174   6.536  49.535  1.00  0.00     0.117 A 
HETATM   17  C14 UNL     1      26.772   5.469  48.869  1.00  0.00     0.020 A 
HETATM   18  C15 UNL     1      26.229   4.232  49.146  1.00  0.00     0.015 A 
HETATM   19  C17 UNL     1      24.493   2.958  50.427  1.00  0.00     0.028 A 
ENDBRANCH   8  11
BRANCH   1  20
HETATM   20  C3  UNL     1      26.016  -0.213  53.897  1.00  0.00     0.010 A 
HETATM   21  C2  UNL     1      26.959  -0.871  53.124  1.00  0.00     0.125 A 
HETATM   22  N1  UNL     1      28.155  -0.846  53.728  1.00  0.00    -0.285 N 
HETATM   23  C1  UNL     1      29.374  -1.424  53.232  1.00  0.00     0.179 C 
HETATM   24  N5  UNL     1      28.004  -0.192  54.864  1.00  0.00    -0.185 NA
HETATM   25  C20 UNL     1      26.741   0.211  55.018  1.00  0.00     0.152 A 
ENDBRANCH   1  20
TORSDOF 2
ENDMDL
MODEL 4
REMARK VINA RESULT:      -9.3      2.009      5.610
REMARK  2 active torsions:
REMARK  status: ('A' for Active; 'I' for Inactive)
REMARK    1  A    between atoms: C3_4  and  C4_5 
REMARK    2  A    between atoms: C9_12  and  C10_13 
ROOT
HETATM    1  C4  UNL     1      21.911  -0.364  53.436  1.00  0.00    -0.022 A 
HETATM    2  C5  UNL     1      22.048  -1.317  54.417  1.00  0.00     0.014 A 
HETATM    3  C6  UNL     1      23.223  -1.537  55.106  1.00  0.00     0.033 A 
HETATM    4  C7  UNL     1      24.305  -0.748  54.777  1.00  0.00     0.070 A 
HETATM    5  N2  UNL     1      25.498  -0.899  55.406  1.00  0.00    -0.241 NA
HETATM    6  C8  UNL     1      26.511  -0.091  55.030  1.00  0.00     0.234 A 
HETATM    7  N3  UNL     1      26.422   0.868  54.062  1.00  0.00    -0.240 NA
HETATM    8  C9  UNL     1      25.227   1.029  53.423  1.00  0.00     0.082 A 
HETATM    9  C18 UNL     1      24.178   0.211  53.793  1.00  0.00     0.023 A 
HETATM   10  C19 UNL     1      23.007   0.439  53.098  1.00  0.00     0.028 A 
ENDROOT
BRANCH   8  11
HETATM   11  C10 UNL     1      25.247   2.064  52.425  1.00  0.00     0.008 A 
HETATM   12  C11 UNL     1      24.494   3.076  52.091  1.00  0.00     0.020 A 
HETATM   13  C12 UNL     1      24.924   3.772  51.073  1.00  0.00     0.078 A 
HETATM   14  N4  UNL     1      24.470   4.870  50.409  1.00  0.00    -0.259 NA
HETATM   15  C16 UNL     1      26.114   3.190  50.638  1.00  0.00    -0.006 A 
HETATM   16  C13 UNL     1      25.132   5.402  49.354  1.00  0.00     0.117 A 
HETATM   17  C14 UNL     1      26.324   4.861  48.878  1.00  0.00     0.020 A 
HETATM   18  C15 UNL     1      26.772   3.750  49.561  1.00  0.00     0.015 A 
HETATM   19  C17 UNL     1      26.345   2.146  51.437  1.00  0.00     0.028 A 
ENDBRANCH   8  11
BRANCH   1  20
HETATM   20  C3  UNL     1      20.659  -0.150  52.721  1.00  0.00     0.010 A 
HETATM   21  C2  UNL     1      20.386   0.419  51.487  1.00  0.00     0.125 A 
HETATM   22  N1  UNL     1      19.067   0.397  51.247  1.00  0.00    -0.285 N 
HETATM   23  C1  UNL     1      18.405   0.897  50.072  1.00  0.00     0.179 C 
HETATM   24  N5  UNL     1      18.491  -0.169  52.291  1.00  0.00    -0.185 NA
HETATM   25  C20 UNL     1      19.397  -0.517  53.206  1.00  0.00     0.152 A 
ENDBRANCH   1  20
TORSDOF 2
ENDMDL
MODEL 5
REMARK VINA RESULT:      -9.1      3.066      6.443
REMARK  2 active torsions:
REMARK  status: ('A' for Active; 'I' for Inactive)
REMARK    1  A    between atoms: C3_4  and  C4_5 
REMARK    2  A    between atoms: C9_12  and  C10_13 
ROOT
HETATM    1  C4  UNL     1      21.505   1.371  50.526  1.00  0.00    -0.022 A 
HETATM    2  C5  UNL     1      20.211   0.928  50.672  1.00  0.00     0.014 A 
HETATM    3  C6  UNL     1      19.789   0.149  51.729  1.00  0.00     0.033 A 
HETATM    4  C7  UNL     1      20.730  -0.193  52.678  1.00  0.00     0.070 A 
HETATM    5  N2  UNL     1      20.398  -0.958  53.749  1.00  0.00    -0.241 NA
HETATM    6  C8  UNL     1      21.373  -1.251  54.634  1.00  0.00     0.234 A 
HETATM    7  N3  UNL     1      22.669  -0.835  54.531  1.00  0.00    -0.240 NA
HETATM    8  C9  UNL     1      23.013  -0.066  53.458  1.00  0.00     0.082 A 
HETATM    9  C18 UNL     1      22.031   0.245  52.540  1.00  0.00     0.023 A 
HETATM   10  C19 UNL     1      22.463   1.026  51.486  1.00  0.00     0.028 A 
ENDROOT
BRANCH   8  11
HETATM   11  C10 UNL     1      24.400   0.315  53.449  1.00  0.00     0.008 A 
HETATM   12  C11 UNL     1      25.081   1.426  53.509  1.00  0.00     0.020 A 
HETATM   13  C12 UNL     1      26.378   1.284  53.466  1.00  0.00     0.078 A 
HETATM   14  N4  UNL     1      27.434   2.142  53.499  1.00  0.00    -0.259 NA
HETATM   15  C16 UNL     1      26.647  -0.081  53.364  1.00  0.00    -0.006 A 
HETATM   16  C13 UNL     1      28.717   1.713  53.436  1.00  0.00     0.117 A 
HETATM   17  C14 UNL     1      29.043   0.363  53.334  1.00  0.00     0.020 A 
HETATM   18  C15 UNL     1      27.963  -0.495  53.302  1.00  0.00     0.015 A 
HETATM   19  C17 UNL     1      25.467  -0.706  53.352  1.00  0.00     0.028 A 
ENDBRANCH   8  11
BRANCH   1  20
HETATM   20  C3  UNL     1      21.928   2.194  49.400  1.00  0.00     0.010 A 
HETATM   21  C2  UNL     1      21.457   2.291  48.100  1.00  0.00     0.125 A 
HETATM   22  N1  UNL     1      22.171   3.196  47.414  1.00  0.00    -0.285 N 
HETATM   23  C1  UNL     1      21.978   3.570  46.039  1.00  0.00     0.179 C 
HETATM   24  N5  UNL     1      23.082   3.679  48.238  1.00  0.00    -0.185 NA
HETATM   25  C20 UNL     1      22.983   3.114  49.443  1.00  0.00     0.152 A 
ENDBRANCH   1  20
TORSDOF 2
ENDMDL
MODEL 6
REMARK VINA RESULT:      -8.8      2.342      7.377
REMARK  2 active torsions:
REMARK  status: ('A' for Active; 'I' for Inactive)
REMARK    1  A    between atoms: C3_4  and  C4_5 
REMARK    2  A    between atoms: C9_12  and  C10_13 
ROOT
HETATM    1  C4  UNL     1      25.641   2.191  51.987  1.00  0.00    -0.022 A 
HETATM    2  C5  UNL     1      26.820   2.024  52.674  1.00  0.00     0.014 A 
HETATM    3  C6  UNL     1      26.972   1.140  53.722  1.00  0.00     0.033 A 
HETATM    4  C7  UNL     1      25.870   0.394  54.083  1.00  0.00     0.070 A 
HETATM    5  N2  UNL     1      25.933  -0.499  55.103  1.00  0.00    -0.241 NA
HETATM    6  C8  UNL     1      24.814  -1.193  55.399  1.00  0.00     0.234 A 
HETATM    7  N3  UNL     1      23.623  -1.061  54.745  1.00  0.00    -0.240 NA
HETATM    8  C9  UNL     1      23.548  -0.167  53.718  1.00  0.00     0.082 A 
HETATM    9  C18 UNL     1      24.682   0.553  53.400  1.00  0.00     0.023 A 
HETATM   10  C19 UNL     1      24.520   1.435  52.350  1.00  0.00     0.028 A 
ENDROOT
BRANCH   8  11
HETATM   11  C10 UNL     1      22.249  -0.110  53.102  1.00  0.00     0.008 A 
HETATM   12  C11 UNL     1      21.747   0.329  51.980  1.00  0.00     0.020 A 
HETATM   13  C12 UNL     1      20.460   0.160  51.847  1.00  0.00     0.078 A 
HETATM   14  N4  UNL     1      19.555   0.457  50.874  1.00  0.00    -0.259 NA
HETATM   15  C16 UNL     1      19.997  -0.469  53.001  1.00  0.00    -0.006 A 
HETATM   16  C13 UNL     1      18.239   0.162  50.997  1.00  0.00     0.117 A 
HETATM   17  C14 UNL     1      17.722  -0.466  52.127  1.00  0.00     0.020 A 
HETATM   18  C15 UNL     1      18.651  -0.761  53.104  1.00  0.00     0.015 A 
HETATM   19  C17 UNL     1      21.058  -0.652  53.791  1.00  0.00     0.028 A 
ENDBRANCH   8  11
BRANCH   1  20
HETATM   20  C3  UNL     1      25.505   3.132  50.882  1.00  0.00     0.010 A 
HETATM   21  C2  UNL     1      24.415   3.841  50.402  1.00  0.00     0.125 A 
HETATM   22  N1  UNL     1      24.775   4.592  49.352  1.00  0.00    -0.285 N 
HETATM   23  C1  UNL     1      23.919   5.461  48.591  1.00  0.00     0.179 C 
HETATM   24  N5  UNL     1      26.062   4.383  49.147  1.00  0.00    -0.185 NA
HETATM   25  C20 UNL     1      26.552   3.517  50.035  1.00  0.00     0.152 A 
ENDBRANCH   1  20
TORSDOF 2
ENDMDL
MODEL 7
REMARK VINA RESULT:      -8.8      2.101      5.058
REMARK  2 active torsions:
REMARK  status: ('A' for Active; 'I' for Inactive)
REMARK    1  A    between atoms: C3_4  and  C4_5 
REMARK    2  A    between atoms: C9_12  and  C10_13 
ROOT
HETATM    1  C4  UNL     1      23.690  -0.140  53.670  1.00  0.00    -0.022 A 
HETATM    2  C5  UNL     1      24.580  -0.703  54.554  1.00  0.00     0.014 A 
HETATM    3  C6  UNL     1      25.918  -0.373  54.600  1.00  0.00     0.033 A 
HETATM    4  C7  UNL     1      26.367   0.574  53.703  1.00  0.00     0.070 A 
HETATM    5  N2  UNL     1      27.669   0.956  53.682  1.00  0.00    -0.241 NA
HETATM    6  C8  UNL     1      28.033   1.887  52.775  1.00  0.00     0.234 A 
HETATM    7  N3  UNL     1      27.186   2.473  51.880  1.00  0.00    -0.240 NA
HETATM    8  C9  UNL     1      25.874   2.097  51.893  1.00  0.00     0.082 A 
HETATM    9  C18 UNL     1      25.482   1.145  52.812  1.00  0.00     0.023 A 
HETATM   10  C19 UNL     1      24.140   0.822  52.758  1.00  0.00     0.028 A 
ENDROOT
BRANCH   8  11
HETATM   11  C10 UNL     1      25.074   2.776  50.910  1.00  0.00     0.008 A 
HETATM   12  C11 UNL     1      23.981   2.532  50.240  1.00  0.00     0.020 A 
HETATM   13  C12 UNL     1      23.611   3.478  49.421  1.00  0.00     0.078 A 
HETATM   14  N4  UNL     1      22.571   3.640  48.557  1.00  0.00    -0.259 NA
HETATM   15  C16 UNL     1      24.545   4.509  49.521  1.00  0.00    -0.006 A 
HETATM   16  C13 UNL     1      22.423   4.756  47.805  1.00  0.00     0.117 A 
HETATM   17  C14 UNL     1      23.325   5.816  47.865  1.00  0.00     0.020 A 
HETATM   18  C15 UNL     1      24.373   5.638  48.744  1.00  0.00     0.015 A 
HETATM   19  C17 UNL     1      25.452   4.120  50.419  1.00  0.00     0.028 A 
ENDBRANCH   8  11
BRANCH   1  20
HETATM   20  C3  UNL     1      22.279  -0.505  53.640  1.00  0.00     0.010 A 
HETATM   21  C2  UNL     1      21.213  -0.010  52.907  1.00  0.00     0.125 A 
HETATM   22  N1  UNL     1      20.087  -0.666  53.221  1.00  0.00    -0.285 N 
HETATM   23  C1  UNL     1      18.780  -0.434  52.668  1.00  0.00     0.179 C 
HETATM   24  N5  UNL     1      20.403  -1.566  54.133  1.00  0.00    -0.185 NA
HETATM   25  C20 UNL     1      21.705  -1.515  54.423  1.00  0.00     0.152 A 
ENDBRANCH   1  20
TORSDOF 2
ENDMDL
MODEL 8
REMARK VINA RESULT:      -8.7      3.432      4.316
REMARK  2 active torsions:
REMARK  status: ('A' for Active; 'I' for Inactive)
REMARK    1  A    between atoms: C3_4  and  C4_5 
REMARK    2  A    between atoms: C9_12  and  C10_13 
ROOT
HETATM    1  C4  UNL     1      23.687  -0.202  53.532  1.00  0.00    -0.022 A 
HETATM    2  C5  UNL     1      23.198  -0.958  54.570  1.00  0.00     0.014 A 
HETATM    3  C6  UNL     1      21.867  -1.295  54.705  1.00  0.00     0.033 A 
HETATM    4  C7  UNL     1      20.998  -0.839  53.737  1.00  0.00     0.070 A 
HETATM    5  N2  UNL     1      19.673  -1.125  53.794  1.00  0.00    -0.241 NA
HETATM    6  C8  UNL     1      18.885  -0.643  52.810  1.00  0.00     0.234 A 
HETATM    7  N3  UNL     1      19.325   0.111  51.761  1.00  0.00    -0.240 NA
HETATM    8  C9  UNL     1      20.656   0.405  51.693  1.00  0.00     0.082 A 
HETATM    9  C18 UNL     1      21.479  -0.078  52.690  1.00  0.00     0.023 A 
HETATM   10  C19 UNL     1      22.808   0.264  52.546  1.00  0.00     0.028 A 
ENDROOT
BRANCH   8  11
HETATM   11  C10 UNL     1      21.008   1.203  50.550  1.00  0.00     0.008 A 
HETATM   12  C11 UNL     1      21.459   0.990  49.344  1.00  0.00     0.020 A 
HETATM   13  C12 UNL     1      21.638   2.062  48.622  1.00  0.00     0.078 A 
HETATM   14  N4  UNL     1      22.078   2.298  47.356  1.00  0.00    -0.259 NA
HETATM   15  C16 UNL     1      21.272   3.159  49.402  1.00  0.00    -0.006 A 
HETATM   16  C13 UNL     1      22.168   3.548  46.842  1.00  0.00     0.117 A 
HETATM   17  C14 UNL     1      21.816   4.678  47.576  1.00  0.00     0.020 A 
HETATM   18  C15 UNL     1      21.372   4.424  48.857  1.00  0.00     0.015 A 
HETATM   19  C17 UNL     1      20.881   2.677  50.584  1.00  0.00     0.028 A 
ENDBRANCH   8  11
BRANCH   1  20
HETATM   20  C3  UNL     1      25.098   0.142  53.410  1.00  0.00     0.010 A 
HETATM   21  C2  UNL     1      25.775   1.339  53.584  1.00  0.00     0.125 A 
HETATM   22  N1  UNL     1      27.086   1.168  53.360  1.00  0.00    -0.285 N 
HETATM   23  C1  UNL     1      28.104   2.180  53.443  1.00  0.00     0.179 C 
HETATM   24  N5  UNL     1      27.265  -0.101  53.048  1.00  0.00    -0.185 NA
HETATM   25  C20 UNL     1      26.107  -0.765  53.063  1.00  0.00     0.152 A 
ENDBRANCH   1  20
TORSDOF 2
ENDMDL
MODEL 9
REMARK VINA RESULT:      -8.6      2.367      6.004
REMARK  2 active torsions:
REMARK  status: ('A' for Active; 'I' for Inactive)
REMARK    1  A    between atoms: C3_4  and  C4_5 
REMARK    2  A    between atoms: C9_12  and  C10_13 
ROOT
HETATM    1  C4  UNL     1      20.736  -0.033  52.716  1.00  0.00    -0.022 A 
HETATM    2  C5  UNL     1      20.602  -1.043  53.639  1.00  0.00     0.014 A 
HETATM    3  C6  UNL     1      21.638  -1.494  54.429  1.00  0.00     0.033 A 
HETATM    4  C7  UNL     1      22.866  -0.887  54.268  1.00  0.00     0.070 A 
HETATM    5  N2  UNL     1      23.939  -1.271  55.006  1.00  0.00    -0.241 NA
HETATM    6  C8  UNL     1      25.107  -0.630  54.793  1.00  0.00     0.234 A 
HETATM    7  N3  UNL     1      25.287   0.377  53.889  1.00  0.00    -0.240 NA
HETATM    8  C9  UNL     1      24.216   0.771  53.142  1.00  0.00     0.082 A 
HETATM    9  C18 UNL     1      23.011   0.128  53.345  1.00  0.00     0.023 A 
HETATM   10  C19 UNL     1      21.981   0.587  52.550  1.00  0.00     0.028 A 
ENDROOT
BRANCH   8  11
HETATM   11  C10 UNL     1      24.519   1.836  52.224  1.00  0.00     0.008 A 
HETATM   12  C11 UNL     1      23.940   2.932  51.815  1.00  0.00     0.020 A 
HETATM   13  C12 UNL     1      24.616   3.618  50.934  1.00  0.00     0.078 A 
HETATM   14  N4  UNL     1      24.399   4.781  50.261  1.00  0.00    -0.259 NA
HETATM   15  C16 UNL     1      25.807   2.935  50.692  1.00  0.00    -0.006 A 
HETATM   16  C13 UNL     1      25.294   5.283  49.377  1.00  0.00     0.117 A 
HETATM   17  C14 UNL     1      26.498   4.642  49.097  1.00  0.00     0.020 A 
HETATM   18  C15 UNL     1      26.705   3.465  49.787  1.00  0.00     0.015 A 
HETATM   19  C17 UNL     1      25.786   1.843  51.460  1.00  0.00     0.028 A 
ENDBRANCH   8  11
BRANCH   1  20
HETATM   20  C3  UNL     1      19.625   0.428  51.892  1.00  0.00     0.010 A 
HETATM   21  C2  UNL     1      19.441   1.588  51.156  1.00  0.00     0.125 A 
HETATM   22  N1  UNL     1      18.243   1.570  50.553  1.00  0.00    -0.285 N 
HETATM   23  C1  UNL     1      17.699   2.597  49.707  1.00  0.00     0.179 C 
HETATM   24  N5  UNL     1      17.659   0.433  50.882  1.00  0.00    -0.185 NA
HETATM   25  C20 UNL     1      18.442  -0.292  51.683  1.00  0.00     0.152 A 
ENDBRANCH   1  20
TORSDOF 2
ENDMDL
