MODEL 1
REMARK VINA RESULT:      -8.2      0.000      0.000
REMARK  8 active torsions:
REMARK  status: ('A' for Active; 'I' for Inactive)
REMARK    1  A    between atoms: O1_1  and  C1_2 
REMARK    2  A    between atoms: C1_2  and  C2_3 
REMARK    3  A    between atoms: C2_3  and  C3_4 
REMARK    4  A    between atoms: C3_4  and  N1_5 
REMARK    5  A    between atoms: N1_5  and  C4_6 
REMARK    6  A    between atoms: C7_10  and  C8_11 
REMARK    7  A    between atoms: C11_15  and  N4_16 
REMARK    8  A    between atoms: N4_16  and  C12_17 
ROOT
HETATM    1  C8  UNL     1      24.486   2.886  52.377  1.00  0.00     0.088 A 
HETATM    2  C9  UNL     1      23.614   3.841  52.842  1.00  0.00     0.148 A 
HETATM    3  N3  UNL     1      23.423   4.991  52.131  1.00  0.00    -0.267 NA
HETATM    4  C10 UNL     1      24.113   5.119  51.002  1.00  0.00     0.166 A 
HETATM    5  C11 UNL     1      25.003   4.200  50.483  1.00  0.00     0.146 A 
HETATM    6  N5  UNL     1      25.147   3.089  51.232  1.00  0.00    -0.228 NA
ENDROOT
BRANCH   1   7
HETATM    7  C7  UNL     1      24.769   1.623  53.101  1.00  0.00     0.014 A 
HETATM    8  C6  UNL     1      23.774   0.675  53.137  1.00  0.00     0.130 A 
HETATM    9  N2  UNL     1      23.972  -0.494  53.804  1.00  0.00    -0.270 NA
HETATM   10  C5  UNL     1      25.147  -0.707  54.424  1.00  0.00     0.145 A 
HETATM   11  C4  UNL     1      26.155   0.252  54.391  1.00  0.00     0.046 A 
HETATM   12  C18 UNL     1      25.980   1.440  53.723  1.00  0.00     0.046 A 
BRANCH  11  13
HETATM   13  N1  UNL     1      27.355  -0.024  55.104  1.00  0.00    -0.389 N 
HETATM   14  H8  UNL     1      27.371  -0.110  56.142  1.00  0.00     0.159 HD
BRANCH  13  15
HETATM   15  C3  UNL     1      28.576  -0.189  54.375  1.00  0.00     0.122 C 
BRANCH  15  16
HETATM   16  C2  UNL     1      28.475  -1.095  53.176  1.00  0.00     0.045 C 
BRANCH  16  17
HETATM   17  C1  UNL     1      29.372  -2.311  53.311  1.00  0.00     0.165 C 
BRANCH  17  18
HETATM   18  O1  UNL     1      28.548  -3.425  53.418  1.00  0.00    -0.401 OA
HETATM   19  H1  UNL     1      28.261  -3.607  54.349  1.00  0.00     0.209 HD
ENDBRANCH  17  18
ENDBRANCH  16  17
ENDBRANCH  15  16
ENDBRANCH  13  15
ENDBRANCH  11  13
ENDBRANCH   1   7
BRANCH   5  20
HETATM   20  N4  UNL     1      25.647   4.474  49.252  1.00  0.00    -0.340 N 
HETATM   21  H13 UNL     1      25.165   3.765  48.649  1.00  0.00     0.167 HD
BRANCH  20  22
HETATM   22  C12 UNL     1      26.637   5.363  48.761  1.00  0.00     0.035 A 
HETATM   23  C13 UNL     1      26.221   6.658  48.518  1.00  0.00     0.029 A 
HETATM   24  C14 UNL     1      27.146   7.544  48.068  1.00  0.00     0.004 A 
HETATM   25  C15 UNL     1      28.435   7.132  47.872  1.00  0.00     0.024 A 
HETATM   26  C16 UNL     1      28.854   5.828  48.116  1.00  0.00     0.036 A 
HETATM   27 CL1  UNL     1      30.482   5.228  47.890  1.00  0.00    -0.084 Cl
HETATM   28  C17 UNL     1      27.924   4.899  48.578  1.00  0.00     0.053 A 
ENDBRANCH  20  22
ENDBRANCH   5  20
TORSDOF 8
ENDMDL
MODEL 2
REMARK VINA RESULT:      -7.9      1.808      2.183
REMARK  8 active torsions:
REMARK  status: ('A' for Active; 'I' for Inactive)
REMARK    1  A    between atoms: O1_1  and  C1_2 
REMARK    2  A    between atoms: C1_2  and  C2_3 
REMARK    3  A    between atoms: C2_3  and  C3_4 
REMARK    4  A    between atoms: C3_4  and  N1_5 
REMARK    5  A    between atoms: N1_5  and  C4_6 
REMARK    6  A    between atoms: C7_10  and  C8_11 
REMARK    7  A    between atoms: C11_15  and  N4_16 
REMARK    8  A    between atoms: N4_16  and  C12_17 
ROOT
HETATM    1  C8  UNL     1      24.064   3.450  52.079  1.00  0.00     0.088 A 
HETATM    2  C9  UNL     1      23.029   4.245  52.512  1.00  0.00     0.148 A 
HETATM    3  N3  UNL     1      22.735   5.400  51.847  1.00  0.00    -0.267 NA
HETATM    4  C10 UNL     1      23.490   5.692  50.792  1.00  0.00     0.166 A 
HETATM    5  C11 UNL     1      24.541   4.939  50.309  1.00  0.00     0.146 A 
HETATM    6  N5  UNL     1      24.780   3.814  51.010  1.00  0.00    -0.228 NA
ENDROOT
BRANCH   1   7
HETATM    7  C7  UNL     1      24.464   2.195  52.761  1.00  0.00     0.014 A 
HETATM    8  C6  UNL     1      23.572   1.148  52.737  1.00  0.00     0.130 A 
HETATM    9  N2  UNL     1      23.879  -0.021  53.362  1.00  0.00    -0.270 NA
HETATM   10  C5  UNL     1      25.058  -0.136  54.001  1.00  0.00     0.145 A 
HETATM   11  C4  UNL     1      25.960   0.923  54.029  1.00  0.00     0.046 A 
HETATM   12  C18 UNL     1      25.674   2.113  53.404  1.00  0.00     0.046 A 
BRANCH  11  13
HETATM   13  N1  UNL     1      27.169   0.745  54.759  1.00  0.00    -0.389 N 
HETATM   14  H8  UNL     1      27.325   1.199  55.683  1.00  0.00     0.159 HD
BRANCH  13  15
HETATM   15  C3  UNL     1      28.198  -0.084  54.209  1.00  0.00     0.122 C 
BRANCH  15  16
HETATM   16  C2  UNL     1      29.479   0.637  53.882  1.00  0.00     0.045 C 
BRANCH  16  17
HETATM   17  C1  UNL     1      29.424   2.098  54.289  1.00  0.00     0.165 C 
BRANCH  17  18
HETATM   18  O1  UNL     1      29.117   2.834  53.152  1.00  0.00    -0.401 OA
HETATM   19  H1  UNL     1      29.904   3.296  52.764  1.00  0.00     0.209 HD
ENDBRANCH  17  18
ENDBRANCH  16  17
ENDBRANCH  15  16
ENDBRANCH  13  15
ENDBRANCH  11  13
ENDBRANCH   1   7
BRANCH   5  20
HETATM   20  N4  UNL     1      25.238   5.376  49.156  1.00  0.00    -0.340 N 
HETATM   21  H13 UNL     1      24.469   5.282  48.450  1.00  0.00     0.167 HD
BRANCH  20  22
HETATM   22  C12 UNL     1      26.538   5.835  48.828  1.00  0.00     0.035 A 
HETATM   23  C13 UNL     1      27.502   4.859  48.664  1.00  0.00     0.029 A 
HETATM   24  C14 UNL     1      28.755   5.259  48.328  1.00  0.00     0.004 A 
HETATM   25  C15 UNL     1      29.018   6.591  48.167  1.00  0.00     0.024 A 
HETATM   26  C16 UNL     1      28.047   7.575  48.333  1.00  0.00     0.036 A 
HETATM   27 CL1  UNL     1      28.306   9.295  48.145  1.00  0.00    -0.084 Cl
HETATM   28  C17 UNL     1      26.753   7.191  48.678  1.00  0.00     0.053 A 
ENDBRANCH  20  22
ENDBRANCH   5  20
TORSDOF 8
ENDMDL
MODEL 3
REMARK VINA RESULT:      -7.8      2.556      3.323
REMARK  8 active torsions:
REMARK  status: ('A' for Active; 'I' for Inactive)
REMARK    1  A    between atoms: O1_1  and  C1_2 
REMARK    2  A    between atoms: C1_2  and  C2_3 
REMARK    3  A    between atoms: C2_3  and  C3_4 
REMARK    4  A    between atoms: C3_4  and  N1_5 
REMARK    5  A    between atoms: N1_5  and  C4_6 
REMARK    6  A    between atoms: C7_10  and  C8_11 
REMARK    7  A    between atoms: C11_15  and  N4_16 
REMARK    8  A    between atoms: N4_16  and  C12_17 
ROOT
HETATM    1  C8  UNL     1      22.362   0.653  52.027  1.00  0.00     0.088 A 
HETATM    2  C9  UNL     1      21.245   0.213  51.357  1.00  0.00     0.148 A 
HETATM    3  N3  UNL     1      20.772   0.918  50.289  1.00  0.00    -0.267 NA
HETATM    4  C10 UNL     1      21.439   2.018  49.954  1.00  0.00     0.166 A 
HETATM    5  C11 UNL     1      22.564   2.513  50.585  1.00  0.00     0.146 A 
HETATM    6  N5  UNL     1      22.978   1.772  51.631  1.00  0.00    -0.228 NA
ENDROOT
BRANCH   1   7
HETATM    7  C7  UNL     1      22.924  -0.040  53.212  1.00  0.00     0.014 A 
HETATM    8  C6  UNL     1      22.039  -0.653  54.068  1.00  0.00     0.130 A 
HETATM    9  N2  UNL     1      22.498  -1.287  55.181  1.00  0.00    -0.270 NA
HETATM   10  C5  UNL     1      23.820  -1.305  55.430  1.00  0.00     0.145 A 
HETATM   11  C4  UNL     1      24.718  -0.683  54.566  1.00  0.00     0.046 A 
HETATM   12  C18 UNL     1      24.279  -0.038  53.435  1.00  0.00     0.046 A 
BRANCH  11  13
HETATM   13  N1  UNL     1      26.097  -0.707  54.915  1.00  0.00    -0.389 N 
HETATM   14  H8  UNL     1      26.536  -1.536  55.368  1.00  0.00     0.159 HD
BRANCH  13  15
HETATM   15  C3  UNL     1      26.907   0.439  54.632  1.00  0.00     0.122 C 
BRANCH  15  16
HETATM   16  C2  UNL     1      28.379   0.247  54.883  1.00  0.00     0.045 C 
BRANCH  16  17
HETATM   17  C1  UNL     1      29.225   1.129  53.984  1.00  0.00     0.165 C 
BRANCH  17  18
HETATM   18  O1  UNL     1      29.531   2.279  54.700  1.00  0.00    -0.401 OA
HETATM   19  H1  UNL     1      30.504   2.395  54.850  1.00  0.00     0.209 HD
ENDBRANCH  17  18
ENDBRANCH  16  17
ENDBRANCH  15  16
ENDBRANCH  13  15
ENDBRANCH  11  13
ENDBRANCH   1   7
BRANCH   5  20
HETATM   20  N4  UNL     1      23.176   3.691  50.093  1.00  0.00    -0.340 N 
HETATM   21  H13 UNL     1      22.338   4.319  50.071  1.00  0.00     0.167 HD
BRANCH  20  22
HETATM   22  C12 UNL     1      24.470   4.113  49.697  1.00  0.00     0.035 A 
HETATM   23  C13 UNL     1      25.489   3.198  49.883  1.00  0.00     0.029 A 
HETATM   24  C14 UNL     1      26.739   3.558  49.495  1.00  0.00     0.004 A 
HETATM   25  C15 UNL     1      26.946   4.792  48.945  1.00  0.00     0.024 A 
HETATM   26  C16 UNL     1      25.920   5.715  48.759  1.00  0.00     0.036 A 
HETATM   27 CL1  UNL     1      26.107   7.309  48.064  1.00  0.00    -0.084 Cl
HETATM   28  C17 UNL     1      24.628   5.370  49.148  1.00  0.00     0.053 A 
ENDBRANCH  20  22
ENDBRANCH   5  20
TORSDOF 8
ENDMDL
MODEL 4
REMARK VINA RESULT:      -7.8      3.057      7.280
REMARK  8 active torsions:
REMARK  status: ('A' for Active; 'I' for Inactive)
REMARK    1  A    between atoms: O1_1  and  C1_2 
REMARK    2  A    between atoms: C1_2  and  C2_3 
REMARK    3  A    between atoms: C2_3  and  C3_4 
REMARK    4  A    between atoms: C3_4  and  N1_5 
REMARK    5  A    between atoms: N1_5  and  C4_6 
REMARK    6  A    between atoms: C7_10  and  C8_11 
REMARK    7  A    between atoms: C11_15  and  N4_16 
REMARK    8  A    between atoms: N4_16  and  C12_17 
ROOT
HETATM    1  C8  UNL     1      24.687   3.816  49.694  1.00  0.00     0.088 A 
HETATM    2  C9  UNL     1      23.426   3.553  49.214  1.00  0.00     0.148 A 
HETATM    3  N3  UNL     1      22.699   2.524  49.740  1.00  0.00    -0.267 NA
HETATM    4  C10 UNL     1      23.273   1.821  50.711  1.00  0.00     0.166 A 
HETATM    5  C11 UNL     1      24.533   2.033  51.235  1.00  0.00     0.146 A 
HETATM    6  N5  UNL     1      25.197   3.060  50.673  1.00  0.00    -0.228 NA
ENDROOT
BRANCH   1   7
HETATM    7  C7  UNL     1      25.551   4.897  49.160  1.00  0.00     0.014 A 
HETATM    8  C6  UNL     1      24.929   6.001  48.625  1.00  0.00     0.130 A 
HETATM    9  N2  UNL     1      25.672   7.014  48.104  1.00  0.00    -0.270 NA
HETATM   10  C5  UNL     1      27.014   6.920  48.116  1.00  0.00     0.145 A 
HETATM   11  C4  UNL     1      27.646   5.802  48.654  1.00  0.00     0.046 A 
HETATM   12  C18 UNL     1      26.917   4.767  49.188  1.00  0.00     0.046 A 
BRANCH  11  13
HETATM   13  N1  UNL     1      29.067   5.752  48.596  1.00  0.00    -0.389 N 
HETATM   14  H8  UNL     1      29.594   4.876  48.792  1.00  0.00     0.159 HD
BRANCH  13  15
HETATM   15  C3  UNL     1      29.792   6.938  48.256  1.00  0.00     0.122 C 
BRANCH  15  16
HETATM   16  C2  UNL     1      31.088   7.118  49.000  1.00  0.00     0.045 C 
BRANCH  16  17
HETATM   17  C1  UNL     1      31.750   5.789  49.311  1.00  0.00     0.165 C 
BRANCH  17  18
HETATM   18  O1  UNL     1      31.398   5.442  50.609  1.00  0.00    -0.401 OA
HETATM   19  H1  UNL     1      30.450   5.643  50.821  1.00  0.00     0.209 HD
ENDBRANCH  17  18
ENDBRANCH  16  17
ENDBRANCH  15  16
ENDBRANCH  13  15
ENDBRANCH  11  13
ENDBRANCH   1   7
BRANCH   5  20
HETATM   20  N4  UNL     1      24.996   1.207  52.288  1.00  0.00    -0.340 N 
HETATM   21  H13 UNL     1      24.084   1.019  52.768  1.00  0.00     0.167 HD
BRANCH  20  22
HETATM   22  C12 UNL     1      26.231   0.675  52.739  1.00  0.00     0.035 A 
HETATM   23  C13 UNL     1      26.435  -0.670  52.499  1.00  0.00     0.029 A 
HETATM   24  C14 UNL     1      27.616  -1.210  52.896  1.00  0.00     0.004 A 
HETATM   25  C15 UNL     1      28.546  -0.419  53.512  1.00  0.00     0.024 A 
HETATM   26  C16 UNL     1      28.340   0.936  53.754  1.00  0.00     0.036 A 
HETATM   27 CL1  UNL     1      29.481   2.009  54.534  1.00  0.00    -0.084 Cl
HETATM   28  C17 UNL     1      27.137   1.514  53.356  1.00  0.00     0.053 A 
ENDBRANCH  20  22
ENDBRANCH   5  20
TORSDOF 8
ENDMDL
MODEL 5
REMARK VINA RESULT:      -7.8      5.032      7.616
REMARK  8 active torsions:
REMARK  status: ('A' for Active; 'I' for Inactive)
REMARK    1  A    between atoms: O1_1  and  C1_2 
REMARK    2  A    between atoms: C1_2  and  C2_3 
REMARK    3  A    between atoms: C2_3  and  C3_4 
REMARK    4  A    between atoms: C3_4  and  N1_5 
REMARK    5  A    between atoms: N1_5  and  C4_6 
REMARK    6  A    between atoms: C7_10  and  C8_11 
REMARK    7  A    between atoms: C11_15  and  N4_16 
REMARK    8  A    between atoms: N4_16  and  C12_17 
ROOT
HETATM    1  C8  UNL     1      23.603  -0.066  53.806  1.00  0.00     0.088 A 
HETATM    2  C9  UNL     1      23.454  -1.108  54.690  1.00  0.00     0.148 A 
HETATM    3  N3  UNL     1      22.204  -1.533  55.037  1.00  0.00    -0.267 NA
HETATM    4  C10 UNL     1      21.179  -0.892  54.482  1.00  0.00     0.166 A 
HETATM    5  C11 UNL     1      21.262   0.160  53.592  1.00  0.00     0.146 A 
HETATM    6  N5  UNL     1      22.521   0.530  53.292  1.00  0.00    -0.228 NA
ENDROOT
BRANCH   1   7
HETATM    7  C7  UNL     1      24.924   0.471  53.399  1.00  0.00     0.014 A 
HETATM    8  C6  UNL     1      24.983   1.191  52.228  1.00  0.00     0.130 A 
HETATM    9  N2  UNL     1      26.172   1.691  51.796  1.00  0.00    -0.270 NA
HETATM   10  C5  UNL     1      27.282   1.471  52.525  1.00  0.00     0.145 A 
HETATM   11  C4  UNL     1      27.225   0.741  53.709  1.00  0.00     0.046 A 
HETATM   12  C18 UNL     1      26.036   0.228  54.166  1.00  0.00     0.046 A 
BRANCH  11  13
HETATM   13  N1  UNL     1      28.444   0.513  54.406  1.00  0.00    -0.389 N 
HETATM   14  H8  UNL     1      28.536   0.695  55.427  1.00  0.00     0.159 HD
BRANCH  13  15
HETATM   15  C3  UNL     1      29.577   0.018  53.684  1.00  0.00     0.122 C 
BRANCH  15  16
HETATM   16  C2  UNL     1      29.818  -1.462  53.831  1.00  0.00     0.045 C 
BRANCH  16  17
HETATM   17  C1  UNL     1      28.926  -2.273  52.910  1.00  0.00     0.165 C 
BRANCH  17  18
HETATM   18  O1  UNL     1      28.759  -3.524  53.490  1.00  0.00    -0.401 OA
HETATM   19  H1  UNL     1      27.821  -3.707  53.754  1.00  0.00     0.209 HD
ENDBRANCH  17  18
ENDBRANCH  16  17
ENDBRANCH  15  16
ENDBRANCH  13  15
ENDBRANCH  11  13
ENDBRANCH   1   7
BRANCH   5  20
HETATM   20  N4  UNL     1      20.072   0.724  53.070  1.00  0.00    -0.340 N 
HETATM   21  H13 UNL     1      20.128   1.672  53.513  1.00  0.00     0.167 HD
BRANCH  20  22
HETATM   22  C12 UNL     1      19.010   0.329  52.218  1.00  0.00     0.035 A 
HETATM   23  C13 UNL     1      18.991   0.911  50.965  1.00  0.00     0.029 A 
HETATM   24  C14 UNL     1      18.002   0.542  50.112  1.00  0.00     0.004 A 
HETATM   25  C15 UNL     1      17.072  -0.377  50.514  1.00  0.00     0.024 A 
HETATM   26  C16 UNL     1      17.090  -0.962  51.777  1.00  0.00     0.036 A 
HETATM   27 CL1  UNL     1      15.938  -2.142  52.362  1.00  0.00    -0.084 Cl
HETATM   28  C17 UNL     1      18.095  -0.600  52.671  1.00  0.00     0.053 A 
ENDBRANCH  20  22
ENDBRANCH   5  20
TORSDOF 8
ENDMDL
MODEL 6
REMARK VINA RESULT:      -7.8      3.205      7.316
REMARK  8 active torsions:
REMARK  status: ('A' for Active; 'I' for Inactive)
REMARK    1  A    between atoms: O1_1  and  C1_2 
REMARK    2  A    between atoms: C1_2  and  C2_3 
REMARK    3  A    between atoms: C2_3  and  C3_4 
REMARK    4  A    between atoms: C3_4  and  N1_5 
REMARK    5  A    between atoms: N1_5  and  C4_6 
REMARK    6  A    between atoms: C7_10  and  C8_11 
REMARK    7  A    between atoms: C11_15  and  N4_16 
REMARK    8  A    between atoms: N4_16  and  C12_17 
ROOT
HETATM    1  C8  UNL     1      23.479   1.362  51.967  1.00  0.00     0.088 A 
HETATM    2  C9  UNL     1      22.287   0.715  52.190  1.00  0.00     0.148 A 
HETATM    3  N3  UNL     1      22.263  -0.429  52.935  1.00  0.00    -0.267 NA
HETATM    4  C10 UNL     1      23.428  -0.858  53.412  1.00  0.00     0.166 A 
HETATM    5  C11 UNL     1      24.656  -0.256  53.222  1.00  0.00     0.146 A 
HETATM    6  N5  UNL     1      24.611   0.866  52.479  1.00  0.00    -0.228 NA
ENDROOT
BRANCH   1   7
HETATM    7  C7  UNL     1      23.594   2.593  51.148  1.00  0.00     0.014 A 
HETATM    8  C6  UNL     1      22.500   2.963  50.401  1.00  0.00     0.130 A 
HETATM    9  N2  UNL     1      22.557   4.073  49.616  1.00  0.00    -0.270 NA
HETATM   10  C5  UNL     1      23.690   4.797  49.581  1.00  0.00     0.145 A 
HETATM   11  C4  UNL     1      24.800   4.423  50.334  1.00  0.00     0.046 A 
HETATM   12  C18 UNL     1      24.767   3.307  51.135  1.00  0.00     0.046 A 
BRANCH  11  13
HETATM   13  N1  UNL     1      25.978   5.212  50.215  1.00  0.00    -0.389 N 
HETATM   14  H8  UNL     1      26.398   5.699  51.034  1.00  0.00     0.159 HD
BRANCH  13  15
HETATM   15  C3  UNL     1      26.606   5.338  48.935  1.00  0.00     0.122 C 
BRANCH  15  16
HETATM   16  C2  UNL     1      27.198   6.694  48.656  1.00  0.00     0.045 C 
BRANCH  16  17
HETATM   17  C1  UNL     1      26.336   7.812  49.212  1.00  0.00     0.165 C 
BRANCH  17  18
HETATM   18  O1  UNL     1      26.753   8.048  50.515  1.00  0.00    -0.401 OA
HETATM   19  H1  UNL     1      27.482   8.717  50.575  1.00  0.00     0.209 HD
ENDBRANCH  17  18
ENDBRANCH  16  17
ENDBRANCH  15  16
ENDBRANCH  13  15
ENDBRANCH  11  13
ENDBRANCH   1   7
BRANCH   5  20
HETATM   20  N4  UNL     1      25.808  -0.826  53.816  1.00  0.00    -0.340 N 
HETATM   21  H13 UNL     1      25.347  -1.554  54.412  1.00  0.00     0.167 HD
BRANCH  20  22
HETATM   22  C12 UNL     1      27.213  -0.640  53.769  1.00  0.00     0.035 A 
HETATM   23  C13 UNL     1      27.945  -1.687  53.242  1.00  0.00     0.029 A 
HETATM   24  C14 UNL     1      29.292  -1.537  53.160  1.00  0.00     0.004 A 
HETATM   25  C15 UNL     1      29.870  -0.377  53.597  1.00  0.00     0.024 A 
HETATM   26  C16 UNL     1      29.133   0.677  54.129  1.00  0.00     0.036 A 
HETATM   27 CL1  UNL     1      29.799   2.188  54.707  1.00  0.00    -0.084 Cl
HETATM   28  C17 UNL     1      27.749   0.548  54.224  1.00  0.00     0.053 A 
ENDBRANCH  20  22
ENDBRANCH   5  20
TORSDOF 8
ENDMDL
MODEL 7
REMARK VINA RESULT:      -7.6      3.741      6.794
REMARK  8 active torsions:
REMARK  status: ('A' for Active; 'I' for Inactive)
REMARK    1  A    between atoms: O1_1  and  C1_2 
REMARK    2  A    between atoms: C1_2  and  C2_3 
REMARK    3  A    between atoms: C2_3  and  C3_4 
REMARK    4  A    between atoms: C3_4  and  N1_5 
REMARK    5  A    between atoms: N1_5  and  C4_6 
REMARK    6  A    between atoms: C7_10  and  C8_11 
REMARK    7  A    between atoms: C11_15  and  N4_16 
REMARK    8  A    between atoms: N4_16  and  C12_17 
ROOT
HETATM    1  C8  UNL     1      24.133  -0.246  54.099  1.00  0.00     0.088 A 
HETATM    2  C9  UNL     1      23.885  -1.049  55.186  1.00  0.00     0.148 A 
HETATM    3  N3  UNL     1      22.661  -1.636  55.332  1.00  0.00    -0.267 NA
HETATM    4  C10 UNL     1      21.761  -1.386  54.387  1.00  0.00     0.166 A 
HETATM    5  C11 UNL     1      21.947  -0.590  53.274  1.00  0.00     0.146 A 
HETATM    6  N5  UNL     1      23.174  -0.041  53.190  1.00  0.00    -0.228 NA
ENDROOT
BRANCH   1   7
HETATM    7  C7  UNL     1      25.426   0.449  53.880  1.00  0.00     0.014 A 
HETATM    8  C6  UNL     1      26.445   0.186  54.766  1.00  0.00     0.130 A 
HETATM    9  N2  UNL     1      27.646   0.810  54.624  1.00  0.00    -0.270 NA
HETATM   10  C5  UNL     1      27.820   1.682  53.614  1.00  0.00     0.145 A 
HETATM   11  C4  UNL     1      26.789   1.951  52.719  1.00  0.00     0.046 A 
HETATM   12  C18 UNL     1      25.568   1.333  52.839  1.00  0.00     0.046 A 
BRANCH  11  13
HETATM   13  N1  UNL     1      27.031   2.915  51.700  1.00  0.00    -0.389 N 
HETATM   14  H8  UNL     1      27.631   3.750  51.865  1.00  0.00     0.159 HD
BRANCH  13  15
HETATM   15  C3  UNL     1      26.436   2.731  50.412  1.00  0.00     0.122 C 
BRANCH  15  16
HETATM   16  C2  UNL     1      25.604   3.891  49.931  1.00  0.00     0.045 C 
BRANCH  16  17
HETATM   17  C1  UNL     1      26.432   4.891  49.146  1.00  0.00     0.165 C 
BRANCH  17  18
HETATM   18  O1  UNL     1      27.766   4.535  49.295  1.00  0.00    -0.401 OA
HETATM   19  H1  UNL     1      27.894   3.746  49.882  1.00  0.00     0.209 HD
ENDBRANCH  17  18
ENDBRANCH  16  17
ENDBRANCH  15  16
ENDBRANCH  13  15
ENDBRANCH  11  13
ENDBRANCH   1   7
BRANCH   5  20
HETATM   20  N4  UNL     1      20.892  -0.439  52.342  1.00  0.00    -0.340 N 
HETATM   21  H13 UNL     1      20.283  -1.235  52.648  1.00  0.00     0.167 HD
BRANCH  20  22
HETATM   22  C12 UNL     1      20.556   0.424  51.269  1.00  0.00     0.035 A 
HETATM   23  C13 UNL     1      19.310   1.017  51.335  1.00  0.00     0.029 A 
HETATM   24  C14 UNL     1      18.961   1.867  50.336  1.00  0.00     0.004 A 
HETATM   25  C15 UNL     1      19.838   2.104  49.314  1.00  0.00     0.024 A 
HETATM   26  C16 UNL     1      21.093   1.506  49.246  1.00  0.00     0.036 A 
HETATM   27 CL1  UNL     1      22.267   1.759  47.974  1.00  0.00    -0.084 Cl
HETATM   28  C17 UNL     1      21.475   0.629  50.259  1.00  0.00     0.053 A 
ENDBRANCH  20  22
ENDBRANCH   5  20
TORSDOF 8
ENDMDL
MODEL 8
REMARK VINA RESULT:      -7.6      6.259      9.240
REMARK  8 active torsions:
REMARK  status: ('A' for Active; 'I' for Inactive)
REMARK    1  A    between atoms: O1_1  and  C1_2 
REMARK    2  A    between atoms: C1_2  and  C2_3 
REMARK    3  A    between atoms: C2_3  and  C3_4 
REMARK    4  A    between atoms: C3_4  and  N1_5 
REMARK    5  A    between atoms: N1_5  and  C4_6 
REMARK    6  A    between atoms: C7_10  and  C8_11 
REMARK    7  A    between atoms: C11_15  and  N4_16 
REMARK    8  A    between atoms: N4_16  and  C12_17 
ROOT
HETATM    1  C8  UNL     1      21.265  -0.164  52.688  1.00  0.00     0.088 A 
HETATM    2  C9  UNL     1      21.451   0.458  51.476  1.00  0.00     0.148 A 
HETATM    3  N3  UNL     1      20.375   0.741  50.686  1.00  0.00    -0.267 NA
HETATM    4  C10 UNL     1      19.180   0.387  51.150  1.00  0.00     0.166 A 
HETATM    5  C11 UNL     1      18.928  -0.240  52.354  1.00  0.00     0.146 A 
HETATM    6  N5  UNL     1      20.030  -0.492  53.085  1.00  0.00    -0.228 NA
ENDROOT
BRANCH   1   7
HETATM    7  C7  UNL     1      22.381  -0.530  53.593  1.00  0.00     0.014 A 
HETATM    8  C6  UNL     1      22.063  -1.173  54.766  1.00  0.00     0.130 A 
HETATM    9  N2  UNL     1      23.046  -1.515  55.642  1.00  0.00    -0.270 NA
HETATM   10  C5  UNL     1      24.324  -1.215  55.348  1.00  0.00     0.145 A 
HETATM   11  C4  UNL     1      24.648  -0.561  54.162  1.00  0.00     0.046 A 
HETATM   12  C18 UNL     1      23.674  -0.207  53.261  1.00  0.00     0.046 A 
BRANCH  11  13
HETATM   13  N1  UNL     1      26.016  -0.238  53.936  1.00  0.00    -0.389 N 
HETATM   14  H8  UNL     1      26.584   0.272  54.644  1.00  0.00     0.159 HD
BRANCH  13  15
HETATM   15  C3  UNL     1      26.628  -0.628  52.703  1.00  0.00     0.122 C 
BRANCH  15  16
HETATM   16  C2  UNL     1      27.026  -2.079  52.629  1.00  0.00     0.045 C 
BRANCH  16  17
HETATM   17  C1  UNL     1      28.482  -2.285  53.002  1.00  0.00     0.165 C 
BRANCH  17  18
HETATM   18  O1  UNL     1      28.634  -3.618  53.360  1.00  0.00    -0.401 OA
HETATM   19  H1  UNL     1      29.561  -3.844  53.630  1.00  0.00     0.209 HD
ENDBRANCH  17  18
ENDBRANCH  16  17
ENDBRANCH  15  16
ENDBRANCH  13  15
ENDBRANCH  11  13
ENDBRANCH   1   7
BRANCH   5  20
HETATM   20  N4  UNL     1      17.591  -0.533  52.718  1.00  0.00    -0.340 N 
HETATM   21  H13 UNL     1      17.327   0.387  53.144  1.00  0.00     0.167 HD
BRANCH  20  22
HETATM   22  C12 UNL     1      16.698  -1.631  52.633  1.00  0.00     0.035 A 
HETATM   23  C13 UNL     1      15.545  -1.418  51.902  1.00  0.00     0.029 A 
HETATM   24  C14 UNL     1      14.675  -2.453  51.779  1.00  0.00     0.004 A 
HETATM   25  C15 UNL     1      14.963  -3.651  52.373  1.00  0.00     0.024 A 
HETATM   26  C16 UNL     1      16.124  -3.865  53.110  1.00  0.00     0.036 A 
HETATM   27 CL1  UNL     1      16.561  -5.366  53.897  1.00  0.00    -0.084 Cl
HETATM   28  C17 UNL     1      17.033  -2.819  53.251  1.00  0.00     0.053 A 
ENDBRANCH  20  22
ENDBRANCH   5  20
TORSDOF 8
ENDMDL
MODEL 9
REMARK VINA RESULT:      -7.4      6.420      9.515
REMARK  8 active torsions:
REMARK  status: ('A' for Active; 'I' for Inactive)
REMARK    1  A    between atoms: O1_1  and  C1_2 
REMARK    2  A    between atoms: C1_2  and  C2_3 
REMARK    3  A    between atoms: C2_3  and  C3_4 
REMARK    4  A    between atoms: C3_4  and  N1_5 
REMARK    5  A    between atoms: N1_5  and  C4_6 
REMARK    6  A    between atoms: C7_10  and  C8_11 
REMARK    7  A    between atoms: C11_15  and  N4_16 
REMARK    8  A    between atoms: N4_16  and  C12_17 
ROOT
HETATM    1  C8  UNL     1      21.175  -0.179  52.912  1.00  0.00     0.088 A 
HETATM    2  C9  UNL     1      21.256   0.620  51.796  1.00  0.00     0.148 A 
HETATM    3  N3  UNL     1      20.132   0.891  51.072  1.00  0.00    -0.267 NA
HETATM    4  C10 UNL     1      18.996   0.351  51.502  1.00  0.00     0.166 A 
HETATM    5  C11 UNL     1      18.849  -0.459  52.612  1.00  0.00     0.146 A 
HETATM    6  N5  UNL     1      19.995  -0.689  53.281  1.00  0.00    -0.228 NA
ENDROOT
BRANCH   1   7
HETATM    7  C7  UNL     1      22.352  -0.543  53.737  1.00  0.00     0.014 A 
HETATM    8  C6  UNL     1      22.118  -1.199  54.923  1.00  0.00     0.130 A 
HETATM    9  N2  UNL     1      23.159  -1.540  55.729  1.00  0.00    -0.270 NA
HETATM   10  C5  UNL     1      24.413  -1.227  55.353  1.00  0.00     0.145 A 
HETATM   11  C4  UNL     1      24.653  -0.561  54.154  1.00  0.00     0.046 A 
HETATM   12  C18 UNL     1      23.618  -0.208  53.323  1.00  0.00     0.046 A 
BRANCH  11  13
HETATM   13  N1  UNL     1      25.999  -0.226  53.841  1.00  0.00    -0.389 N 
HETATM   14  H8  UNL     1      26.368  -0.284  52.868  1.00  0.00     0.159 HD
BRANCH  13  15
HETATM   15  C3  UNL     1      26.872   0.206  54.889  1.00  0.00     0.122 C 
BRANCH  15  16
HETATM   16  C2  UNL     1      28.320   0.327  54.493  1.00  0.00     0.045 C 
BRANCH  16  17
HETATM   17  C1  UNL     1      28.747  -0.795  53.566  1.00  0.00     0.165 C 
BRANCH  17  18
HETATM   18  O1  UNL     1      30.089  -1.053  53.816  1.00  0.00    -0.401 OA
HETATM   19  H1  UNL     1      30.264  -1.328  54.752  1.00  0.00     0.209 HD
ENDBRANCH  17  18
ENDBRANCH  16  17
ENDBRANCH  15  16
ENDBRANCH  13  15
ENDBRANCH  11  13
ENDBRANCH   1   7
BRANCH   5  20
HETATM   20  N4  UNL     1      17.563  -0.942  52.954  1.00  0.00    -0.340 N 
HETATM   21  H13 UNL     1      17.125  -0.043  53.269  1.00  0.00     0.167 HD
BRANCH  20  22
HETATM   22  C12 UNL     1      16.873  -2.181  52.953  1.00  0.00     0.035 A 
HETATM   23  C13 UNL     1      17.480  -3.212  53.643  1.00  0.00     0.029 A 
HETATM   24  C14 UNL     1      16.839  -4.408  53.682  1.00  0.00     0.004 A 
HETATM   25  C15 UNL     1      15.636  -4.550  53.048  1.00  0.00     0.024 A 
HETATM   26  C16 UNL     1      15.025  -3.511  52.352  1.00  0.00     0.036 A 
HETATM   27 CL1  UNL     1      13.490  -3.617  51.518  1.00  0.00    -0.084 Cl
HETATM   28  C17 UNL     1      15.662  -2.274  52.296  1.00  0.00     0.053 A 
ENDBRANCH  20  22
ENDBRANCH   5  20
TORSDOF 8
ENDMDL
