MODEL 1
REMARK VINA RESULT:      -6.5      0.000      0.000
REMARK  6 active torsions:
REMARK  status: ('A' for Active; 'I' for Inactive)
REMARK    1  A    between atoms: C6_7  and  C7_8 
REMARK    2  A    between atoms: C7_8  and  C8_10 
REMARK    3  A    between atoms: C8_10  and  C9_11 
REMARK    4  A    between atoms: C9_11  and  C10_12 
REMARK    5  A    between atoms: C10_12  and  N2_13 
REMARK    6  A    between atoms: C12_15  and  C13_16 
ROOT
HETATM    1  C8  UNL     1      22.652   2.214  51.710  1.00  0.00     0.119 C 
HETATM    2  C11 UNL     1      22.424   1.554  50.448  1.00  0.00     0.019 C 
HETATM    3  C12 UNL     1      22.644   2.406  49.412  1.00  0.00    -0.034 C 
HETATM    4  C14 UNL     1      23.091   3.645  50.039  1.00  0.00     0.088 A 
HETATM    5  C15 UNL     1      24.631   3.652  50.167  1.00  0.00     0.050 C 
HETATM    6  C16 UNL     1      22.779   4.909  49.334  1.00  0.00     0.124 A 
HETATM    7  N3  UNL     1      22.137   5.922  49.859  1.00  0.00    -0.273 NA
HETATM    8  C17 UNL     1      21.668   5.839  51.194  1.00  0.00     0.133 A 
HETATM    9  C18 UNL     1      21.817   4.749  51.969  1.00  0.00     0.108 A 
HETATM   10  N4  UNL     1      22.475   3.633  51.341  1.00  0.00    -0.351 N 
ENDROOT
BRANCH   1  11
HETATM   11  C7  UNL     1      23.809   2.062  52.516  1.00  0.00     0.193 C 
HETATM   12  O1  UNL     1      24.097   2.978  53.337  1.00  0.00    -0.289 OA
BRANCH  11  13
HETATM   13  C6  UNL     1      24.763   0.987  52.567  1.00  0.00     0.037 A 
HETATM   14  C2  UNL     1      24.598  -0.208  53.246  1.00  0.00     0.044 A 
HETATM   15  C1  UNL     1      23.336  -0.428  54.004  1.00  0.00     0.071 C 
HETATM   16  N1  UNL     1      25.518  -1.190  53.261  1.00  0.00    -0.265 NA
HETATM   17  C3  UNL     1      26.677  -1.062  52.603  1.00  0.00     0.117 A 
HETATM   18  C4  UNL     1      26.934   0.086  51.900  1.00  0.00     0.020 A 
HETATM   19  C5  UNL     1      25.970   1.071  51.906  1.00  0.00     0.018 A 
ENDBRANCH  11  13
ENDBRANCH   1  11
BRANCH   1  20
HETATM   20  C9  UNL     1      21.349   1.941  52.534  1.00  0.00     0.073 C 
BRANCH  20  21
HETATM   21  C10 UNL     1      20.563   0.837  51.890  1.00  0.00     0.270 C 
BRANCH  21  22
HETATM   22  N2  UNL     1      19.864   0.023  52.897  1.00  0.00     0.078 N 
HETATM   23  H11 UNL     1      19.482   0.633  53.665  1.00  0.00     0.312 HD
HETATM   24  H12 UNL     1      20.654  -0.518  53.359  1.00  0.00     0.312 HD
ENDBRANCH  21  22
ENDBRANCH  20  21
ENDBRANCH   1  20
BRANCH   3  25
HETATM   25  C13 UNL     1      22.556   2.265  47.931  1.00  0.00     0.151 C 
HETATM   26 CL1  UNL     1      20.973   2.685  47.293  1.00  0.00    -0.126 Cl
ENDBRANCH   3  25
TORSDOF 6
ENDMDL
MODEL 2
REMARK VINA RESULT:      -6.4      2.394      4.331
REMARK  6 active torsions:
REMARK  status: ('A' for Active; 'I' for Inactive)
REMARK    1  A    between atoms: C6_7  and  C7_8 
REMARK    2  A    between atoms: C7_8  and  C8_10 
REMARK    3  A    between atoms: C8_10  and  C9_11 
REMARK    4  A    between atoms: C9_11  and  C10_12 
REMARK    5  A    between atoms: C10_12  and  N2_13 
REMARK    6  A    between atoms: C12_15  and  C13_16 
ROOT
HETATM    1  C8  UNL     1      24.975   1.947  52.950  1.00  0.00     0.119 C 
HETATM    2  C11 UNL     1      24.095   3.001  53.395  1.00  0.00     0.019 C 
HETATM    3  C12 UNL     1      23.594   3.690  52.336  1.00  0.00    -0.034 C 
HETATM    4  C14 UNL     1      24.129   3.008  51.163  1.00  0.00     0.088 A 
HETATM    5  C15 UNL     1      23.156   1.900  50.701  1.00  0.00     0.050 C 
HETATM    6  C16 UNL     1      24.349   3.826  49.949  1.00  0.00     0.124 A 
HETATM    7  N3  UNL     1      25.485   3.922  49.305  1.00  0.00    -0.273 NA
HETATM    8  C17 UNL     1      26.623   3.223  49.782  1.00  0.00     0.133 A 
HETATM    9  C18 UNL     1      26.620   2.471  50.899  1.00  0.00     0.108 A 
HETATM   10  N4  UNL     1      25.371   2.436  51.614  1.00  0.00    -0.351 N 
ENDROOT
BRANCH   1  11
HETATM   11  C7  UNL     1      24.637   0.572  52.885  1.00  0.00     0.193 C 
HETATM   12  O1  UNL     1      25.368  -0.198  52.200  1.00  0.00    -0.289 OA
BRANCH  11  13
HETATM   13  C6  UNL     1      23.548  -0.141  53.497  1.00  0.00     0.037 A 
HETATM   14  C2  UNL     1      23.623  -0.882  54.664  1.00  0.00     0.044 A 
HETATM   15  C1  UNL     1      24.931  -0.973  55.367  1.00  0.00     0.071 C 
HETATM   16  N1  UNL     1      22.574  -1.529  55.205  1.00  0.00    -0.265 NA
HETATM   17  C3  UNL     1      21.366  -1.493  54.628  1.00  0.00     0.117 A 
HETATM   18  C4  UNL     1      21.191  -0.784  53.468  1.00  0.00     0.020 A 
HETATM   19  C5  UNL     1      22.286  -0.133  52.941  1.00  0.00     0.018 A 
ENDBRANCH  11  13
ENDBRANCH   1  11
BRANCH   1  20
HETATM   20  C9  UNL     1      26.293   2.168  53.766  1.00  0.00     0.073 C 
BRANCH  20  21
HETATM   21  C10 UNL     1      27.134   0.926  53.718  1.00  0.00     0.270 C 
BRANCH  21  22
HETATM   22  N2  UNL     1      28.043   0.854  54.873  1.00  0.00     0.078 N 
HETATM   23  H11 UNL     1      28.962   1.315  54.649  1.00  0.00     0.312 HD
HETATM   24  H12 UNL     1      28.275  -0.181  54.930  1.00  0.00     0.312 HD
ENDBRANCH  21  22
ENDBRANCH  20  21
ENDBRANCH   1  20
BRANCH   3  25
HETATM   25  C13 UNL     1      22.667   4.850  52.214  1.00  0.00     0.151 C 
HETATM   26 CL1  UNL     1      21.010   4.372  51.872  1.00  0.00    -0.126 Cl
ENDBRANCH   3  25
TORSDOF 6
ENDMDL
MODEL 3
REMARK VINA RESULT:      -6.3      2.537      5.544
REMARK  6 active torsions:
REMARK  status: ('A' for Active; 'I' for Inactive)
REMARK    1  A    between atoms: C6_7  and  C7_8 
REMARK    2  A    between atoms: C7_8  and  C8_10 
REMARK    3  A    between atoms: C8_10  and  C9_11 
REMARK    4  A    between atoms: C9_11  and  C10_12 
REMARK    5  A    between atoms: C10_12  and  N2_13 
REMARK    6  A    between atoms: C12_15  and  C13_16 
ROOT
HETATM    1  C8  UNL     1      22.801   2.614  50.909  1.00  0.00     0.119 C 
HETATM    2  C11 UNL     1      22.756   1.318  51.542  1.00  0.00     0.019 C 
HETATM    3  C12 UNL     1      23.901   1.082  52.235  1.00  0.00    -0.034 C 
HETATM    4  C14 UNL     1      24.683   2.304  52.089  1.00  0.00     0.088 A 
HETATM    5  C15 UNL     1      24.368   3.279  53.247  1.00  0.00     0.050 C 
HETATM    6  C16 UNL     1      26.156   2.170  52.119  1.00  0.00     0.124 A 
HETATM    7  N3  UNL     1      26.968   2.600  51.186  1.00  0.00    -0.273 NA
HETATM    8  C17 UNL     1      26.437   3.232  50.032  1.00  0.00     0.133 A 
HETATM    9  C18 UNL     1      25.119   3.396  49.813  1.00  0.00     0.108 A 
HETATM   10  N4  UNL     1      24.255   2.857  50.831  1.00  0.00    -0.351 N 
ENDROOT
BRANCH   1  11
HETATM   11  C7  UNL     1      22.137   3.777  51.376  1.00  0.00     0.193 C 
HETATM   12  O1  UNL     1      21.355   3.670  52.363  1.00  0.00    -0.289 OA
BRANCH  11  13
HETATM   13  C6  UNL     1      22.204   5.132  50.899  1.00  0.00     0.037 A 
HETATM   14  C2  UNL     1      21.266   5.750  50.089  1.00  0.00     0.044 A 
HETATM   15  C1  UNL     1      20.076   4.970  49.654  1.00  0.00     0.071 C 
HETATM   16  N1  UNL     1      21.368   7.024  49.671  1.00  0.00    -0.265 NA
HETATM   17  C3  UNL     1      22.411   7.787  50.021  1.00  0.00     0.117 A 
HETATM   18  C4  UNL     1      23.392   7.265  50.821  1.00  0.00     0.020 A 
HETATM   19  C5  UNL     1      23.258   5.957  51.233  1.00  0.00     0.018 A 
ENDBRANCH  11  13
ENDBRANCH   1  11
BRANCH   1  20
HETATM   20  C9  UNL     1      22.452   2.328  49.409  1.00  0.00     0.073 C 
BRANCH  20  21
HETATM   21  C10 UNL     1      21.561   1.124  49.316  1.00  0.00     0.270 C 
BRANCH  21  22
HETATM   22  N2  UNL     1      20.220   1.489  48.833  1.00  0.00     0.078 N 
HETATM   23  H11 UNL     1      19.901   2.390  49.274  1.00  0.00     0.312 HD
HETATM   24  H12 UNL     1      19.598   0.747  49.270  1.00  0.00     0.312 HD
ENDBRANCH  21  22
ENDBRANCH  20  21
ENDBRANCH   1  20
BRANCH   3  25
HETATM   25  C13 UNL     1      24.385  -0.066  53.053  1.00  0.00     0.151 C 
HETATM   26 CL1  UNL     1      23.150  -0.724  54.115  1.00  0.00    -0.126 Cl
ENDBRANCH   3  25
TORSDOF 6
ENDMDL
MODEL 4
REMARK VINA RESULT:      -6.3      2.596      3.505
REMARK  6 active torsions:
REMARK  status: ('A' for Active; 'I' for Inactive)
REMARK    1  A    between atoms: C6_7  and  C7_8 
REMARK    2  A    between atoms: C7_8  and  C8_10 
REMARK    3  A    between atoms: C8_10  and  C9_11 
REMARK    4  A    between atoms: C9_11  and  C10_12 
REMARK    5  A    between atoms: C10_12  and  N2_13 
REMARK    6  A    between atoms: C12_15  and  C13_16 
ROOT
HETATM    1  C8  UNL     1      21.614   3.143  50.826  1.00  0.00     0.119 C 
HETATM    2  C11 UNL     1      22.732   2.636  50.066  1.00  0.00     0.019 C 
HETATM    3  C12 UNL     1      23.819   3.438  50.217  1.00  0.00    -0.034 C 
HETATM    4  C14 UNL     1      23.394   4.466  51.161  1.00  0.00     0.088 A 
HETATM    5  C15 UNL     1      23.715   4.026  52.607  1.00  0.00     0.050 C 
HETATM    6  C16 UNL     1      24.029   5.798  51.038  1.00  0.00     0.124 A 
HETATM    7  N3  UNL     1      23.381   6.927  50.892  1.00  0.00    -0.273 NA
HETATM    8  C17 UNL     1      21.965   6.919  50.821  1.00  0.00     0.133 A 
HETATM    9  C18 UNL     1      21.224   5.796  50.865  1.00  0.00     0.108 A 
HETATM   10  N4  UNL     1      21.972   4.569  50.966  1.00  0.00    -0.351 N 
ENDROOT
BRANCH   1  11
HETATM   11  C7  UNL     1      21.169   2.629  52.070  1.00  0.00     0.193 C 
HETATM   12  O1  UNL     1      20.502   3.385  52.832  1.00  0.00    -0.289 OA
BRANCH  11  13
HETATM   13  C6  UNL     1      21.351   1.324  52.646  1.00  0.00     0.037 A 
HETATM   14  C2  UNL     1      20.411   0.308  52.659  1.00  0.00     0.044 A 
HETATM   15  C1  UNL     1      19.085   0.557  52.034  1.00  0.00     0.071 C 
HETATM   16  N1  UNL     1      20.629  -0.902  53.207  1.00  0.00    -0.265 NA
HETATM   17  C3  UNL     1      21.798  -1.198  53.789  1.00  0.00     0.117 A 
HETATM   18  C4  UNL     1      22.793  -0.257  53.826  1.00  0.00     0.020 A 
HETATM   19  C5  UNL     1      22.538   0.971  53.256  1.00  0.00     0.018 A 
ENDBRANCH  11  13
ENDBRANCH   1  11
BRANCH   1  20
HETATM   20  C9  UNL     1      20.441   3.216  49.791  1.00  0.00     0.073 C 
BRANCH  20  21
HETATM   21  C10 UNL     1      20.604   2.138  48.761  1.00  0.00     0.270 C 
BRANCH  21  22
HETATM   22  N2  UNL     1      19.761   2.394  47.583  1.00  0.00     0.078 N 
HETATM   23  H11 UNL     1      18.836   1.902  47.675  1.00  0.00     0.312 HD
HETATM   24  H12 UNL     1      20.264   1.867  46.809  1.00  0.00     0.312 HD
ENDBRANCH  21  22
ENDBRANCH  20  21
ENDBRANCH   1  20
BRANCH   3  25
HETATM   25  C13 UNL     1      25.205   3.398  49.672  1.00  0.00     0.151 C 
HETATM   26 CL1  UNL     1      26.327   2.531  50.710  1.00  0.00    -0.126 Cl
ENDBRANCH   3  25
TORSDOF 6
ENDMDL
MODEL 5
REMARK VINA RESULT:      -6.1      2.132      3.979
REMARK  6 active torsions:
REMARK  status: ('A' for Active; 'I' for Inactive)
REMARK    1  A    between atoms: C6_7  and  C7_8 
REMARK    2  A    between atoms: C7_8  and  C8_10 
REMARK    3  A    between atoms: C8_10  and  C9_11 
REMARK    4  A    between atoms: C9_11  and  C10_12 
REMARK    5  A    between atoms: C10_12  and  N2_13 
REMARK    6  A    between atoms: C12_15  and  C13_16 
ROOT
HETATM    1  C8  UNL     1      23.453   3.683  50.842  1.00  0.00     0.119 C 
HETATM    2  C11 UNL     1      23.071   5.021  50.459  1.00  0.00     0.019 C 
HETATM    3  C12 UNL     1      21.733   5.095  50.237  1.00  0.00    -0.034 C 
HETATM    4  C14 UNL     1      21.230   3.762  50.552  1.00  0.00     0.088 A 
HETATM    5  C15 UNL     1      20.820   3.685  52.039  1.00  0.00     0.050 C 
HETATM    6  C16 UNL     1      20.028   3.304  49.820  1.00  0.00     0.124 A 
HETATM    7  N3  UNL     1      19.948   2.197  49.126  1.00  0.00    -0.273 NA
HETATM    8  C17 UNL     1      21.081   1.351  49.023  1.00  0.00     0.133 A 
HETATM    9  C18 UNL     1      22.273   1.632  49.581  1.00  0.00     0.108 A 
HETATM   10  N4  UNL     1      22.342   2.886  50.286  1.00  0.00    -0.351 N 
ENDROOT
BRANCH   1  11
HETATM   11  C7  UNL     1      23.741   3.261  52.165  1.00  0.00     0.193 C 
HETATM   12  O1  UNL     1      23.829   4.136  53.072  1.00  0.00    -0.289 OA
BRANCH  11  13
HETATM   13  C6  UNL     1      23.959   1.938  52.684  1.00  0.00     0.037 A 
HETATM   14  C2  UNL     1      25.192   1.334  52.864  1.00  0.00     0.044 A 
HETATM   15  C1  UNL     1      26.417   2.092  52.492  1.00  0.00     0.071 C 
HETATM   16  N1  UNL     1      25.348   0.092  53.359  1.00  0.00    -0.265 NA
HETATM   17  C3  UNL     1      24.292  -0.650  53.714  1.00  0.00     0.117 A 
HETATM   18  C4  UNL     1      23.028  -0.139  53.574  1.00  0.00     0.020 A 
HETATM   19  C5  UNL     1      22.903   1.135  53.064  1.00  0.00     0.018 A 
ENDBRANCH  11  13
ENDBRANCH   1  11
BRANCH   1  20
HETATM   20  C9  UNL     1      24.620   3.315  49.865  1.00  0.00     0.073 C 
BRANCH  20  21
HETATM   21  C10 UNL     1      25.407   4.547  49.528  1.00  0.00     0.270 C 
BRANCH  21  22
HETATM   22  N2  UNL     1      26.852   4.317  49.689  1.00  0.00     0.078 N 
HETATM   23  H11 UNL     1      27.128   4.396  50.701  1.00  0.00     0.312 HD
HETATM   24  H12 UNL     1      27.283   5.173  49.231  1.00  0.00     0.312 HD
ENDBRANCH  21  22
ENDBRANCH  20  21
ENDBRANCH   1  20
BRANCH   3  25
HETATM   25  C13 UNL     1      20.821   6.199  49.824  1.00  0.00     0.151 C 
HETATM   26 CL1  UNL     1      21.293   7.761  50.477  1.00  0.00    -0.126 Cl
ENDBRANCH   3  25
TORSDOF 6
ENDMDL
MODEL 6
REMARK VINA RESULT:      -6.1      9.020     11.357
REMARK  6 active torsions:
REMARK  status: ('A' for Active; 'I' for Inactive)
REMARK    1  A    between atoms: C6_7  and  C7_8 
REMARK    2  A    between atoms: C7_8  and  C8_10 
REMARK    3  A    between atoms: C8_10  and  C9_11 
REMARK    4  A    between atoms: C9_11  and  C10_12 
REMARK    5  A    between atoms: C10_12  and  N2_13 
REMARK    6  A    between atoms: C12_15  and  C13_16 
ROOT
HETATM    1  C8  UNL     1      30.874   6.832  47.939  1.00  0.00     0.119 C 
HETATM    2  C11 UNL     1      31.181   5.458  48.255  1.00  0.00     0.019 C 
HETATM    3  C12 UNL     1      32.269   5.035  47.559  1.00  0.00    -0.034 C 
HETATM    4  C14 UNL     1      32.711   6.208  46.814  1.00  0.00     0.088 A 
HETATM    5  C15 UNL     1      33.746   7.005  47.640  1.00  0.00     0.050 C 
HETATM    6  C16 UNL     1      33.389   5.969  45.520  1.00  0.00     0.124 A 
HETATM    7  N3  UNL     1      33.021   6.486  44.374  1.00  0.00    -0.273 NA
HETATM    8  C17 UNL     1      31.882   7.329  44.318  1.00  0.00     0.133 A 
HETATM    9  C18 UNL     1      31.116   7.616  45.387  1.00  0.00     0.108 A 
HETATM   10  N4  UNL     1      31.514   6.983  46.617  1.00  0.00    -0.351 N 
ENDROOT
BRANCH   1  11
HETATM   11  C7  UNL     1      31.180   7.948  48.759  1.00  0.00     0.193 C 
HETATM   12  O1  UNL     1      31.698   7.741  49.892  1.00  0.00    -0.289 OA
BRANCH  11  13
HETATM   13  C6  UNL     1      30.994   9.352  48.511  1.00  0.00     0.037 A 
HETATM   14  C2  UNL     1      29.895  10.102  48.895  1.00  0.00     0.044 A 
HETATM   15  C1  UNL     1      28.790   9.424  49.625  1.00  0.00     0.071 C 
HETATM   16  N1  UNL     1      29.767  11.418  48.645  1.00  0.00    -0.265 NA
HETATM   17  C3  UNL     1      30.720  12.095  47.992  1.00  0.00     0.117 A 
HETATM   18  C4  UNL     1      31.847  11.440  47.571  1.00  0.00     0.020 A 
HETATM   19  C5  UNL     1      31.947  10.093  47.843  1.00  0.00     0.018 A 
ENDBRANCH  11  13
ENDBRANCH   1  11
BRANCH   1  20
HETATM   20  C9  UNL     1      29.357   6.814  47.551  1.00  0.00     0.073 C 
BRANCH  20  21
HETATM   21  C10 UNL     1      28.671   5.668  48.235  1.00  0.00     0.270 C 
BRANCH  21  22
HETATM   22  N2  UNL     1      27.550   6.137  49.065  1.00  0.00     0.078 N 
HETATM   23  H11 UNL     1      27.277   7.117  48.797  1.00  0.00     0.312 HD
HETATM   24  H12 UNL     1      27.990   6.239  50.026  1.00  0.00     0.312 HD
ENDBRANCH  21  22
ENDBRANCH  20  21
ENDBRANCH   1  20
BRANCH   3  25
HETATM   25  C13 UNL     1      33.004   3.740  47.493  1.00  0.00     0.151 C 
HETATM   26 CL1  UNL     1      32.171   2.525  46.536  1.00  0.00    -0.126 Cl
ENDBRANCH   3  25
TORSDOF 6
ENDMDL
MODEL 7
REMARK VINA RESULT:      -5.9      9.928     11.607
REMARK  6 active torsions:
REMARK  status: ('A' for Active; 'I' for Inactive)
REMARK    1  A    between atoms: C6_7  and  C7_8 
REMARK    2  A    between atoms: C7_8  and  C8_10 
REMARK    3  A    between atoms: C8_10  and  C9_11 
REMARK    4  A    between atoms: C9_11  and  C10_12 
REMARK    5  A    between atoms: C10_12  and  N2_13 
REMARK    6  A    between atoms: C12_15  and  C13_16 
ROOT
HETATM    1  C8  UNL     1      32.663   7.323  48.002  1.00  0.00     0.119 C 
HETATM    2  C11 UNL     1      32.370   8.546  48.711  1.00  0.00     0.019 C 
HETATM    3  C12 UNL     1      31.196   9.080  48.283  1.00  0.00    -0.034 C 
HETATM    4  C14 UNL     1      30.688   8.126  47.304  1.00  0.00     0.088 A 
HETATM    5  C15 UNL     1      29.780   7.085  47.996  1.00  0.00     0.050 C 
HETATM    6  C16 UNL     1      29.852   8.665  46.208  1.00  0.00     0.124 A 
HETATM    7  N3  UNL     1      30.085   8.491  44.931  1.00  0.00    -0.273 NA
HETATM    8  C17 UNL     1      31.225   7.755  44.521  1.00  0.00     0.133 A 
HETATM    9  C18 UNL     1      32.123   7.234  45.378  1.00  0.00     0.108 A 
HETATM   10  N4  UNL     1      31.867   7.495  46.770  1.00  0.00    -0.351 N 
ENDROOT
BRANCH   1  11
HETATM   11  C7  UNL     1      32.483   6.015  48.519  1.00  0.00     0.193 C 
HETATM   12  O1  UNL     1      32.111   5.885  49.719  1.00  0.00    -0.289 OA
BRANCH  11  13
HETATM   13  C6  UNL     1      32.658   4.738  47.879  1.00  0.00     0.037 A 
HETATM   14  C2  UNL     1      33.823   3.990  47.874  1.00  0.00     0.044 A 
HETATM   15  C1  UNL     1      35.017   4.528  48.579  1.00  0.00     0.071 C 
HETATM   16  N1  UNL     1      33.938   2.796  47.265  1.00  0.00    -0.265 NA
HETATM   17  C3  UNL     1      32.906   2.249  46.610  1.00  0.00     0.117 A 
HETATM   18  C4  UNL     1      31.709   2.914  46.559  1.00  0.00     0.020 A 
HETATM   19  C5  UNL     1      31.624   4.135  47.193  1.00  0.00     0.018 A 
ENDBRANCH  11  13
ENDBRANCH   1  11
BRANCH   1  20
HETATM   20  C9  UNL     1      34.119   7.523  47.464  1.00  0.00     0.073 C 
BRANCH  20  21
HETATM   21  C10 UNL     1      34.918   8.329  48.446  1.00  0.00     0.270 C 
BRANCH  21  22
HETATM   22  N2  UNL     1      36.315   7.871  48.499  1.00  0.00     0.078 N 
HETATM   23  H11 UNL     1      36.929   8.608  48.930  1.00  0.00     0.312 HD
HETATM   24  H12 UNL     1      36.601   7.855  47.476  1.00  0.00     0.312 HD
ENDBRANCH  21  22
ENDBRANCH  20  21
ENDBRANCH   1  20
BRANCH   3  25
HETATM   25  C13 UNL     1      30.433  10.306  48.653  1.00  0.00     0.151 C 
HETATM   26 CL1  UNL     1      31.304  11.791  48.302  1.00  0.00    -0.126 Cl
ENDBRANCH   3  25
TORSDOF 6
ENDMDL
MODEL 8
REMARK VINA RESULT:      -5.8      9.366     11.892
REMARK  6 active torsions:
REMARK  status: ('A' for Active; 'I' for Inactive)
REMARK    1  A    between atoms: C6_7  and  C7_8 
REMARK    2  A    between atoms: C7_8  and  C8_10 
REMARK    3  A    between atoms: C8_10  and  C9_11 
REMARK    4  A    between atoms: C9_11  and  C10_12 
REMARK    5  A    between atoms: C10_12  and  N2_13 
REMARK    6  A    between atoms: C12_15  and  C13_16 
ROOT
HETATM    1  C8  UNL     1      32.149   7.213  46.956  1.00  0.00     0.119 C 
HETATM    2  C11 UNL     1      32.131   5.860  46.456  1.00  0.00     0.019 C 
HETATM    3  C12 UNL     1      32.936   5.060  47.205  1.00  0.00    -0.034 C 
HETATM    4  C14 UNL     1      33.440   5.927  48.264  1.00  0.00     0.088 A 
HETATM    5  C15 UNL     1      32.504   5.868  49.491  1.00  0.00     0.050 C 
HETATM    6  C16 UNL     1      34.778   5.613  48.813  1.00  0.00     0.124 A 
HETATM    7  N3  UNL     1      35.781   6.453  48.872  1.00  0.00    -0.273 NA
HETATM    8  C17 UNL     1      35.624   7.768  48.366  1.00  0.00     0.133 A 
HETATM    9  C18 UNL     1      34.494   8.213  47.786  1.00  0.00     0.108 A 
HETATM   10  N4  UNL     1      33.433   7.245  47.684  1.00  0.00    -0.351 N 
ENDROOT
BRANCH   1  11
HETATM   11  C7  UNL     1      31.130   7.810  47.741  1.00  0.00     0.193 C 
HETATM   12  O1  UNL     1      31.452   8.711  48.566  1.00  0.00    -0.289 OA
BRANCH  11  13
HETATM   13  C6  UNL     1      29.714   7.556  47.761  1.00  0.00     0.037 A 
HETATM   14  C2  UNL     1      28.735   8.401  47.268  1.00  0.00     0.044 A 
HETATM   15  C1  UNL     1      29.149   9.695  46.662  1.00  0.00     0.071 C 
HETATM   16  N1  UNL     1      27.419   8.118  47.304  1.00  0.00    -0.265 NA
HETATM   17  C3  UNL     1      26.971   6.974  47.836  1.00  0.00     0.117 A 
HETATM   18  C4  UNL     1      27.865   6.071  48.350  1.00  0.00     0.020 A 
HETATM   19  C5  UNL     1      29.204   6.392  48.297  1.00  0.00     0.018 A 
ENDBRANCH  11  13
ENDBRANCH   1  11
BRANCH   1  20
HETATM   20  C9  UNL     1      32.481   8.088  45.700  1.00  0.00     0.073 C 
BRANCH  20  21
HETATM   21  C10 UNL     1      31.961   7.418  44.462  1.00  0.00     0.270 C 
BRANCH  21  22
HETATM   22  N2  UNL     1      30.801   8.138  43.913  1.00  0.00     0.078 N 
HETATM   23  H11 UNL     1      30.744   8.007  42.871  1.00  0.00     0.312 HD
HETATM   24  H12 UNL     1      31.072   9.158  44.036  1.00  0.00     0.312 HD
ENDBRANCH  21  22
ENDBRANCH  20  21
ENDBRANCH   1  20
BRANCH   3  25
HETATM   25  C13 UNL     1      33.290   3.614  47.140  1.00  0.00     0.151 C 
HETATM   26 CL1  UNL     1      34.683   3.292  46.119  1.00  0.00    -0.126 Cl
ENDBRANCH   3  25
TORSDOF 6
ENDMDL
MODEL 9
REMARK VINA RESULT:      -5.7      3.028      5.762
REMARK  6 active torsions:
REMARK  status: ('A' for Active; 'I' for Inactive)
REMARK    1  A    between atoms: C6_7  and  C7_8 
REMARK    2  A    between atoms: C7_8  and  C8_10 
REMARK    3  A    between atoms: C8_10  and  C9_11 
REMARK    4  A    between atoms: C9_11  and  C10_12 
REMARK    5  A    between atoms: C10_12  and  N2_13 
REMARK    6  A    between atoms: C12_15  and  C13_16 
ROOT
HETATM    1  C8  UNL     1      22.497   3.382  51.219  1.00  0.00     0.119 C 
HETATM    2  C11 UNL     1      22.907   2.609  52.367  1.00  0.00     0.019 C 
HETATM    3  C12 UNL     1      22.045   1.582  52.587  1.00  0.00    -0.034 C 
HETATM    4  C14 UNL     1      21.079   1.667  51.498  1.00  0.00     0.088 A 
HETATM    5  C15 UNL     1      21.548   0.809  50.302  1.00  0.00     0.050 C 
HETATM    6  C16 UNL     1      19.707   1.184  51.774  1.00  0.00     0.124 A 
HETATM    7  N3  UNL     1      18.616   1.889  51.605  1.00  0.00    -0.273 NA
HETATM    8  C17 UNL     1      18.709   3.226  51.144  1.00  0.00     0.133 A 
HETATM    9  C18 UNL     1      19.877   3.846  50.890  1.00  0.00     0.108 A 
HETATM   10  N4  UNL     1      21.058   3.062  51.143  1.00  0.00    -0.351 N 
ENDROOT
BRANCH   1  11
HETATM   11  C7  UNL     1      23.081   3.306  49.929  1.00  0.00     0.193 C 
HETATM   12  O1  UNL     1      24.166   2.672  49.795  1.00  0.00    -0.289 OA
BRANCH  11  13
HETATM   13  C6  UNL     1      22.629   3.851  48.678  1.00  0.00     0.037 A 
HETATM   14  C2  UNL     1      23.020   5.064  48.137  1.00  0.00     0.044 A 
HETATM   15  C1  UNL     1      23.988   5.902  48.894  1.00  0.00     0.071 C 
HETATM   16  N1  UNL     1      22.573   5.532  46.957  1.00  0.00    -0.265 NA
HETATM   17  C3  UNL     1      21.700   4.834  46.221  1.00  0.00     0.117 A 
HETATM   18  C4  UNL     1      21.253   3.620  46.672  1.00  0.00     0.020 A 
HETATM   19  C5  UNL     1      21.731   3.169  47.884  1.00  0.00     0.018 A 
ENDBRANCH  11  13
ENDBRANCH   1  11
BRANCH   1  20
HETATM   20  C9  UNL     1      22.460   4.860  51.737  1.00  0.00     0.073 C 
BRANCH  20  21
HETATM   21  C10 UNL     1      23.575   5.083  52.716  1.00  0.00     0.270 C 
BRANCH  21  22
HETATM   22  N2  UNL     1      24.236   6.377  52.485  1.00  0.00     0.078 N 
HETATM   23  H11 UNL     1      24.637   6.419  51.513  1.00  0.00     0.312 HD
HETATM   24  H12 UNL     1      25.088   6.327  53.118  1.00  0.00     0.312 HD
ENDBRANCH  21  22
ENDBRANCH  20  21
ENDBRANCH   1  20
BRANCH   3  25
HETATM   25  C13 UNL     1      21.980   0.500  53.611  1.00  0.00     0.151 C 
HETATM   26 CL1  UNL     1      23.414  -0.515  53.630  1.00  0.00    -0.126 Cl
ENDBRANCH   3  25
TORSDOF 6
ENDMDL
