MODEL 1
REMARK VINA RESULT:      -8.1      0.000      0.000
REMARK  8 active torsions:
REMARK  status: ('A' for Active; 'I' for Inactive)
REMARK    1  A    between atoms: O1_2  and  C2_3 
REMARK    2  A    between atoms: C6_9  and  N3_10 
REMARK    3  A    between atoms: N3_10  and  C7_11 
REMARK    4  A    between atoms: C15_21  and  O2_22 
REMARK    5  A    between atoms: O2_22  and  C16_23 
REMARK    6  A    between atoms: C16_23  and  C17_24 
REMARK    7  A    between atoms: C17_24  and  C18_25 
REMARK    8  A    between atoms: C18_25  and  C19_26 
ROOT
HETATM    1  C2  UNL     1      19.852   0.024  51.854  1.00  0.00     0.103 A 
HETATM    2  C3  UNL     1      20.066  -0.556  53.085  1.00  0.00     0.072 A 
HETATM    3  C4  UNL     1      21.344  -0.644  53.591  1.00  0.00     0.075 A 
HETATM    4  N1  UNL     1      21.444  -1.225  54.789  1.00  0.00    -0.241 NA
HETATM    5  C5  UNL     1      22.668  -1.341  55.340  1.00  0.00     0.236 A 
HETATM    6  N2  UNL     1      23.739  -0.882  54.685  1.00  0.00    -0.224 NA
HETATM    7  C6  UNL     1      23.724  -0.293  53.490  1.00  0.00     0.142 A 
HETATM    8  C13 UNL     1      22.471  -0.179  52.941  1.00  0.00     0.042 A 
HETATM    9  C14 UNL     1      22.194   0.390  51.717  1.00  0.00     0.057 A 
HETATM   10  C15 UNL     1      20.943   0.507  51.160  1.00  0.00     0.103 A 
ENDROOT
BRANCH   7  11
HETATM   11  N3  UNL     1      24.834   0.206  52.772  1.00  0.00    -0.340 N 
HETATM   12  H6  UNL     1      24.730   0.832  51.967  1.00  0.00     0.167 HD
BRANCH  11  13
HETATM   13  C7  UNL     1      26.203  -0.057  53.018  1.00  0.00     0.035 A 
HETATM   14  C8  UNL     1      26.799  -1.265  52.750  1.00  0.00     0.032 A 
HETATM   15  C9  UNL     1      28.123  -1.562  52.983  1.00  0.00     0.046 A 
HETATM   16  C10 UNL     1      28.950  -0.603  53.525  1.00  0.00     0.138 A 
HETATM   17  F1  UNL     1      30.263  -0.788  53.794  1.00  0.00    -0.204 F 
HETATM   18  C11 UNL     1      28.409   0.626  53.815  1.00  0.00     0.074 A 
HETATM   19 CL1  UNL     1      29.392   1.898  54.505  1.00  0.00    -0.081 Cl
HETATM   20  C12 UNL     1      27.079   0.857  53.557  1.00  0.00     0.056 A 
ENDBRANCH  11  13
ENDBRANCH   7  11
BRANCH  10  21
HETATM   21  O2  UNL     1      20.717   1.090  49.921  1.00  0.00    -0.348 OA
BRANCH  21  22
HETATM   22  C16 UNL     1      21.809   1.509  49.158  1.00  0.00     0.176 C 
BRANCH  22  23
HETATM   23  C17 UNL     1      22.085   2.998  49.330  1.00  0.00     0.028 C 
BRANCH  23  24
HETATM   24  C18 UNL     1      23.545   3.244  49.071  1.00  0.00     0.026 C 
BRANCH  24  25
HETATM   25  C19 UNL     1      24.229   3.774  50.290  1.00  0.00     0.111 C 
HETATM   26  C20 UNL     1      23.474   3.728  51.585  1.00  0.00     0.216 C 
HETATM   27  O3  UNL     1      24.682   3.261  52.145  1.00  0.00    -0.302 OA
HETATM   28  N4  UNL     1      24.958   2.708  50.945  1.00  0.00    -0.195 NA
HETATM   29  C21 UNL     1      26.338   2.712  50.535  1.00  0.00     0.144 C 
ENDBRANCH  24  25
ENDBRANCH  23  24
ENDBRANCH  22  23
ENDBRANCH  21  22
ENDBRANCH  10  21
BRANCH   1  30
HETATM   30  O1  UNL     1      18.595   0.137  51.304  1.00  0.00    -0.353 OA
HETATM   31  C1  UNL     1      17.665   1.123  51.725  1.00  0.00     0.210 C 
ENDBRANCH   1  30
TORSDOF 8
ENDMDL
MODEL 2
REMARK VINA RESULT:      -7.8      1.243      1.497
REMARK  8 active torsions:
REMARK  status: ('A' for Active; 'I' for Inactive)
REMARK    1  A    between atoms: O1_2  and  C2_3 
REMARK    2  A    between atoms: C6_9  and  N3_10 
REMARK    3  A    between atoms: N3_10  and  C7_11 
REMARK    4  A    between atoms: C15_21  and  O2_22 
REMARK    5  A    between atoms: O2_22  and  C16_23 
REMARK    6  A    between atoms: C16_23  and  C17_24 
REMARK    7  A    between atoms: C17_24  and  C18_25 
REMARK    8  A    between atoms: C18_25  and  C19_26 
ROOT
HETATM    1  C2  UNL     1      19.877  -0.036  52.281  1.00  0.00     0.103 A 
HETATM    2  C3  UNL     1      20.216  -0.614  53.485  1.00  0.00     0.072 A 
HETATM    3  C4  UNL     1      21.537  -0.683  53.866  1.00  0.00     0.075 A 
HETATM    4  N1  UNL     1      21.760  -1.263  55.048  1.00  0.00    -0.241 NA
HETATM    5  C5  UNL     1      23.033  -1.361  55.479  1.00  0.00     0.236 A 
HETATM    6  N2  UNL     1      24.029  -0.885  54.725  1.00  0.00    -0.224 NA
HETATM    7  C6  UNL     1      23.891  -0.295  53.539  1.00  0.00     0.142 A 
HETATM    8  C13 UNL     1      22.590  -0.200  53.112  1.00  0.00     0.042 A 
HETATM    9  C14 UNL     1      22.189   0.366  51.921  1.00  0.00     0.057 A 
HETATM   10  C15 UNL     1      20.888   0.463  51.487  1.00  0.00     0.103 A 
ENDROOT
BRANCH   7  11
HETATM   11  N3  UNL     1      24.920   0.221  52.720  1.00  0.00    -0.340 N 
HETATM   12  H6  UNL     1      24.730   0.665  51.814  1.00  0.00     0.167 HD
BRANCH  11  13
HETATM   13  C7  UNL     1      26.311   0.215  52.982  1.00  0.00     0.035 A 
HETATM   14  C8  UNL     1      27.037   1.354  53.232  1.00  0.00     0.032 A 
HETATM   15  C9  UNL     1      28.390   1.390  53.483  1.00  0.00     0.046 A 
HETATM   16  C10 UNL     1      29.111   0.217  53.494  1.00  0.00     0.138 A 
HETATM   17  F1  UNL     1      30.441   0.137  53.729  1.00  0.00    -0.204 F 
HETATM   18  C11 UNL     1      28.438  -0.957  53.250  1.00  0.00     0.074 A 
HETATM   19 CL1  UNL     1      29.281  -2.490  53.247  1.00  0.00    -0.081 Cl
HETATM   20  C12 UNL     1      27.086  -0.922  53.008  1.00  0.00     0.056 A 
ENDBRANCH  11  13
ENDBRANCH   7  11
BRANCH  10  21
HETATM   21  O2  UNL     1      20.537   1.044  50.277  1.00  0.00    -0.348 OA
BRANCH  21  22
HETATM   22  C16 UNL     1      21.490   1.125  49.260  1.00  0.00     0.176 C 
BRANCH  22  23
HETATM   23  C17 UNL     1      21.786   2.570  48.872  1.00  0.00     0.028 C 
BRANCH  23  24
HETATM   24  C18 UNL     1      23.192   2.896  49.291  1.00  0.00     0.026 C 
BRANCH  24  25
HETATM   25  C19 UNL     1      23.254   4.209  50.002  1.00  0.00     0.111 C 
HETATM   26  C20 UNL     1      22.744   4.261  51.410  1.00  0.00     0.216 C 
HETATM   27  O3  UNL     1      23.903   5.017  51.686  1.00  0.00    -0.302 OA
HETATM   28  N4  UNL     1      24.518   4.328  50.701  1.00  0.00    -0.195 NA
HETATM   29  C21 UNL     1      25.471   5.053  49.904  1.00  0.00     0.144 C 
ENDBRANCH  24  25
ENDBRANCH  23  24
ENDBRANCH  22  23
ENDBRANCH  21  22
ENDBRANCH  10  21
BRANCH   1  30
HETATM   30  O1  UNL     1      18.571   0.058  51.854  1.00  0.00    -0.353 OA
HETATM   31  C1  UNL     1      17.555  -0.821  52.310  1.00  0.00     0.210 C 
ENDBRANCH   1  30
TORSDOF 8
ENDMDL
MODEL 3
REMARK VINA RESULT:      -7.7      3.432      5.913
REMARK  8 active torsions:
REMARK  status: ('A' for Active; 'I' for Inactive)
REMARK    1  A    between atoms: O1_2  and  C2_3 
REMARK    2  A    between atoms: C6_9  and  N3_10 
REMARK    3  A    between atoms: N3_10  and  C7_11 
REMARK    4  A    between atoms: C15_21  and  O2_22 
REMARK    5  A    between atoms: O2_22  and  C16_23 
REMARK    6  A    between atoms: C16_23  and  C17_24 
REMARK    7  A    between atoms: C17_24  and  C18_25 
REMARK    8  A    between atoms: C18_25  and  C19_26 
ROOT
HETATM    1  C2  UNL     1      22.086   0.262  52.850  1.00  0.00     0.103 A 
HETATM    2  C3  UNL     1      21.056   1.028  52.349  1.00  0.00     0.072 A 
HETATM    3  C4  UNL     1      21.287   2.336  51.984  1.00  0.00     0.075 A 
HETATM    4  N1  UNL     1      20.224   2.992  51.513  1.00  0.00    -0.241 NA
HETATM    5  C5  UNL     1      20.384   4.276  51.137  1.00  0.00     0.236 A 
HETATM    6  N2  UNL     1      21.584   4.856  51.243  1.00  0.00    -0.224 NA
HETATM    7  C6  UNL     1      22.690   4.273  51.702  1.00  0.00     0.142 A 
HETATM    8  C13 UNL     1      22.514   2.965  52.080  1.00  0.00     0.042 A 
HETATM    9  C14 UNL     1      23.503   2.149  52.586  1.00  0.00     0.057 A 
HETATM   10  C15 UNL     1      23.334   0.840  52.967  1.00  0.00     0.103 A 
ENDROOT
BRANCH   7  11
HETATM   11  N3  UNL     1      23.972   4.855  51.824  1.00  0.00    -0.340 N 
HETATM   12  H6  UNL     1      24.306   5.266  52.702  1.00  0.00     0.167 HD
BRANCH  11  13
HETATM   13  C7  UNL     1      24.961   4.971  50.818  1.00  0.00     0.035 A 
HETATM   14  C8  UNL     1      25.737   3.919  50.398  1.00  0.00     0.032 A 
HETATM   15  C9  UNL     1      26.714   3.993  49.431  1.00  0.00     0.046 A 
HETATM   16  C10 UNL     1      26.965   5.197  48.810  1.00  0.00     0.138 A 
HETATM   17  F1  UNL     1      27.898   5.382  47.848  1.00  0.00    -0.204 F 
HETATM   18  C11 UNL     1      26.218   6.287  49.189  1.00  0.00     0.074 A 
HETATM   19 CL1  UNL     1      26.476   7.850  48.448  1.00  0.00    -0.081 Cl
HETATM   20  C12 UNL     1      25.258   6.143  50.161  1.00  0.00     0.056 A 
ENDBRANCH  11  13
ENDBRANCH   7  11
BRANCH  10  21
HETATM   21  O2  UNL     1      24.364   0.060  53.471  1.00  0.00    -0.348 OA
BRANCH  21  22
HETATM   22  C16 UNL     1      25.484  -0.186  52.673  1.00  0.00     0.176 C 
BRANCH  22  23
HETATM   23  C17 UNL     1      26.599  -0.872  53.453  1.00  0.00     0.028 C 
BRANCH  23  24
HETATM   24  C18 UNL     1      26.933  -0.026  54.650  1.00  0.00     0.026 C 
BRANCH  24  25
HETATM   25  C19 UNL     1      28.386   0.323  54.678  1.00  0.00     0.111 C 
HETATM   26  C20 UNL     1      29.351  -0.678  54.119  1.00  0.00     0.216 C 
HETATM   27  O3  UNL     1      29.966   0.427  53.493  1.00  0.00    -0.302 OA
HETATM   28  N4  UNL     1      28.747   1.009  53.453  1.00  0.00    -0.195 NA
HETATM   29  C21 UNL     1      28.708   2.435  53.640  1.00  0.00     0.144 C 
ENDBRANCH  24  25
ENDBRANCH  23  24
ENDBRANCH  22  23
ENDBRANCH  21  22
ENDBRANCH  10  21
BRANCH   1  30
HETATM   30  O1  UNL     1      21.908  -1.049  53.229  1.00  0.00    -0.353 OA
HETATM   31  C1  UNL     1      21.181  -1.414  54.392  1.00  0.00     0.210 C 
ENDBRANCH   1  30
TORSDOF 8
ENDMDL
MODEL 4
REMARK VINA RESULT:      -7.5      3.927      7.668
REMARK  8 active torsions:
REMARK  status: ('A' for Active; 'I' for Inactive)
REMARK    1  A    between atoms: O1_2  and  C2_3 
REMARK    2  A    between atoms: C6_9  and  N3_10 
REMARK    3  A    between atoms: N3_10  and  C7_11 
REMARK    4  A    between atoms: C15_21  and  O2_22 
REMARK    5  A    between atoms: O2_22  and  C16_23 
REMARK    6  A    between atoms: C16_23  and  C17_24 
REMARK    7  A    between atoms: C17_24  and  C18_25 
REMARK    8  A    between atoms: C18_25  and  C19_26 
ROOT
HETATM    1  C2  UNL     1      26.678   4.805  49.225  1.00  0.00     0.103 A 
HETATM    2  C3  UNL     1      25.959   5.944  48.934  1.00  0.00     0.072 A 
HETATM    3  C4  UNL     1      24.787   6.208  49.607  1.00  0.00     0.075 A 
HETATM    4  N1  UNL     1      24.166   7.335  49.249  1.00  0.00    -0.241 NA
HETATM    5  C5  UNL     1      23.013   7.651  49.870  1.00  0.00     0.236 A 
HETATM    6  N2  UNL     1      22.523   6.842  50.815  1.00  0.00    -0.224 NA
HETATM    7  C6  UNL     1      23.079   5.704  51.228  1.00  0.00     0.142 A 
HETATM    8  C13 UNL     1      24.254   5.394  50.588  1.00  0.00     0.042 A 
HETATM    9  C14 UNL     1      25.015   4.273  50.835  1.00  0.00     0.057 A 
HETATM   10  C15 UNL     1      26.192   3.956  50.198  1.00  0.00     0.103 A 
ENDROOT
BRANCH   7  11
HETATM   11  N3  UNL     1      22.590   4.829  52.224  1.00  0.00    -0.340 N 
HETATM   12  H6  UNL     1      22.669   5.039  53.225  1.00  0.00     0.167 HD
BRANCH  11  13
HETATM   13  C7  UNL     1      21.950   3.581  52.030  1.00  0.00     0.035 A 
HETATM   14  C8  UNL     1      20.751   3.443  51.375  1.00  0.00     0.032 A 
HETATM   15  C9  UNL     1      20.092   2.251  51.175  1.00  0.00     0.046 A 
HETATM   16  C10 UNL     1      20.643   1.082  51.652  1.00  0.00     0.138 A 
HETATM   17  F1  UNL     1      20.083  -0.142  51.511  1.00  0.00    -0.204 F 
HETATM   18  C11 UNL     1      21.844   1.158  52.317  1.00  0.00     0.074 A 
HETATM   19 CL1  UNL     1      22.609  -0.281  52.953  1.00  0.00    -0.081 Cl
HETATM   20  C12 UNL     1      22.448   2.381  52.482  1.00  0.00     0.056 A 
ENDBRANCH  11  13
ENDBRANCH   7  11
BRANCH  10  21
HETATM   21  O2  UNL     1      26.923   2.812  50.485  1.00  0.00    -0.348 OA
BRANCH  21  22
HETATM   22  C16 UNL     1      26.791   2.219  51.742  1.00  0.00     0.176 C 
BRANCH  22  23
HETATM   23  C17 UNL     1      25.983   0.928  51.681  1.00  0.00     0.028 C 
BRANCH  23  24
HETATM   24  C18 UNL     1      26.767  -0.156  52.366  1.00  0.00     0.026 C 
BRANCH  24  25
HETATM   25  C19 UNL     1      27.515   0.379  53.544  1.00  0.00     0.111 C 
HETATM   26  C20 UNL     1      26.882   0.233  54.894  1.00  0.00     0.216 C 
HETATM   27  O3  UNL     1      28.163  -0.165  55.332  1.00  0.00    -0.302 OA
HETATM   28  N4  UNL     1      28.371  -0.655  54.090  1.00  0.00    -0.195 NA
HETATM   29  C21 UNL     1      29.706  -0.536  53.566  1.00  0.00     0.144 C 
ENDBRANCH  24  25
ENDBRANCH  23  24
ENDBRANCH  22  23
ENDBRANCH  21  22
ENDBRANCH  10  21
BRANCH   1  30
HETATM   30  O1  UNL     1      27.855   4.495  48.582  1.00  0.00    -0.353 OA
HETATM   31  C1  UNL     1      28.802   5.483  48.208  1.00  0.00     0.210 C 
ENDBRANCH   1  30
TORSDOF 8
ENDMDL
MODEL 5
REMARK VINA RESULT:      -7.4      3.364      4.578
REMARK  8 active torsions:
REMARK  status: ('A' for Active; 'I' for Inactive)
REMARK    1  A    between atoms: O1_2  and  C2_3 
REMARK    2  A    between atoms: C6_9  and  N3_10 
REMARK    3  A    between atoms: N3_10  and  C7_11 
REMARK    4  A    between atoms: C15_21  and  O2_22 
REMARK    5  A    between atoms: O2_22  and  C16_23 
REMARK    6  A    between atoms: C16_23  and  C17_24 
REMARK    7  A    between atoms: C17_24  and  C18_25 
REMARK    8  A    between atoms: C18_25  and  C19_26 
ROOT
HETATM    1  C2  UNL     1      23.119   2.805  49.245  1.00  0.00     0.103 A 
HETATM    2  C3  UNL     1      22.384   1.838  49.895  1.00  0.00     0.072 A 
HETATM    3  C4  UNL     1      22.822   1.337  51.101  1.00  0.00     0.075 A 
HETATM    4  N1  UNL     1      22.040   0.404  51.648  1.00  0.00    -0.241 NA
HETATM    5  C5  UNL     1      22.413  -0.127  52.829  1.00  0.00     0.236 A 
HETATM    6  N2  UNL     1      23.541   0.286  53.417  1.00  0.00    -0.224 NA
HETATM    7  C6  UNL     1      24.373   1.208  52.938  1.00  0.00     0.142 A 
HETATM    8  C13 UNL     1      23.981   1.741  51.736  1.00  0.00     0.042 A 
HETATM    9  C14 UNL     1      24.672   2.708  51.038  1.00  0.00     0.057 A 
HETATM   10  C15 UNL     1      24.286   3.246  49.833  1.00  0.00     0.103 A 
ENDROOT
BRANCH   7  11
HETATM   11  N3  UNL     1      25.569   1.668  53.534  1.00  0.00    -0.340 N 
HETATM   12  H6  UNL     1      25.631   2.574  54.012  1.00  0.00     0.167 HD
BRANCH  11  13
HETATM   13  C7  UNL     1      26.820   1.006  53.571  1.00  0.00     0.035 A 
HETATM   14  C8  UNL     1      27.994   1.630  53.913  1.00  0.00     0.032 A 
HETATM   15  C9  UNL     1      29.230   1.024  53.952  1.00  0.00     0.046 A 
HETATM   16  C10 UNL     1      29.342  -0.311  53.632  1.00  0.00     0.138 A 
HETATM   17  F1  UNL     1      30.503  -1.005  53.638  1.00  0.00    -0.204 F 
HETATM   18  C11 UNL     1      28.199  -0.989  53.282  1.00  0.00     0.074 A 
HETATM   19 CL1  UNL     1      28.257  -2.687  52.862  1.00  0.00    -0.081 Cl
HETATM   20  C12 UNL     1      26.997  -0.324  53.263  1.00  0.00     0.056 A 
ENDBRANCH  11  13
ENDBRANCH   7  11
BRANCH  10  21
HETATM   21  O2  UNL     1      25.018   4.220  49.170  1.00  0.00    -0.348 OA
BRANCH  21  22
HETATM   22  C16 UNL     1      26.411   4.210  49.272  1.00  0.00     0.176 C 
BRANCH  22  23
HETATM   23  C17 UNL     1      27.029   5.503  48.752  1.00  0.00     0.028 C 
BRANCH  23  24
HETATM   24  C18 UNL     1      28.458   5.228  48.374  1.00  0.00     0.026 C 
BRANCH  24  25
HETATM   25  C19 UNL     1      29.123   6.456  47.842  1.00  0.00     0.111 C 
HETATM   26  C20 UNL     1      28.725   7.774  48.436  1.00  0.00     0.216 C 
HETATM   27  O3  UNL     1      30.107   8.059  48.452  1.00  0.00    -0.302 OA
HETATM   28  N4  UNL     1      30.320   6.735  48.609  1.00  0.00    -0.195 NA
HETATM   29  C21 UNL     1      31.479   6.187  47.955  1.00  0.00     0.144 C 
ENDBRANCH  24  25
ENDBRANCH  23  24
ENDBRANCH  22  23
ENDBRANCH  21  22
ENDBRANCH  10  21
BRANCH   1  30
HETATM   30  O1  UNL     1      22.725   3.339  48.038  1.00  0.00    -0.353 OA
HETATM   31  C1  UNL     1      21.699   4.314  47.935  1.00  0.00     0.210 C 
ENDBRANCH   1  30
TORSDOF 8
ENDMDL
MODEL 6
REMARK VINA RESULT:      -7.4      3.934      6.753
REMARK  8 active torsions:
REMARK  status: ('A' for Active; 'I' for Inactive)
REMARK    1  A    between atoms: O1_2  and  C2_3 
REMARK    2  A    between atoms: C6_9  and  N3_10 
REMARK    3  A    between atoms: N3_10  and  C7_11 
REMARK    4  A    between atoms: C15_21  and  O2_22 
REMARK    5  A    between atoms: O2_22  and  C16_23 
REMARK    6  A    between atoms: C16_23  and  C17_24 
REMARK    7  A    between atoms: C17_24  and  C18_25 
REMARK    8  A    between atoms: C18_25  and  C19_26 
ROOT
HETATM    1  C2  UNL     1      26.364  -0.169  52.990  1.00  0.00     0.103 A 
HETATM    2  C3  UNL     1      25.549  -0.794  53.909  1.00  0.00     0.072 A 
HETATM    3  C4  UNL     1      24.205  -0.498  53.949  1.00  0.00     0.075 A 
HETATM    4  N1  UNL     1      23.504  -1.155  54.876  1.00  0.00    -0.241 NA
HETATM    5  C5  UNL     1      22.182  -0.911  54.966  1.00  0.00     0.236 A 
HETATM    6  N2  UNL     1      21.610  -0.028  54.140  1.00  0.00    -0.224 NA
HETATM    7  C6  UNL     1      22.237   0.667  53.193  1.00  0.00     0.142 A 
HETATM    8  C13 UNL     1      23.583   0.407  53.110  1.00  0.00     0.042 A 
HETATM    9  C14 UNL     1      24.448   0.998  52.215  1.00  0.00     0.057 A 
HETATM   10  C15 UNL     1      25.796   0.744  52.127  1.00  0.00     0.103 A 
ENDROOT
BRANCH   7  11
HETATM   11  N3  UNL     1      21.665   1.603  52.302  1.00  0.00    -0.340 N 
HETATM   12  H6  UNL     1      22.188   2.408  51.942  1.00  0.00     0.167 HD
BRANCH  11  13
HETATM   13  C7  UNL     1      20.347   1.600  51.785  1.00  0.00     0.035 A 
HETATM   14  C8  UNL     1      19.818   0.551  51.074  1.00  0.00     0.032 A 
HETATM   15  C9  UNL     1      18.547   0.514  50.547  1.00  0.00     0.046 A 
HETATM   16  C10 UNL     1      17.706   1.591  50.724  1.00  0.00     0.138 A 
HETATM   17  F1  UNL     1      16.440   1.660  50.252  1.00  0.00    -0.204 F 
HETATM   18  C11 UNL     1      18.181   2.671  51.429  1.00  0.00     0.074 A 
HETATM   19 CL1  UNL     1      17.176   4.078  51.697  1.00  0.00    -0.081 Cl
HETATM   20  C12 UNL     1      19.461   2.643  51.928  1.00  0.00     0.056 A 
ENDBRANCH  11  13
ENDBRANCH   7  11
BRANCH  10  21
HETATM   21  O2  UNL     1      26.625   1.368  51.205  1.00  0.00    -0.348 OA
BRANCH  21  22
HETATM   22  C16 UNL     1      26.626   2.762  51.126  1.00  0.00     0.176 C 
BRANCH  22  23
HETATM   23  C17 UNL     1      26.181   3.255  49.754  1.00  0.00     0.028 C 
BRANCH  23  24
HETATM   24  C18 UNL     1      25.461   4.563  49.930  1.00  0.00     0.026 C 
BRANCH  24  25
HETATM   25  C19 UNL     1      24.018   4.439  49.560  1.00  0.00     0.111 C 
HETATM   26  C20 UNL     1      23.553   3.126  49.008  1.00  0.00     0.216 C 
HETATM   27  O3  UNL     1      22.445   3.280  49.868  1.00  0.00    -0.302 OA
HETATM   28  N4  UNL     1      23.260   3.964  50.700  1.00  0.00    -0.195 NA
HETATM   29  C21 UNL     1      22.674   5.068  51.414  1.00  0.00     0.144 C 
ENDBRANCH  24  25
ENDBRANCH  23  24
ENDBRANCH  22  23
ENDBRANCH  21  22
ENDBRANCH  10  21
BRANCH   1  30
HETATM   30  O1  UNL     1      27.714  -0.430  52.909  1.00  0.00    -0.353 OA
HETATM   31  C1  UNL     1      28.634   0.004  53.898  1.00  0.00     0.210 C 
ENDBRANCH   1  30
TORSDOF 8
ENDMDL
MODEL 7
REMARK VINA RESULT:      -7.4      3.810      6.517
REMARK  8 active torsions:
REMARK  status: ('A' for Active; 'I' for Inactive)
REMARK    1  A    between atoms: O1_2  and  C2_3 
REMARK    2  A    between atoms: C6_9  and  N3_10 
REMARK    3  A    between atoms: N3_10  and  C7_11 
REMARK    4  A    between atoms: C15_21  and  O2_22 
REMARK    5  A    between atoms: O2_22  and  C16_23 
REMARK    6  A    between atoms: C16_23  and  C17_24 
REMARK    7  A    between atoms: C17_24  and  C18_25 
REMARK    8  A    between atoms: C18_25  and  C19_26 
ROOT
HETATM    1  C2  UNL     1      27.182   0.668  53.516  1.00  0.00     0.103 A 
HETATM    2  C3  UNL     1      26.644   0.007  54.599  1.00  0.00     0.072 A 
HETATM    3  C4  UNL     1      25.334  -0.415  54.565  1.00  0.00     0.075 A 
HETATM    4  N1  UNL     1      24.909  -1.043  55.665  1.00  0.00    -0.241 NA
HETATM    5  C5  UNL     1      23.635  -1.481  55.695  1.00  0.00     0.236 A 
HETATM    6  N2  UNL     1      22.837  -1.280  54.641  1.00  0.00    -0.224 NA
HETATM    7  C6  UNL     1      23.183  -0.664  53.512  1.00  0.00     0.142 A 
HETATM    8  C13 UNL     1      24.483  -0.224  53.494  1.00  0.00     0.042 A 
HETATM    9  C14 UNL     1      25.076   0.441  52.443  1.00  0.00     0.057 A 
HETATM   10  C15 UNL     1      26.377   0.886  52.417  1.00  0.00     0.103 A 
ENDROOT
BRANCH   7  11
HETATM   11  N3  UNL     1      22.367  -0.438  52.381  1.00  0.00    -0.340 N 
HETATM   12  H6  UNL     1      22.451  -0.995  51.523  1.00  0.00     0.167 HD
BRANCH  11  13
HETATM   13  C7  UNL     1      21.353   0.540  52.235  1.00  0.00     0.035 A 
HETATM   14  C8  UNL     1      21.512   1.851  52.609  1.00  0.00     0.032 A 
HETATM   15  C9  UNL     1      20.550   2.829  52.493  1.00  0.00     0.046 A 
HETATM   16  C10 UNL     1      19.318   2.510  51.965  1.00  0.00     0.138 A 
HETATM   17  F1  UNL     1      18.302   3.390  51.806  1.00  0.00    -0.204 F 
HETATM   18  C11 UNL     1      19.100   1.211  51.573  1.00  0.00     0.074 A 
HETATM   19 CL1  UNL     1      17.563   0.725  50.894  1.00  0.00    -0.081 Cl
HETATM   20  C12 UNL     1      20.105   0.284  51.717  1.00  0.00     0.056 A 
ENDBRANCH  11  13
ENDBRANCH   7  11
BRANCH  10  21
HETATM   21  O2  UNL     1      26.927   1.551  51.332  1.00  0.00    -0.348 OA
BRANCH  21  22
HETATM   22  C16 UNL     1      26.579   2.885  51.104  1.00  0.00     0.176 C 
BRANCH  22  23
HETATM   23  C17 UNL     1      26.562   3.222  49.617  1.00  0.00     0.028 C 
BRANCH  23  24
HETATM   24  C18 UNL     1      25.583   4.341  49.395  1.00  0.00     0.026 C 
BRANCH  24  25
HETATM   25  C19 UNL     1      24.402   4.215  50.302  1.00  0.00     0.111 C 
HETATM   26  C20 UNL     1      23.787   5.479  50.820  1.00  0.00     0.216 C 
HETATM   27  O3  UNL     1      22.550   4.873  50.516  1.00  0.00    -0.302 OA
HETATM   28  N4  UNL     1      23.183   4.215  49.520  1.00  0.00    -0.195 NA
HETATM   29  C21 UNL     1      22.748   2.869  49.259  1.00  0.00     0.144 C 
ENDBRANCH  24  25
ENDBRANCH  23  24
ENDBRANCH  22  23
ENDBRANCH  21  22
ENDBRANCH  10  21
BRANCH   1  30
HETATM   30  O1  UNL     1      28.486   1.110  53.499  1.00  0.00    -0.353 OA
HETATM   31  C1  UNL     1      29.591   0.229  53.625  1.00  0.00     0.210 C 
ENDBRANCH   1  30
TORSDOF 8
ENDMDL
MODEL 8
REMARK VINA RESULT:      -7.4      4.111      6.918
REMARK  8 active torsions:
REMARK  status: ('A' for Active; 'I' for Inactive)
REMARK    1  A    between atoms: O1_2  and  C2_3 
REMARK    2  A    between atoms: C6_9  and  N3_10 
REMARK    3  A    between atoms: N3_10  and  C7_11 
REMARK    4  A    between atoms: C15_21  and  O2_22 
REMARK    5  A    between atoms: O2_22  and  C16_23 
REMARK    6  A    between atoms: C16_23  and  C17_24 
REMARK    7  A    between atoms: C17_24  and  C18_25 
REMARK    8  A    between atoms: C18_25  and  C19_26 
ROOT
HETATM    1  C2  UNL     1      22.147   2.859  52.275  1.00  0.00     0.103 A 
HETATM    2  C3  UNL     1      21.274   3.745  51.683  1.00  0.00     0.072 A 
HETATM    3  C4  UNL     1      21.723   4.979  51.269  1.00  0.00     0.075 A 
HETATM    4  N1  UNL     1      20.798   5.764  50.709  1.00  0.00    -0.241 NA
HETATM    5  C5  UNL     1      21.173   6.985  50.282  1.00  0.00     0.236 A 
HETATM    6  N2  UNL     1      22.442   7.379  50.427  1.00  0.00    -0.224 NA
HETATM    7  C6  UNL     1      23.421   6.660  50.973  1.00  0.00     0.142 A 
HETATM    8  C13 UNL     1      23.026   5.417  51.402  1.00  0.00     0.042 A 
HETATM    9  C14 UNL     1      23.851   4.489  52.000  1.00  0.00     0.057 A 
HETATM   10  C15 UNL     1      23.462   3.244  52.433  1.00  0.00     0.103 A 
ENDROOT
BRANCH   7  11
HETATM   11  N3  UNL     1      24.771   7.044  51.138  1.00  0.00    -0.340 N 
HETATM   12  H6  UNL     1      25.136   7.397  52.029  1.00  0.00     0.167 HD
BRANCH  11  13
HETATM   13  C7  UNL     1      25.796   7.017  50.162  1.00  0.00     0.035 A 
HETATM   14  C8  UNL     1      26.116   5.897  49.435  1.00  0.00     0.032 A 
HETATM   15  C9  UNL     1      27.111   5.828  48.486  1.00  0.00     0.046 A 
HETATM   16  C10 UNL     1      27.868   6.946  48.212  1.00  0.00     0.138 A 
HETATM   17  F1  UNL     1      28.867   6.989  47.301  1.00  0.00    -0.204 F 
HETATM   18  C11 UNL     1      27.593   8.098  48.909  1.00  0.00     0.074 A 
HETATM   19 CL1  UNL     1      28.509   9.560  48.620  1.00  0.00    -0.081 Cl
HETATM   20  C12 UNL     1      26.586   8.098  49.844  1.00  0.00     0.056 A 
ENDBRANCH  11  13
ENDBRANCH   7  11
BRANCH  10  21
HETATM   21  O2  UNL     1      24.333   2.345  53.030  1.00  0.00    -0.348 OA
BRANCH  21  22
HETATM   22  C16 UNL     1      25.175   1.576  52.223  1.00  0.00     0.176 C 
BRANCH  22  23
HETATM   23  C17 UNL     1      25.209   0.117  52.662  1.00  0.00     0.028 C 
BRANCH  23  24
HETATM   24  C18 UNL     1      26.597  -0.414  52.441  1.00  0.00     0.026 C 
BRANCH  24  25
HETATM   25  C19 UNL     1      27.552   0.127  53.457  1.00  0.00     0.111 C 
HETATM   26  C20 UNL     1      27.080   0.210  54.877  1.00  0.00     0.216 C 
HETATM   27  O3  UNL     1      28.345  -0.318  55.212  1.00  0.00    -0.302 OA
HETATM   28  N4  UNL     1      28.331  -0.956  54.022  1.00  0.00    -0.195 NA
HETATM   29  C21 UNL     1      29.592  -1.081  53.342  1.00  0.00     0.144 C 
ENDBRANCH  24  25
ENDBRANCH  23  24
ENDBRANCH  22  23
ENDBRANCH  21  22
ENDBRANCH  10  21
BRANCH   1  30
HETATM   30  O1  UNL     1      21.749   1.613  52.706  1.00  0.00    -0.353 OA
HETATM   31  C1  UNL     1      21.371   0.581  51.808  1.00  0.00     0.210 C 
ENDBRANCH   1  30
TORSDOF 8
ENDMDL
MODEL 9
REMARK VINA RESULT:      -7.3      3.399      6.783
REMARK  8 active torsions:
REMARK  status: ('A' for Active; 'I' for Inactive)
REMARK    1  A    between atoms: O1_2  and  C2_3 
REMARK    2  A    between atoms: C6_9  and  N3_10 
REMARK    3  A    between atoms: N3_10  and  C7_11 
REMARK    4  A    between atoms: C15_21  and  O2_22 
REMARK    5  A    between atoms: O2_22  and  C16_23 
REMARK    6  A    between atoms: C16_23  and  C17_24 
REMARK    7  A    between atoms: C17_24  and  C18_25 
REMARK    8  A    between atoms: C18_25  and  C19_26 
ROOT
HETATM    1  C2  UNL     1      24.977   4.890  49.837  1.00  0.00     0.103 A 
HETATM    2  C3  UNL     1      23.795   5.598  49.804  1.00  0.00     0.072 A 
HETATM    3  C4  UNL     1      22.592   4.930  49.864  1.00  0.00     0.075 A 
HETATM    4  N1  UNL     1      21.507   5.707  49.823  1.00  0.00    -0.241 NA
HETATM    5  C5  UNL     1      20.298   5.115  49.878  1.00  0.00     0.236 A 
HETATM    6  N2  UNL     1      20.212   3.784  49.970  1.00  0.00    -0.224 NA
HETATM    7  C6  UNL     1      21.243   2.942  50.016  1.00  0.00     0.142 A 
HETATM    8  C13 UNL     1      22.469   3.558  49.960  1.00  0.00     0.042 A 
HETATM    9  C14 UNL     1      23.682   2.906  49.990  1.00  0.00     0.057 A 
HETATM   10  C15 UNL     1      24.913   3.515  49.934  1.00  0.00     0.103 A 
ENDROOT
BRANCH   7  11
HETATM   11  N3  UNL     1      21.189   1.533  50.117  1.00  0.00    -0.340 N 
HETATM   12  H6  UNL     1      21.221   0.923  49.293  1.00  0.00     0.167 HD
BRANCH  11  13
HETATM   13  C7  UNL     1      21.081   0.761  51.298  1.00  0.00     0.035 A 
HETATM   14  C8  UNL     1      19.882   0.326  51.808  1.00  0.00     0.032 A 
HETATM   15  C9  UNL     1      19.735  -0.418  52.957  1.00  0.00     0.046 A 
HETATM   16  C10 UNL     1      20.849  -0.776  53.682  1.00  0.00     0.138 A 
HETATM   17  F1  UNL     1      20.820  -1.505  54.822  1.00  0.00    -0.204 F 
HETATM   18  C11 UNL     1      22.078  -0.369  53.220  1.00  0.00     0.074 A 
HETATM   19 CL1  UNL     1      23.542  -0.783  54.084  1.00  0.00    -0.081 Cl
HETATM   20  C12 UNL     1      22.155   0.372  52.065  1.00  0.00     0.056 A 
ENDBRANCH  11  13
ENDBRANCH   7  11
BRANCH  10  21
HETATM   21  O2  UNL     1      26.108   2.812  49.967  1.00  0.00    -0.348 OA
BRANCH  21  22
HETATM   22  C16 UNL     1      26.660   2.468  51.204  1.00  0.00     0.176 C 
BRANCH  22  23
HETATM   23  C17 UNL     1      25.890   1.336  51.875  1.00  0.00     0.028 C 
BRANCH  23  24
HETATM   24  C18 UNL     1      26.829   0.180  52.081  1.00  0.00     0.026 C 
BRANCH  24  25
HETATM   25  C19 UNL     1      27.668   0.376  53.302  1.00  0.00     0.111 C 
HETATM   26  C20 UNL     1      26.962   0.484  54.620  1.00  0.00     0.216 C 
HETATM   27  O3  UNL     1      27.963  -0.385  55.104  1.00  0.00    -0.302 OA
HETATM   28  N4  UNL     1      28.024  -0.913  53.862  1.00  0.00    -0.195 NA
HETATM   29  C21 UNL     1      29.323  -1.324  53.400  1.00  0.00     0.144 C 
ENDBRANCH  24  25
ENDBRANCH  23  24
ENDBRANCH  22  23
ENDBRANCH  21  22
ENDBRANCH  10  21
BRANCH   1  30
HETATM   30  O1  UNL     1      26.205   5.509  49.781  1.00  0.00    -0.353 OA
HETATM   31  C1  UNL     1      26.704   6.106  48.594  1.00  0.00     0.210 C 
ENDBRANCH   1  30
TORSDOF 8
ENDMDL
