MODEL 1
REMARK VINA RESULT:      -8.3      0.000      0.000
REMARK  4 active torsions:
REMARK  status: ('A' for Active; 'I' for Inactive)
REMARK    1  A    between atoms: C2_2  and  C3_4 
REMARK    2  A    between atoms: C7_9  and  N2_10 
REMARK    3  A    between atoms: N2_10  and  C8_11 
REMARK    4  A    between atoms: C8_11  and  C9_12 
ROOT
HETATM    1  C3  UNL     1      27.095  -0.538  53.382  1.00  0.00     0.044 C 
HETATM    2  C4  UNL     1      26.671   0.696  53.572  1.00  0.00    -0.020 C 
HETATM    3  C5  UNL     1      25.217   0.816  53.780  1.00  0.00     0.157 C 
HETATM    4  N1  UNL     1      24.643   1.823  52.872  1.00  0.00    -0.379 N 
HETATM    5  C6  UNL     1      25.221   2.384  51.700  1.00  0.00     0.131 A 
HETATM    6  C7  UNL     1      24.229   2.652  50.782  1.00  0.00     0.178 A 
HETATM    7  N3  UNL     1      24.645   3.195  49.631  1.00  0.00    -0.110 NA
HETATM    8  N4  UNL     1      25.917   3.449  49.405  1.00  0.00    -0.039 NA
HETATM    9  N5  UNL     1      26.902   3.209  50.256  1.00  0.00    -0.102 NA
HETATM   10  C15 UNL     1      26.566   2.658  51.448  1.00  0.00     0.219 A 
HETATM   11  O1  UNL     1      27.681   2.444  52.273  1.00  0.00    -0.310 OA
HETATM   12  C16 UNL     1      27.592   1.850  53.571  1.00  0.00     0.233 C 
HETATM   13 BR1  UNL     1      29.374   1.321  54.084  1.00  0.00    -0.056 Br
HETATM   14  H6  UNL     1      23.700   2.230  53.039  1.00  0.00     0.160 HD
ENDROOT
BRANCH   6  15
HETATM   15  N2  UNL     1      22.847   2.381  50.959  1.00  0.00    -0.367 N 
HETATM   16  H7  UNL     1      22.100   2.963  51.393  1.00  0.00     0.161 HD
BRANCH  15  17
HETATM   17  C8  UNL     1      22.222   1.135  50.528  1.00  0.00     0.160 C 
BRANCH  17  18
HETATM   18  C9  UNL     1      21.442   0.456  51.563  1.00  0.00    -0.041 A 
HETATM   19  C10 UNL     1      20.072   0.537  51.314  1.00  0.00     0.009 A 
HETATM   20  C11 UNL     1      19.120  -0.020  52.160  1.00  0.00     0.001 A 
HETATM   21  C12 UNL     1      19.505  -0.687  53.303  1.00  0.00     0.000 A 
HETATM   22  C13 UNL     1      20.862  -0.765  53.551  1.00  0.00     0.001 A 
HETATM   23  C14 UNL     1      21.790  -0.216  52.715  1.00  0.00     0.009 A 
ENDBRANCH  17  18
ENDBRANCH  15  17
ENDBRANCH   6  15
BRANCH   1  24
HETATM   24  C2  UNL     1      28.239  -1.396  53.136  1.00  0.00     0.051 C 
HETATM   25  C1  UNL     1      28.675  -2.630  53.122  1.00  0.00     0.337 C 
HETATM   26  F1  UNL     1      29.532  -1.321  52.765  1.00  0.00    -0.427 F 
ENDBRANCH   1  24
TORSDOF 4
ENDMDL
MODEL 2
REMARK VINA RESULT:      -8.2      3.155      4.992
REMARK  4 active torsions:
REMARK  status: ('A' for Active; 'I' for Inactive)
REMARK    1  A    between atoms: C2_2  and  C3_4 
REMARK    2  A    between atoms: C7_9  and  N2_10 
REMARK    3  A    between atoms: N2_10  and  C8_11 
REMARK    4  A    between atoms: C8_11  and  C9_12 
ROOT
HETATM    1  C3  UNL     1      23.876   4.412  51.011  1.00  0.00     0.044 C 
HETATM    2  C4  UNL     1      24.517   3.364  50.533  1.00  0.00    -0.020 C 
HETATM    3  C5  UNL     1      23.803   2.085  50.697  1.00  0.00     0.157 C 
HETATM    4  N1  UNL     1      24.676   1.079  51.325  1.00  0.00    -0.379 N 
HETATM    5  C6  UNL     1      25.891   1.286  52.034  1.00  0.00     0.131 A 
HETATM    6  C7  UNL     1      26.005   0.348  53.036  1.00  0.00     0.178 A 
HETATM    7  N3  UNL     1      27.118   0.430  53.775  1.00  0.00    -0.110 NA
HETATM    8  N4  UNL     1      28.033   1.349  53.549  1.00  0.00    -0.039 NA
HETATM    9  N5  UNL     1      27.966   2.269  52.600  1.00  0.00    -0.102 NA
HETATM   10  C15 UNL     1      26.869   2.256  51.804  1.00  0.00     0.219 A 
HETATM   11  O1  UNL     1      26.897   3.269  50.835  1.00  0.00    -0.310 OA
HETATM   12  C16 UNL     1      25.842   3.481  49.892  1.00  0.00     0.233 C 
HETATM   13 BR1  UNL     1      26.095   5.235  49.130  1.00  0.00    -0.056 Br
HETATM   14  H6  UNL     1      24.447   0.064  51.290  1.00  0.00     0.160 HD
ENDROOT
BRANCH   6  15
HETATM   15  N2  UNL     1      25.045  -0.652  53.342  1.00  0.00    -0.367 N 
HETATM   16  H7  UNL     1      24.790  -1.518  52.822  1.00  0.00     0.161 HD
BRANCH  15  17
HETATM   17  C8  UNL     1      24.195  -0.599  54.526  1.00  0.00     0.160 C 
BRANCH  17  18
HETATM   18  C9  UNL     1      22.761  -0.704  54.252  1.00  0.00    -0.041 A 
HETATM   19  C10 UNL     1      22.253   0.470  53.698  1.00  0.00     0.009 A 
HETATM   20  C11 UNL     1      20.914   0.624  53.360  1.00  0.00     0.001 A 
HETATM   21  C12 UNL     1      20.018  -0.403  53.567  1.00  0.00     0.000 A 
HETATM   22  C13 UNL     1      20.521  -1.565  54.118  1.00  0.00     0.001 A 
HETATM   23  C14 UNL     1      21.837  -1.709  54.446  1.00  0.00     0.009 A 
ENDBRANCH  17  18
ENDBRANCH  15  17
ENDBRANCH   6  15
BRANCH   1  24
HETATM   24  C2  UNL     1      23.896   5.848  51.217  1.00  0.00     0.051 C 
HETATM   25  C1  UNL     1      23.290   6.980  50.963  1.00  0.00     0.337 C 
HETATM   26  F1  UNL     1      24.625   6.798  51.835  1.00  0.00    -0.427 F 
ENDBRANCH   1  24
TORSDOF 4
ENDMDL
MODEL 3
REMARK VINA RESULT:      -8.1      7.920      9.531
REMARK  4 active torsions:
REMARK  status: ('A' for Active; 'I' for Inactive)
REMARK    1  A    between atoms: C2_2  and  C3_4 
REMARK    2  A    between atoms: C7_9  and  N2_10 
REMARK    3  A    between atoms: N2_10  and  C8_11 
REMARK    4  A    between atoms: C8_11  and  C9_12 
ROOT
HETATM    1  C3  UNL     1      31.930   4.639  48.068  1.00  0.00     0.044 C 
HETATM    2  C4  UNL     1      32.424   5.579  48.850  1.00  0.00    -0.020 C 
HETATM    3  C5  UNL     1      31.541   5.974  49.962  1.00  0.00     0.157 C 
HETATM    4  N1  UNL     1      31.368   7.437  49.995  1.00  0.00    -0.379 N 
HETATM    5  C6  UNL     1      31.649   8.380  48.969  1.00  0.00     0.131 A 
HETATM    6  C7  UNL     1      30.743   9.416  49.035  1.00  0.00     0.178 A 
HETATM    7  N3  UNL     1      30.907  10.381  48.123  1.00  0.00    -0.110 NA
HETATM    8  N4  UNL     1      31.872  10.332  47.228  1.00  0.00    -0.039 NA
HETATM    9  N5  UNL     1      32.764   9.359  47.127  1.00  0.00    -0.102 NA
HETATM   10  C15 UNL     1      32.668   8.339  48.016  1.00  0.00     0.219 A 
HETATM   11  O1  UNL     1      33.657   7.364  47.821  1.00  0.00    -0.310 OA
HETATM   12  C16 UNL     1      33.753   6.177  48.614  1.00  0.00     0.233 C 
HETATM   13 BR1  UNL     1      34.912   4.952  47.677  1.00  0.00    -0.056 Br
HETATM   14  H6  UNL     1      30.999   7.921  50.839  1.00  0.00     0.160 HD
ENDROOT
BRANCH   6  15
HETATM   15  N2  UNL     1      29.670   9.513  49.960  1.00  0.00    -0.367 N 
HETATM   16  H7  UNL     1      29.684   9.560  51.000  1.00  0.00     0.161 HD
BRANCH  15  17
HETATM   17  C8  UNL     1      28.271   9.557  49.549  1.00  0.00     0.160 C 
BRANCH  17  18
HETATM   18  C9  UNL     1      27.672   8.248  49.288  1.00  0.00    -0.041 A 
HETATM   19  C10 UNL     1      26.505   8.056  50.028  1.00  0.00     0.009 A 
HETATM   20  C11 UNL     1      25.758   6.886  49.964  1.00  0.00     0.001 A 
HETATM   21  C12 UNL     1      26.154   5.848  49.148  1.00  0.00     0.000 A 
HETATM   22  C13 UNL     1      27.310   6.037  48.416  1.00  0.00     0.001 A 
HETATM   23  C14 UNL     1      28.038   7.189  48.484  1.00  0.00     0.009 A 
ENDBRANCH  17  18
ENDBRANCH  15  17
ENDBRANCH   6  15
BRANCH   1  24
HETATM   24  C2  UNL     1      32.146   3.803  46.902  1.00  0.00     0.051 C 
HETATM   25  C1  UNL     1      32.240   2.575  46.462  1.00  0.00     0.337 C 
HETATM   26  F1  UNL     1      32.374   3.908  45.579  1.00  0.00    -0.427 F 
ENDBRANCH   1  24
TORSDOF 4
ENDMDL
MODEL 4
REMARK VINA RESULT:      -8.1      3.755      7.032
REMARK  4 active torsions:
REMARK  status: ('A' for Active; 'I' for Inactive)
REMARK    1  A    between atoms: C2_2  and  C3_4 
REMARK    2  A    between atoms: C7_9  and  N2_10 
REMARK    3  A    between atoms: N2_10  and  C8_11 
REMARK    4  A    between atoms: C8_11  and  C9_12 
ROOT
HETATM    1  C3  UNL     1      23.655   3.114  49.684  1.00  0.00     0.044 C 
HETATM    2  C4  UNL     1      23.621   3.248  50.995  1.00  0.00    -0.020 C 
HETATM    3  C5  UNL     1      24.878   2.893  51.678  1.00  0.00     0.157 C 
HETATM    4  N1  UNL     1      24.625   1.938  52.770  1.00  0.00    -0.379 N 
HETATM    5  C6  UNL     1      23.470   1.139  52.992  1.00  0.00     0.131 A 
HETATM    6  C7  UNL     1      23.843  -0.058  53.564  1.00  0.00     0.178 A 
HETATM    7  N3  UNL     1      22.840  -0.901  53.833  1.00  0.00    -0.110 NA
HETATM    8  N4  UNL     1      21.587  -0.597  53.565  1.00  0.00    -0.039 NA
HETATM    9  N5  UNL     1      21.183   0.539  53.017  1.00  0.00    -0.102 NA
HETATM   10  C15 UNL     1      22.139   1.451  52.712  1.00  0.00     0.219 A 
HETATM   11  O1  UNL     1      21.606   2.614  52.137  1.00  0.00    -0.310 OA
HETATM   12  C16 UNL     1      22.412   3.714  51.704  1.00  0.00     0.233 C 
HETATM   13 BR1  UNL     1      21.316   4.816  50.563  1.00  0.00    -0.056 Br
HETATM   14  H6  UNL     1      25.330   1.770  53.518  1.00  0.00     0.160 HD
ENDROOT
BRANCH   6  15
HETATM   15  N2  UNL     1      25.174  -0.452  53.856  1.00  0.00    -0.367 N 
HETATM   16  H7  UNL     1      25.729  -0.344  54.732  1.00  0.00     0.161 HD
BRANCH  15  17
HETATM   17  C8  UNL     1      26.037  -1.114  52.884  1.00  0.00     0.160 C 
BRANCH  17  18
HETATM   18  C9  UNL     1      27.470  -0.948  53.128  1.00  0.00    -0.041 A 
HETATM   19  C10 UNL     1      27.800   0.383  53.383  1.00  0.00     0.009 A 
HETATM   20  C11 UNL     1      29.102   0.801  53.633  1.00  0.00     0.001 A 
HETATM   21  C12 UNL     1      30.138  -0.107  53.637  1.00  0.00     0.000 A 
HETATM   22  C13 UNL     1      29.812  -1.425  53.383  1.00  0.00     0.001 A 
HETATM   23  C14 UNL     1      28.532  -1.827  53.138  1.00  0.00     0.009 A 
ENDBRANCH  17  18
ENDBRANCH  15  17
ENDBRANCH   6  15
BRANCH   1  24
HETATM   24  C2  UNL     1      22.921   3.243  48.438  1.00  0.00     0.051 C 
HETATM   25  C1  UNL     1      22.168   2.625  47.565  1.00  0.00     0.337 C 
HETATM   26  F1  UNL     1      22.638   4.158  47.491  1.00  0.00    -0.427 F 
ENDBRANCH   1  24
TORSDOF 4
ENDMDL
MODEL 5
REMARK VINA RESULT:      -7.8      3.891      6.636
REMARK  4 active torsions:
REMARK  status: ('A' for Active; 'I' for Inactive)
REMARK    1  A    between atoms: C2_2  and  C3_4 
REMARK    2  A    between atoms: C7_9  and  N2_10 
REMARK    3  A    between atoms: N2_10  and  C8_11 
REMARK    4  A    between atoms: C8_11  and  C9_12 
ROOT
HETATM    1  C3  UNL     1      24.110   4.755  49.294  1.00  0.00     0.044 C 
HETATM    2  C4  UNL     1      24.211   4.612  50.602  1.00  0.00    -0.020 C 
HETATM    3  C5  UNL     1      25.001   3.443  51.028  1.00  0.00     0.157 C 
HETATM    4  N1  UNL     1      24.250   2.635  52.003  1.00  0.00    -0.379 N 
HETATM    5  C6  UNL     1      22.856   2.666  52.285  1.00  0.00     0.131 A 
HETATM    6  C7  UNL     1      22.427   1.400  52.621  1.00  0.00     0.178 A 
HETATM    7  N3  UNL     1      21.127   1.296  52.921  1.00  0.00    -0.110 NA
HETATM    8  N4  UNL     1      20.324   2.340  52.891  1.00  0.00    -0.039 NA
HETATM    9  N5  UNL     1      20.691   3.571  52.575  1.00  0.00    -0.102 NA
HETATM   10  C15 UNL     1      21.995   3.764  52.258  1.00  0.00     0.219 A 
HETATM   11  O1  UNL     1      22.277   5.100  51.938  1.00  0.00    -0.310 OA
HETATM   12  C16 UNL     1      23.575   5.554  51.544  1.00  0.00     0.233 C 
HETATM   13 BR1  UNL     1      23.359   7.297  50.749  1.00  0.00    -0.056 Br
HETATM   14  H6  UNL     1      24.724   1.930  52.603  1.00  0.00     0.160 HD
ENDROOT
BRANCH   6  15
HETATM   15  N2  UNL     1      23.238   0.236  52.650  1.00  0.00    -0.367 N 
HETATM   16  H7  UNL     1      23.537  -0.392  51.874  1.00  0.00     0.161 HD
BRANCH  15  17
HETATM   17  C8  UNL     1      23.813  -0.301  53.879  1.00  0.00     0.160 C 
BRANCH  17  18
HETATM   18  C9  UNL     1      25.273  -0.247  53.942  1.00  0.00    -0.041 A 
HETATM   19  C10 UNL     1      25.863  -0.899  52.859  1.00  0.00     0.009 A 
HETATM   20  C11 UNL     1      27.240  -0.997  52.700  1.00  0.00     0.001 A 
HETATM   21  C12 UNL     1      28.093  -0.440  53.628  1.00  0.00     0.000 A 
HETATM   22  C13 UNL     1      27.509   0.204  54.701  1.00  0.00     0.001 A 
HETATM   23  C14 UNL     1      26.156   0.296  54.852  1.00  0.00     0.009 A 
ENDBRANCH  17  18
ENDBRANCH  15  17
ENDBRANCH   6  15
BRANCH   1  24
HETATM   24  C2  UNL     1      23.571   5.549  48.206  1.00  0.00     0.051 C 
HETATM   25  C1  UNL     1      22.553   5.722  47.402  1.00  0.00     0.337 C 
HETATM   26  F1  UNL     1      23.899   6.596  47.424  1.00  0.00    -0.427 F 
ENDBRANCH   1  24
TORSDOF 4
ENDMDL
MODEL 6
REMARK VINA RESULT:      -7.4      4.330      7.396
REMARK  4 active torsions:
REMARK  status: ('A' for Active; 'I' for Inactive)
REMARK    1  A    between atoms: C2_2  and  C3_4 
REMARK    2  A    between atoms: C7_9  and  N2_10 
REMARK    3  A    between atoms: N2_10  and  C8_11 
REMARK    4  A    between atoms: C8_11  and  C9_12 
ROOT
HETATM    1  C3  UNL     1      23.241   5.289  48.765  1.00  0.00     0.044 C 
HETATM    2  C4  UNL     1      23.201   5.438  50.075  1.00  0.00    -0.020 C 
HETATM    3  C5  UNL     1      24.524   5.501  50.722  1.00  0.00     0.157 C 
HETATM    4  N1  UNL     1      24.603   4.541  51.837  1.00  0.00    -0.379 N 
HETATM    5  C6  UNL     1      23.754   3.433  52.108  1.00  0.00     0.131 A 
HETATM    6  C7  UNL     1      24.490   2.421  52.686  1.00  0.00     0.178 A 
HETATM    7  N3  UNL     1      23.800   1.319  53.000  1.00  0.00    -0.110 NA
HETATM    8  N4  UNL     1      22.507   1.220  52.767  1.00  0.00    -0.039 NA
HETATM    9  N5  UNL     1      21.762   2.164  52.214  1.00  0.00    -0.102 NA
HETATM   10  C15 UNL     1      22.385   3.316  51.866  1.00  0.00     0.219 A 
HETATM   11  O1  UNL     1      21.507   4.247  51.290  1.00  0.00    -0.310 OA
HETATM   12  C16 UNL     1      21.927   5.529  50.815  1.00  0.00     0.233 C 
HETATM   13 BR1  UNL     1      20.517   6.216  49.692  1.00  0.00    -0.056 Br
HETATM   14  H6  UNL     1      25.344   4.614  52.564  1.00  0.00     0.160 HD
ENDROOT
BRANCH   6  15
HETATM   15  N2  UNL     1      25.885   2.460  52.942  1.00  0.00    -0.367 N 
HETATM   16  H7  UNL     1      26.658   2.875  52.382  1.00  0.00     0.161 HD
BRANCH  15  17
HETATM   17  C8  UNL     1      26.491   1.862  54.127  1.00  0.00     0.160 C 
BRANCH  17  18
HETATM   18  C9  UNL     1      27.541   0.883  53.846  1.00  0.00    -0.041 A 
HETATM   19  C10 UNL     1      27.014  -0.329  53.402  1.00  0.00     0.009 A 
HETATM   20  C11 UNL     1      27.809  -1.422  53.081  1.00  0.00     0.001 A 
HETATM   21  C12 UNL     1      29.180  -1.347  53.194  1.00  0.00     0.000 A 
HETATM   22  C13 UNL     1      29.703  -0.147  53.635  1.00  0.00     0.001 A 
HETATM   23  C14 UNL     1      28.916   0.923  53.948  1.00  0.00     0.009 A 
ENDBRANCH  17  18
ENDBRANCH  15  17
ENDBRANCH   6  15
BRANCH   1  24
HETATM   24  C2  UNL     1      22.472   5.157  47.542  1.00  0.00     0.051 C 
HETATM   25  C1  UNL     1      22.167   5.714  46.398  1.00  0.00     0.337 C 
HETATM   26  F1  UNL     1      21.619   4.306  46.940  1.00  0.00    -0.427 F 
ENDBRANCH   1  24
TORSDOF 4
ENDMDL
MODEL 7
REMARK VINA RESULT:      -7.3      4.979      8.058
REMARK  4 active torsions:
REMARK  status: ('A' for Active; 'I' for Inactive)
REMARK    1  A    between atoms: C2_2  and  C3_4 
REMARK    2  A    between atoms: C7_9  and  N2_10 
REMARK    3  A    between atoms: N2_10  and  C8_11 
REMARK    4  A    between atoms: C8_11  and  C9_12 
ROOT
HETATM    1  C3  UNL     1      24.115   2.069  51.429  1.00  0.00     0.044 C 
HETATM    2  C4  UNL     1      24.236   2.825  50.356  1.00  0.00    -0.020 C 
HETATM    3  C5  UNL     1      25.556   3.464  50.206  1.00  0.00     0.157 C 
HETATM    4  N1  UNL     1      25.411   4.913  49.986  1.00  0.00    -0.379 N 
HETATM    5  C6  UNL     1      24.272   5.730  50.225  1.00  0.00     0.131 A 
HETATM    6  C7  UNL     1      24.682   6.986  50.618  1.00  0.00     0.178 A 
HETATM    7  N3  UNL     1      23.698   7.858  50.866  1.00  0.00    -0.110 NA
HETATM    8  N4  UNL     1      22.430   7.527  50.739  1.00  0.00    -0.039 NA
HETATM    9  N5  UNL     1      21.991   6.336  50.366  1.00  0.00    -0.102 NA
HETATM   10  C15 UNL     1      22.924   5.391  50.095  1.00  0.00     0.219 A 
HETATM   11  O1  UNL     1      22.354   4.168  49.709  1.00  0.00    -0.310 OA
HETATM   12  C16 UNL     1      23.129   3.007  49.396  1.00  0.00     0.233 C 
HETATM   13 BR1  UNL     1      21.932   1.495  49.417  1.00  0.00    -0.056 Br
HETATM   14  H6  UNL     1      26.193   5.485  49.609  1.00  0.00     0.160 HD
ENDROOT
BRANCH   6  15
HETATM   15  N2  UNL     1      26.029   7.395  50.793  1.00  0.00    -0.367 N 
HETATM   16  H7  UNL     1      26.755   7.048  51.456  1.00  0.00     0.161 HD
BRANCH  15  17
HETATM   17  C8  UNL     1      26.643   8.461  50.008  1.00  0.00     0.160 C 
BRANCH  17  18
HETATM   18  C9  UNL     1      27.714   8.020  49.115  1.00  0.00    -0.041 A 
HETATM   19  C10 UNL     1      28.809   8.883  49.155  1.00  0.00     0.009 A 
HETATM   20  C11 UNL     1      29.949   8.687  48.386  1.00  0.00     0.001 A 
HETATM   21  C12 UNL     1      30.042   7.607  47.535  1.00  0.00     0.000 A 
HETATM   22  C13 UNL     1      28.957   6.753  47.494  1.00  0.00     0.001 A 
HETATM   23  C14 UNL     1      27.841   6.952  48.253  1.00  0.00     0.009 A 
ENDBRANCH  17  18
ENDBRANCH  15  17
ENDBRANCH   6  15
BRANCH   1  24
HETATM   24  C2  UNL     1      23.245   1.203  52.203  1.00  0.00     0.051 C 
HETATM   25  C1  UNL     1      22.286   1.158  53.092  1.00  0.00     0.337 C 
HETATM   26  F1  UNL     1      22.984  -0.105  52.391  1.00  0.00    -0.427 F 
ENDBRANCH   1  24
TORSDOF 4
ENDMDL
MODEL 8
REMARK VINA RESULT:      -7.3      7.320     10.594
REMARK  4 active torsions:
REMARK  status: ('A' for Active; 'I' for Inactive)
REMARK    1  A    between atoms: C2_2  and  C3_4 
REMARK    2  A    between atoms: C7_9  and  N2_10 
REMARK    3  A    between atoms: N2_10  and  C8_11 
REMARK    4  A    between atoms: C8_11  and  C9_12 
ROOT
HETATM    1  C3  UNL     1      25.924   6.463  49.665  1.00  0.00     0.044 C 
HETATM    2  C4  UNL     1      26.723   6.569  48.622  1.00  0.00    -0.020 C 
HETATM    3  C5  UNL     1      27.781   5.544  48.557  1.00  0.00     0.157 C 
HETATM    4  N1  UNL     1      29.101   6.170  48.373  1.00  0.00    -0.379 N 
HETATM    5  C6  UNL     1      29.469   7.528  48.580  1.00  0.00     0.131 A 
HETATM    6  C7  UNL     1      30.770   7.589  49.030  1.00  0.00     0.178 A 
HETATM    7  N3  UNL     1      31.242   8.820  49.255  1.00  0.00    -0.110 NA
HETATM    8  N4  UNL     1      30.503   9.893  49.056  1.00  0.00    -0.039 NA
HETATM    9  N5  UNL     1      29.252   9.882  48.626  1.00  0.00    -0.102 NA
HETATM   10  C15 UNL     1      28.696   8.672  48.373  1.00  0.00     0.219 A 
HETATM   11  O1  UNL     1      27.371   8.773  47.923  1.00  0.00    -0.310 OA
HETATM   12  C16 UNL     1      26.559   7.637  47.615  1.00  0.00     0.233 C 
HETATM   13 BR1  UNL     1      24.730   8.241  47.531  1.00  0.00    -0.056 Br
HETATM   14  H6  UNL     1      29.923   5.619  48.052  1.00  0.00     0.160 HD
ENDROOT
BRANCH   6  15
HETATM   15  N2  UNL     1      31.606   6.471  49.284  1.00  0.00    -0.367 N 
HETATM   16  H7  UNL     1      31.400   5.577  49.778  1.00  0.00     0.161 HD
BRANCH  15  17
HETATM   17  C8  UNL     1      33.002   6.413  48.861  1.00  0.00     0.160 C 
BRANCH  17  18
HETATM   18  C9  UNL     1      33.385   5.167  48.197  1.00  0.00    -0.041 A 
HETATM   19  C10 UNL     1      32.281   4.505  47.661  1.00  0.00     0.009 A 
HETATM   20  C11 UNL     1      32.383   3.292  46.991  1.00  0.00     0.001 A 
HETATM   21  C12 UNL     1      33.609   2.685  46.828  1.00  0.00     0.000 A 
HETATM   22  C13 UNL     1      34.704   3.339  47.360  1.00  0.00     0.001 A 
HETATM   23  C14 UNL     1      34.595   4.530  48.016  1.00  0.00     0.009 A 
ENDBRANCH  17  18
ENDBRANCH  15  17
ENDBRANCH   6  15
BRANCH   1  24
HETATM   24  C2  UNL     1      24.779   7.010  50.369  1.00  0.00     0.051 C 
HETATM   25  C1  UNL     1      23.597   6.750  50.867  1.00  0.00     0.337 C 
HETATM   26  F1  UNL     1      24.345   8.170  50.900  1.00  0.00    -0.427 F 
ENDBRANCH   1  24
TORSDOF 4
ENDMDL
MODEL 9
REMARK VINA RESULT:      -7.3      2.776      3.800
REMARK  4 active torsions:
REMARK  status: ('A' for Active; 'I' for Inactive)
REMARK    1  A    between atoms: C2_2  and  C3_4 
REMARK    2  A    between atoms: C7_9  and  N2_10 
REMARK    3  A    between atoms: N2_10  and  C8_11 
REMARK    4  A    between atoms: C8_11  and  C9_12 
ROOT
HETATM    1  C3  UNL     1      25.156   2.350  52.156  1.00  0.00     0.044 C 
HETATM    2  C4  UNL     1      24.397   3.239  51.544  1.00  0.00    -0.020 C 
HETATM    3  C5  UNL     1      23.219   3.671  52.317  1.00  0.00     0.157 C 
HETATM    4  N1  UNL     1      21.993   3.548  51.509  1.00  0.00    -0.379 N 
HETATM    5  C6  UNL     1      21.798   2.807  50.311  1.00  0.00     0.131 A 
HETATM    6  C7  UNL     1      20.507   2.328  50.271  1.00  0.00     0.178 A 
HETATM    7  N3  UNL     1      20.192   1.618  49.182  1.00  0.00    -0.110 NA
HETATM    8  N4  UNL     1      21.066   1.399  48.221  1.00  0.00    -0.039 NA
HETATM    9  N5  UNL     1      22.315   1.839  48.216  1.00  0.00    -0.102 NA
HETATM   10  C15 UNL     1      22.716   2.569  49.286  1.00  0.00     0.219 A 
HETATM   11  O1  UNL     1      24.052   2.984  49.181  1.00  0.00    -0.310 OA
HETATM   12  C16 UNL     1      24.717   3.744  50.194  1.00  0.00     0.233 C 
HETATM   13 BR1  UNL     1      26.610   3.641  49.841  1.00  0.00    -0.056 Br
HETATM   14  H6  UNL     1      21.114   4.034  51.780  1.00  0.00     0.160 HD
ENDROOT
BRANCH   6  15
HETATM   15  N2  UNL     1      19.529   2.512  51.283  1.00  0.00    -0.367 N 
HETATM   16  H7  UNL     1      19.139   3.389  51.687  1.00  0.00     0.161 HD
BRANCH  15  17
HETATM   17  C8  UNL     1      18.882   1.400  51.971  1.00  0.00     0.160 C 
BRANCH  17  18
HETATM   18  C9  UNL     1      19.770   0.610  52.824  1.00  0.00    -0.041 A 
HETATM   19  C10 UNL     1      19.271  -0.673  53.043  1.00  0.00     0.009 A 
HETATM   20  C11 UNL     1      19.927  -1.611  53.832  1.00  0.00     0.001 A 
HETATM   21  C12 UNL     1      21.124  -1.298  54.440  1.00  0.00     0.000 A 
HETATM   22  C13 UNL     1      21.618  -0.027  54.224  1.00  0.00     0.001 A 
HETATM   23  C14 UNL     1      20.968   0.888  53.448  1.00  0.00     0.009 A 
ENDBRANCH  17  18
ENDBRANCH  15  17
ENDBRANCH   6  15
BRANCH   1  24
HETATM   24  C2  UNL     1      26.347   1.524  52.081  1.00  0.00     0.051 C 
HETATM   25  C1  UNL     1      26.810   0.324  51.846  1.00  0.00     0.337 C 
HETATM   26  F1  UNL     1      27.682   1.614  52.235  1.00  0.00    -0.427 F 
ENDBRANCH   1  24
TORSDOF 4
ENDMDL
