MODEL 1
REMARK VINA RESULT:      -7.8      0.000      0.000
REMARK  3 active torsions:
REMARK  status: ('A' for Active; 'I' for Inactive)
REMARK    1  A    between atoms: N1_2  and  C2_3 
REMARK    2  A    between atoms: C2_3  and  N2_4 
REMARK    3  A    between atoms: C10_13  and  O1_14 
ROOT
HETATM    1  N2  UNL     1      23.503   6.261  50.315  1.00  0.00     0.144 N 
HETATM    2  C3  UNL     1      23.897   5.617  49.068  1.00  0.00     0.314 C 
HETATM    3  C4  UNL     1      24.002   4.138  49.276  1.00  0.00    -0.032 C 
HETATM    4  C5  UNL     1      22.944   3.356  49.325  1.00  0.00    -0.002 C 
HETATM    5  C6  UNL     1      22.470   2.256  48.504  1.00  0.00     0.123 C 
HETATM    6  N3  UNL     1      21.376   1.660  48.989  1.00  0.00    -0.295 NA
HETATM    7  C7  UNL     1      20.593   2.554  49.942  1.00  0.00     0.206 C 
HETATM    8  C8  UNL     1      21.709   3.249  50.633  1.00  0.00     0.041 C 
HETATM    9  C9  UNL     1      22.657   4.091  50.556  1.00  0.00     0.036 C 
HETATM   10  C10 UNL     1      23.127   5.201  51.296  1.00  0.00     0.396 C 
HETATM   11  N4  UNL     1      21.936   2.812  51.942  1.00  0.00    -0.357 N 
HETATM   12  C11 UNL     1      22.984   1.900  52.228  1.00  0.00     0.048 A 
HETATM   13  C12 UNL     1      22.509   0.928  53.082  1.00  0.00     0.033 A 
HETATM   14  C13 UNL     1      23.286  -0.111  53.558  1.00  0.00     0.046 A 
HETATM   15  C14 UNL     1      24.618  -0.248  53.205  1.00  0.00     0.139 A 
HETATM   16  F1  UNL     1      25.466  -1.217  53.609  1.00  0.00    -0.204 F 
HETATM   17  C15 UNL     1      25.043   0.771  52.336  1.00  0.00     0.088 A 
HETATM   18 CL1  UNL     1      26.755   0.684  51.856  1.00  0.00    -0.080 Cl
HETATM   19  C16 UNL     1      24.285   1.817  51.846  1.00  0.00     0.061 A 
HETATM   20  C17 UNL     1      25.031   2.687  50.956  1.00  0.00     0.167 C 
HETATM   21  O2  UNL     1      25.934   3.231  51.691  1.00  0.00    -0.292 OA
HETATM   22  C18 UNL     1      25.050   3.109  49.510  1.00  0.00     0.120 C 
HETATM   23  H12 UNL     1      21.263   3.226  52.613  1.00  0.00     0.166 HD
ENDROOT
BRANCH   1  24
HETATM   24  C2  UNL     1      24.704   6.855  50.869  1.00  0.00     0.423 C 
BRANCH  24  25
HETATM   25  N1  UNL     1      25.704   7.104  49.893  1.00  0.00    -0.283 NA
HETATM   26  C1  UNL     1      26.430   8.167  49.977  1.00  0.00     0.144 C 
ENDBRANCH  24  25
ENDBRANCH   1  24
BRANCH  10  27
HETATM   27  O1  UNL     1      22.022   5.789  51.978  1.00  0.00    -0.364 OA
HETATM   28  H11 UNL     1      21.189   5.290  51.800  1.00  0.00     0.212 HD
ENDBRANCH  10  27
TORSDOF 3
ENDMDL
MODEL 2
REMARK VINA RESULT:      -7.3      8.477     10.588
REMARK  3 active torsions:
REMARK  status: ('A' for Active; 'I' for Inactive)
REMARK    1  A    between atoms: N1_2  and  C2_3 
REMARK    2  A    between atoms: C2_3  and  N2_4 
REMARK    3  A    between atoms: C10_13  and  O1_14 
ROOT
HETATM    1  N2  UNL     1      28.522   9.428  49.659  1.00  0.00     0.144 N 
HETATM    2  C3  UNL     1      27.901   8.301  48.974  1.00  0.00     0.314 C 
HETATM    3  C4  UNL     1      28.857   7.734  47.970  1.00  0.00    -0.032 C 
HETATM    4  C5  UNL     1      29.858   6.952  48.313  1.00  0.00    -0.002 C 
HETATM    5  C6  UNL     1      30.201   5.572  48.018  1.00  0.00     0.123 C 
HETATM    6  N3  UNL     1      31.394   5.204  48.497  1.00  0.00    -0.295 NA
HETATM    7  C7  UNL     1      31.863   6.085  49.647  1.00  0.00     0.206 C 
HETATM    8  C8  UNL     1      31.366   7.407  49.191  1.00  0.00     0.041 C 
HETATM    9  C9  UNL     1      30.362   8.156  48.971  1.00  0.00     0.036 C 
HETATM   10  C10 UNL     1      29.963   9.478  49.278  1.00  0.00     0.396 C 
HETATM   11  N4  UNL     1      32.363   8.265  48.717  1.00  0.00    -0.357 N 
HETATM   12  C11 UNL     1      32.581   8.421  47.325  1.00  0.00     0.048 A 
HETATM   13  C12 UNL     1      33.937   8.381  47.078  1.00  0.00     0.033 A 
HETATM   14  C13 UNL     1      34.483   8.509  45.815  1.00  0.00     0.046 A 
HETATM   15  C14 UNL     1      33.693   8.692  44.693  1.00  0.00     0.139 A 
HETATM   16  F1  UNL     1      34.119   8.829  43.419  1.00  0.00    -0.204 F 
HETATM   17  C15 UNL     1      32.324   8.725  45.008  1.00  0.00     0.088 A 
HETATM   18 CL1  UNL     1      31.240   8.986  43.620  1.00  0.00    -0.080 Cl
HETATM   19  C16 UNL     1      31.755   8.597  46.260  1.00  0.00     0.061 A 
HETATM   20  C17 UNL     1      30.306   8.664  46.231  1.00  0.00     0.167 C 
HETATM   21  O2  UNL     1      30.028   9.857  45.847  1.00  0.00    -0.292 OA
HETATM   22  C18 UNL     1      29.110   7.790  46.505  1.00  0.00     0.120 C 
HETATM   23  H12 UNL     1      32.879   8.726  49.490  1.00  0.00     0.166 HD
ENDROOT
BRANCH   1  24
HETATM   24  C2  UNL     1      27.953  10.628  49.075  1.00  0.00     0.423 C 
BRANCH  24  25
HETATM   25  N1  UNL     1      28.910  11.654  48.866  1.00  0.00    -0.283 NA
HETATM   26  C1  UNL     1      28.537  12.889  48.869  1.00  0.00     0.144 C 
ENDBRANCH  24  25
ENDBRANCH   1  24
BRANCH  10  27
HETATM   27  O1  UNL     1      30.592   9.869  50.496  1.00  0.00    -0.364 OA
HETATM   28  H11 UNL     1      31.273  10.565  50.336  1.00  0.00     0.212 HD
ENDBRANCH  10  27
TORSDOF 3
ENDMDL
MODEL 3
REMARK VINA RESULT:      -7.2      8.127     11.428
REMARK  3 active torsions:
REMARK  status: ('A' for Active; 'I' for Inactive)
REMARK    1  A    between atoms: N1_2  and  C2_3 
REMARK    2  A    between atoms: C2_3  and  N2_4 
REMARK    3  A    between atoms: C10_13  and  O1_14 
ROOT
HETATM    1  N2  UNL     1      30.273   8.636  48.101  1.00  0.00     0.144 N 
HETATM    2  C3  UNL     1      31.333   8.848  49.079  1.00  0.00     0.314 C 
HETATM    3  C4  UNL     1      32.571   8.127  48.645  1.00  0.00    -0.032 C 
HETATM    4  C5  UNL     1      33.367   8.594  47.707  1.00  0.00    -0.002 C 
HETATM    5  C6  UNL     1      34.752   9.031  47.691  1.00  0.00     0.123 C 
HETATM    6  N3  UNL     1      35.203   9.336  46.470  1.00  0.00    -0.295 NA
HETATM    7  C7  UNL     1      34.080   9.668  45.496  1.00  0.00     0.206 C 
HETATM    8  C8  UNL     1      33.048   8.695  45.936  1.00  0.00     0.041 C 
HETATM    9  C9  UNL     1      32.221   8.346  46.835  1.00  0.00     0.036 C 
HETATM   10  C10 UNL     1      30.861   7.963  46.906  1.00  0.00     0.396 C 
HETATM   11  N4  UNL     1      32.873   7.611  45.071  1.00  0.00    -0.357 N 
HETATM   12  C11 UNL     1      33.468   6.355  45.356  1.00  0.00     0.048 A 
HETATM   13  C12 UNL     1      34.040   5.860  44.204  1.00  0.00     0.033 A 
HETATM   14  C13 UNL     1      34.698   4.647  44.143  1.00  0.00     0.046 A 
HETATM   15  C14 UNL     1      34.830   3.831  45.254  1.00  0.00     0.139 A 
HETATM   16  F1  UNL     1      35.448   2.632  45.308  1.00  0.00    -0.204 F 
HETATM   17  C15 UNL     1      34.228   4.388  46.395  1.00  0.00     0.088 A 
HETATM   18 CL1  UNL     1      34.328   3.386  47.863  1.00  0.00    -0.080 Cl
HETATM   19  C16 UNL     1      33.567   5.599  46.480  1.00  0.00     0.061 A 
HETATM   20  C17 UNL     1      33.074   5.880  47.815  1.00  0.00     0.167 C 
HETATM   21  O2  UNL     1      32.182   4.984  48.045  1.00  0.00    -0.292 OA
HETATM   22  C18 UNL     1      33.294   6.860  48.938  1.00  0.00     0.120 C 
HETATM   23  H12 UNL     1      32.290   7.858  44.250  1.00  0.00     0.166 HD
ENDROOT
BRANCH   1  24
HETATM   24  C2  UNL     1      29.380   7.645  48.670  1.00  0.00     0.423 C 
BRANCH  24  25
HETATM   25  N1  UNL     1      29.199   6.512  47.835  1.00  0.00    -0.283 NA
HETATM   26  C1  UNL     1      28.657   5.444  48.312  1.00  0.00     0.144 C 
ENDBRANCH  24  25
ENDBRANCH   1  24
BRANCH  10  27
HETATM   27  O1  UNL     1      30.161   8.581  45.829  1.00  0.00    -0.364 OA
HETATM   28  H11 UNL     1      30.705   8.576  45.005  1.00  0.00     0.212 HD
ENDBRANCH  10  27
TORSDOF 3
ENDMDL
MODEL 4
REMARK VINA RESULT:      -7.1      2.442      4.761
REMARK  3 active torsions:
REMARK  status: ('A' for Active; 'I' for Inactive)
REMARK    1  A    between atoms: N1_2  and  C2_3 
REMARK    2  A    between atoms: C2_3  and  N2_4 
REMARK    3  A    between atoms: C10_13  and  O1_14 
ROOT
HETATM    1  N2  UNL     1      20.349   2.888  49.157  1.00  0.00     0.144 N 
HETATM    2  C3  UNL     1      19.855   3.570  50.347  1.00  0.00     0.314 C 
HETATM    3  C4  UNL     1      20.759   3.280  51.505  1.00  0.00    -0.032 C 
HETATM    4  C5  UNL     1      21.919   3.882  51.662  1.00  0.00    -0.002 C 
HETATM    5  C6  UNL     1      22.460   4.770  52.677  1.00  0.00     0.123 C 
HETATM    6  N3  UNL     1      23.750   5.068  52.493  1.00  0.00    -0.295 NA
HETATM    7  C7  UNL     1      24.199   4.871  51.051  1.00  0.00     0.206 C 
HETATM    8  C8  UNL     1      23.421   3.658  50.693  1.00  0.00     0.041 C 
HETATM    9  C9  UNL     1      22.282   3.149  50.451  1.00  0.00     0.036 C 
HETATM   10  C10 UNL     1      21.698   2.327  49.459  1.00  0.00     0.396 C 
HETATM   11  N4  UNL     1      24.182   2.487  50.618  1.00  0.00    -0.357 N 
HETATM   12  C11 UNL     1      24.189   1.560  51.692  1.00  0.00     0.048 A 
HETATM   13  C12 UNL     1      25.488   1.164  51.931  1.00  0.00     0.033 A 
HETATM   14  C13 UNL     1      25.837   0.259  52.915  1.00  0.00     0.046 A 
HETATM   15  C14 UNL     1      24.890  -0.324  53.740  1.00  0.00     0.139 A 
HETATM   16  F1  UNL     1      25.118  -1.217  54.727  1.00  0.00    -0.204 F 
HETATM   17  C15 UNL     1      23.588   0.118  53.448  1.00  0.00     0.088 A 
HETATM   18 CL1  UNL     1      22.307  -0.607  54.448  1.00  0.00    -0.080 Cl
HETATM   19  C16 UNL     1      23.216   1.023  52.473  1.00  0.00     0.061 A 
HETATM   20  C17 UNL     1      21.787   1.269  52.448  1.00  0.00     0.167 C 
HETATM   21  O2  UNL     1      21.255   0.152  52.102  1.00  0.00    -0.292 OA
HETATM   22  C18 UNL     1      20.809   2.388  52.695  1.00  0.00     0.120 C 
HETATM   23  H12 UNL     1      24.703   2.417  49.725  1.00  0.00     0.166 HD
ENDROOT
BRANCH   1  24
HETATM   24  C2  UNL     1      19.507   1.722  48.972  1.00  0.00     0.423 C 
BRANCH  24  25
HETATM   25  N1  UNL     1      18.399   1.687  49.859  1.00  0.00    -0.283 NA
HETATM   26  C1  UNL     1      17.979   0.556  50.314  1.00  0.00     0.144 C 
ENDBRANCH  24  25
ENDBRANCH   1  24
BRANCH  10  27
HETATM   27  O1  UNL     1      22.398   2.531  48.234  1.00  0.00    -0.364 OA
HETATM   28  H11 UNL     1      22.985   1.764  48.030  1.00  0.00     0.212 HD
ENDBRANCH  10  27
TORSDOF 3
ENDMDL
MODEL 5
REMARK VINA RESULT:      -7.1      2.131      2.455
REMARK  3 active torsions:
REMARK  status: ('A' for Active; 'I' for Inactive)
REMARK    1  A    between atoms: N1_2  and  C2_3 
REMARK    2  A    between atoms: C2_3  and  N2_4 
REMARK    3  A    between atoms: C10_13  and  O1_14 
ROOT
HETATM    1  N2  UNL     1      21.648   7.305  49.314  1.00  0.00     0.144 N 
HETATM    2  C3  UNL     1      21.381   6.309  48.284  1.00  0.00     0.314 C 
HETATM    3  C4  UNL     1      22.016   5.008  48.665  1.00  0.00    -0.032 C 
HETATM    4  C5  UNL     1      21.487   4.200  49.559  1.00  0.00    -0.002 C 
HETATM    5  C6  UNL     1      20.962   2.847  49.504  1.00  0.00     0.123 C 
HETATM    6  N3  UNL     1      20.613   2.360  50.699  1.00  0.00    -0.295 NA
HETATM    7  C7  UNL     1      20.340   3.454  51.722  1.00  0.00     0.206 C 
HETATM    8  C8  UNL     1      21.382   4.441  51.343  1.00  0.00     0.041 C 
HETATM    9  C9  UNL     1      21.796   5.286  50.488  1.00  0.00     0.036 C 
HETATM   10  C10 UNL     1      22.266   6.620  50.486  1.00  0.00     0.396 C 
HETATM   11  N4  UNL     1      22.464   4.505  52.226  1.00  0.00    -0.357 N 
HETATM   12  C11 UNL     1      23.683   3.845  51.926  1.00  0.00     0.048 A 
HETATM   13  C12 UNL     1      24.125   3.188  53.054  1.00  0.00     0.033 A 
HETATM   14  C13 UNL     1      25.293   2.451  53.095  1.00  0.00     0.046 A 
HETATM   15  C14 UNL     1      26.114   2.320  51.988  1.00  0.00     0.139 A 
HETATM   16  F1  UNL     1      27.271   1.629  51.917  1.00  0.00    -0.204 F 
HETATM   17  C15 UNL     1      25.611   3.010  50.872  1.00  0.00     0.088 A 
HETATM   18 CL1  UNL     1      26.624   2.915  49.411  1.00  0.00    -0.080 Cl
HETATM   19  C16 UNL     1      24.447   3.751  50.806  1.00  0.00     0.061 A 
HETATM   20  C17 UNL     1      24.215   4.323  49.493  1.00  0.00     0.167 C 
HETATM   21  O2  UNL     1      25.169   5.165  49.316  1.00  0.00    -0.292 OA
HETATM   22  C18 UNL     1      23.239   4.220  48.351  1.00  0.00     0.120 C 
HETATM   23  H12 UNL     1      22.244   5.063  53.072  1.00  0.00     0.166 HD
ENDROOT
BRANCH   1  24
HETATM   24  C2  UNL     1      22.701   8.159  48.798  1.00  0.00     0.423 C 
BRANCH  24  25
HETATM   25  N1  UNL     1      23.764   8.350  49.719  1.00  0.00    -0.283 NA
HETATM   26  C1  UNL     1      24.880   8.854  49.313  1.00  0.00     0.144 C 
ENDBRANCH  24  25
ENDBRANCH   1  24
BRANCH  10  27
HETATM   27  O1  UNL     1      21.680   7.307  51.590  1.00  0.00    -0.364 OA
HETATM   28  H11 UNL     1      20.816   6.899  51.842  1.00  0.00     0.212 HD
ENDBRANCH  10  27
TORSDOF 3
ENDMDL
MODEL 6
REMARK VINA RESULT:      -7.0      8.100      9.971
REMARK  3 active torsions:
REMARK  status: ('A' for Active; 'I' for Inactive)
REMARK    1  A    between atoms: N1_2  and  C2_3 
REMARK    2  A    between atoms: C2_3  and  N2_4 
REMARK    3  A    between atoms: C10_13  and  O1_14 
ROOT
HETATM    1  N2  UNL     1      31.303   6.491  49.173  1.00  0.00     0.144 N 
HETATM    2  C3  UNL     1      31.804   7.852  49.325  1.00  0.00     0.314 C 
HETATM    3  C4  UNL     1      30.989   8.786  48.486  1.00  0.00    -0.032 C 
HETATM    4  C5  UNL     1      29.795   9.203  48.852  1.00  0.00    -0.002 C 
HETATM    5  C6  UNL     1      29.241  10.508  49.168  1.00  0.00     0.123 C 
HETATM    6  N3  UNL     1      27.923  10.488  49.393  1.00  0.00    -0.295 NA
HETATM    7  C7  UNL     1      27.415   9.108  49.787  1.00  0.00     0.206 C 
HETATM    8  C8  UNL     1      28.265   8.252  48.922  1.00  0.00     0.041 C 
HETATM    9  C9  UNL     1      29.427   7.800  48.674  1.00  0.00     0.036 C 
HETATM   10  C10 UNL     1      30.020   6.543  48.412  1.00  0.00     0.396 C 
HETATM   11  N4  UNL     1      27.596   7.694  47.828  1.00  0.00    -0.357 N 
HETATM   12  C11 UNL     1      27.719   8.266  46.536  1.00  0.00     0.048 A 
HETATM   13  C12 UNL     1      26.471   8.331  45.956  1.00  0.00     0.033 A 
HETATM   14  C13 UNL     1      26.247   8.836  44.689  1.00  0.00     0.046 A 
HETATM   15  C14 UNL     1      27.280   9.318  43.902  1.00  0.00     0.139 A 
HETATM   16  F1  UNL     1      27.176   9.830  42.657  1.00  0.00    -0.204 F 
HETATM   17  C15 UNL     1      28.525   9.225  44.547  1.00  0.00     0.088 A 
HETATM   18 CL1  UNL     1      29.911   9.799  43.589  1.00  0.00    -0.080 Cl
HETATM   19  C16 UNL     1      28.772   8.727  45.812  1.00  0.00     0.061 A 
HETATM   20  C17 UNL     1      30.174   8.789  46.178  1.00  0.00     0.167 C 
HETATM   21  O2  UNL     1      30.773   7.990  45.371  1.00  0.00    -0.292 OA
HETATM   22  C18 UNL     1      31.073   9.479  47.172  1.00  0.00     0.120 C 
HETATM   23  H12 UNL     1      27.036   6.864  48.097  1.00  0.00     0.166 HD
ENDROOT
BRANCH   1  24
HETATM   24  C2  UNL     1      32.223   5.812  48.281  1.00  0.00     0.423 C 
BRANCH  24  25
HETATM   25  N1  UNL     1      32.029   4.406  48.246  1.00  0.00    -0.283 NA
HETATM   26  C1  UNL     1      32.108   3.777  47.122  1.00  0.00     0.144 C 
ENDBRANCH  24  25
ENDBRANCH   1  24
BRANCH  10  27
HETATM   27  O1  UNL     1      29.242   5.534  49.052  1.00  0.00    -0.364 OA
HETATM   28  H11 UNL     1      28.936   5.834  49.942  1.00  0.00     0.212 HD
ENDBRANCH  10  27
TORSDOF 3
ENDMDL
MODEL 7
REMARK VINA RESULT:      -7.0      3.659      6.156
REMARK  3 active torsions:
REMARK  status: ('A' for Active; 'I' for Inactive)
REMARK    1  A    between atoms: N1_2  and  C2_3 
REMARK    2  A    between atoms: C2_3  and  N2_4 
REMARK    3  A    between atoms: C10_13  and  O1_14 
ROOT
HETATM    1  N2  UNL     1      24.472   3.200  52.422  1.00  0.00     0.144 N 
HETATM    2  C3  UNL     1      24.966   2.886  51.087  1.00  0.00     0.314 C 
HETATM    3  C4  UNL     1      24.250   3.726  50.075  1.00  0.00    -0.032 C 
HETATM    4  C5  UNL     1      24.549   4.991  49.870  1.00  0.00    -0.002 C 
HETATM    5  C6  UNL     1      25.063   5.729  48.729  1.00  0.00     0.123 C 
HETATM    6  N3  UNL     1      25.119   7.050  48.928  1.00  0.00    -0.295 NA
HETATM    7  C7  UNL     1      25.151   7.420  50.405  1.00  0.00     0.206 C 
HETATM    8  C8  UNL     1      24.234   6.392  50.959  1.00  0.00     0.041 C 
HETATM    9  C9  UNL     1      24.038   5.166  51.228  1.00  0.00     0.036 C 
HETATM   10  C10 UNL     1      23.591   4.401  52.331  1.00  0.00     0.396 C 
HETATM   11  N4  UNL     1      22.975   6.881  51.324  1.00  0.00    -0.357 N 
HETATM   12  C11 UNL     1      21.856   6.705  50.470  1.00  0.00     0.048 A 
HETATM   13  C12 UNL     1      21.157   7.891  50.401  1.00  0.00     0.033 A 
HETATM   14  C13 UNL     1      20.007   8.053  49.653  1.00  0.00     0.046 A 
HETATM   15  C14 UNL     1      19.469   7.017  48.909  1.00  0.00     0.139 A 
HETATM   16  F1  UNL     1      18.355   7.063  48.146  1.00  0.00    -0.204 F 
HETATM   17  C15 UNL     1      20.224   5.837  49.019  1.00  0.00     0.088 A 
HETATM   18 CL1  UNL     1      19.581   4.447  48.113  1.00  0.00    -0.080 Cl
HETATM   19  C16 UNL     1      21.376   5.653  49.758  1.00  0.00     0.061 A 
HETATM   20  C17 UNL     1      21.913   4.310  49.641  1.00  0.00     0.167 C 
HETATM   21  O2  UNL     1      21.033   3.544  50.177  1.00  0.00    -0.292 OA
HETATM   22  C18 UNL     1      23.130   3.602  49.104  1.00  0.00     0.120 C 
HETATM   23  H12 UNL     1      22.995   7.358  52.244  1.00  0.00     0.166 HD
ENDROOT
BRANCH   1  24
HETATM   24  C2  UNL     1      23.575   2.122  52.793  1.00  0.00     0.423 C 
BRANCH  24  25
HETATM   25  N1  UNL     1      24.126   0.835  52.564  1.00  0.00    -0.283 NA
HETATM   26  C1  UNL     1      23.938  -0.105  53.428  1.00  0.00     0.144 C 
ENDBRANCH  24  25
ENDBRANCH   1  24
BRANCH  10  27
HETATM   27  O1  UNL     1      23.907   5.107  53.528  1.00  0.00    -0.364 OA
HETATM   28  H11 UNL     1      24.322   4.508  54.194  1.00  0.00     0.212 HD
ENDBRANCH  10  27
TORSDOF 3
ENDMDL
MODEL 8
REMARK VINA RESULT:      -6.9      9.092     11.430
REMARK  3 active torsions:
REMARK  status: ('A' for Active; 'I' for Inactive)
REMARK    1  A    between atoms: N1_2  and  C2_3 
REMARK    2  A    between atoms: C2_3  and  N2_4 
REMARK    3  A    between atoms: C10_13  and  O1_14 
ROOT
HETATM    1  N2  UNL     1      34.723   4.018  47.572  1.00  0.00     0.144 N 
HETATM    2  C3  UNL     1      34.448   4.339  46.177  1.00  0.00     0.314 C 
HETATM    3  C4  UNL     1      33.510   5.504  46.104  1.00  0.00    -0.032 C 
HETATM    4  C5  UNL     1      33.909   6.744  46.292  1.00  0.00    -0.002 C 
HETATM    5  C6  UNL     1      33.944   7.926  45.450  1.00  0.00     0.123 C 
HETATM    6  N3  UNL     1      34.338   9.030  46.094  1.00  0.00    -0.295 NA
HETATM    7  C7  UNL     1      35.143   8.721  47.349  1.00  0.00     0.206 C 
HETATM    8  C8  UNL     1      34.426   7.516  47.837  1.00  0.00     0.041 C 
HETATM    9  C9  UNL     1      34.154   6.287  47.659  1.00  0.00     0.036 C 
HETATM   10  C10 UNL     1      34.153   5.100  48.427  1.00  0.00     0.396 C 
HETATM   11  N4  UNL     1      33.615   7.741  48.953  1.00  0.00    -0.357 N 
HETATM   12  C11 UNL     1      32.214   7.907  48.807  1.00  0.00     0.048 A 
HETATM   13  C12 UNL     1      31.807   8.972  49.581  1.00  0.00     0.033 A 
HETATM   14  C13 UNL     1      30.494   9.393  49.664  1.00  0.00     0.046 A 
HETATM   15  C14 UNL     1      29.479   8.762  48.965  1.00  0.00     0.139 A 
HETATM   16  F1  UNL     1      28.168   9.087  48.972  1.00  0.00    -0.204 F 
HETATM   17  C15 UNL     1      29.954   7.686  48.196  1.00  0.00     0.088 A 
HETATM   18 CL1  UNL     1      28.705   6.803  47.286  1.00  0.00    -0.080 Cl
HETATM   19  C16 UNL     1      31.261   7.249  48.096  1.00  0.00     0.061 A 
HETATM   20  C17 UNL     1      31.410   6.117  47.201  1.00  0.00     0.167 C 
HETATM   21  O2  UNL     1      30.767   5.155  47.760  1.00  0.00    -0.292 OA
HETATM   22  C18 UNL     1      32.061   5.767  45.889  1.00  0.00     0.120 C 
HETATM   23  H12 UNL     1      34.162   7.771  49.833  1.00  0.00     0.166 HD
ENDROOT
BRANCH   1  24
HETATM   24  C2  UNL     1      33.927   2.849  47.890  1.00  0.00     0.423 C 
BRANCH  24  25
HETATM   25  N1  UNL     1      33.157   2.383  46.793  1.00  0.00    -0.283 NA
HETATM   26  C1  UNL     1      32.405   1.344  46.932  1.00  0.00     0.144 C 
ENDBRANCH  24  25
ENDBRANCH   1  24
BRANCH  10  27
HETATM   27  O1  UNL     1      35.131   5.227  49.457  1.00  0.00    -0.364 OA
HETATM   28  H11 UNL     1      34.703   5.339  50.340  1.00  0.00     0.212 HD
ENDBRANCH  10  27
TORSDOF 3
ENDMDL
MODEL 9
REMARK VINA RESULT:      -6.7      2.541      5.113
REMARK  3 active torsions:
REMARK  status: ('A' for Active; 'I' for Inactive)
REMARK    1  A    between atoms: N1_2  and  C2_3 
REMARK    2  A    between atoms: C2_3  and  N2_4 
REMARK    3  A    between atoms: C10_13  and  O1_14 
ROOT
HETATM    1  N2  UNL     1      19.377   2.322  49.803  1.00  0.00     0.144 N 
HETATM    2  C3  UNL     1      19.245   3.146  50.999  1.00  0.00     0.314 C 
HETATM    3  C4  UNL     1      20.600   3.589  51.457  1.00  0.00    -0.032 C 
HETATM    4  C5  UNL     1      21.256   4.570  50.873  1.00  0.00    -0.002 C 
HETATM    5  C6  UNL     1      21.717   5.873  51.318  1.00  0.00     0.123 C 
HETATM    6  N3  UNL     1      22.454   6.519  50.408  1.00  0.00    -0.295 NA
HETATM    7  C7  UNL     1      22.205   6.021  48.991  1.00  0.00     0.206 C 
HETATM    8  C8  UNL     1      22.028   4.569  49.245  1.00  0.00     0.041 C 
HETATM    9  C9  UNL     1      21.304   3.649  49.740  1.00  0.00     0.036 C 
HETATM   10  C10 UNL     1      20.790   2.396  49.331  1.00  0.00     0.396 C 
HETATM   11  N4  UNL     1      23.114   3.779  48.853  1.00  0.00    -0.357 N 
HETATM   12  C11 UNL     1      24.060   3.326  49.807  1.00  0.00     0.048 A 
HETATM   13  C12 UNL     1      25.329   3.506  49.299  1.00  0.00     0.033 A 
HETATM   14  C13 UNL     1      26.478   3.159  49.983  1.00  0.00     0.046 A 
HETATM   15  C14 UNL     1      26.433   2.596  51.247  1.00  0.00     0.139 A 
HETATM   16  F1  UNL     1      27.487   2.220  52.002  1.00  0.00    -0.204 F 
HETATM   17  C15 UNL     1      25.116   2.437  51.710  1.00  0.00     0.088 A 
HETATM   18 CL1  UNL     1      24.970   1.692  53.320  1.00  0.00    -0.080 Cl
HETATM   19  C16 UNL     1      23.953   2.778  51.046  1.00  0.00     0.061 A 
HETATM   20  C17 UNL     1      22.758   2.493  51.817  1.00  0.00     0.167 C 
HETATM   21  O2  UNL     1      22.726   1.214  51.933  1.00  0.00    -0.292 OA
HETATM   22  C18 UNL     1      21.617   3.219  52.479  1.00  0.00     0.120 C 
HETATM   23  H12 UNL     1      23.116   3.600  47.832  1.00  0.00     0.166 HD
ENDROOT
BRANCH   1  24
HETATM   24  C2  UNL     1      19.211   0.946  50.232  1.00  0.00     0.423 C 
BRANCH  24  25
HETATM   25  N1  UNL     1      18.461   0.822  51.430  1.00  0.00    -0.283 NA
HETATM   26  C1  UNL     1      18.091  -0.345  51.836  1.00  0.00     0.144 C 
ENDBRANCH  24  25
ENDBRANCH   1  24
BRANCH  10  27
HETATM   27  O1  UNL     1      20.642   2.408  47.913  1.00  0.00    -0.364 OA
HETATM   28  H11 UNL     1      19.974   3.080  47.634  1.00  0.00     0.212 HD
ENDBRANCH  10  27
TORSDOF 3
ENDMDL
