MODEL 1
REMARK VINA RESULT:      -8.0      0.000      0.000
REMARK  3 active torsions:
REMARK  status: ('A' for Active; 'I' for Inactive)
REMARK       I    between atoms: C2_2  and  N1_4 
REMARK    1  A    between atoms: N3_11  and  N4_12 
REMARK    2  A    between atoms: N4_12  and  N5_13 
REMARK    3  A    between atoms: N5_13  and  C8_14 
ROOT
HETATM    1  C1  UNL     1      29.027  -0.013  54.317  1.00  0.00     0.118 C 
HETATM    2  C2  UNL     1      28.335   0.982  53.474  1.00  0.00     0.238 C 
HETATM    3  O1  UNL     1      28.971   1.954  52.984  1.00  0.00    -0.273 OA
HETATM    4  N1  UNL     1      26.936   0.760  53.268  1.00  0.00    -0.123 N 
HETATM    5  C3  UNL     1      26.292  -0.364  53.858  1.00  0.00     0.118 C 
HETATM    6  C4  UNL     1      25.010  -0.681  53.835  1.00  0.00     0.020 C 
HETATM    7  C5  UNL     1      23.868  -0.012  53.223  1.00  0.00     0.019 C 
HETATM    8  C6  UNL     1      23.852   1.152  52.593  1.00  0.00     0.106 C 
HETATM    9  N2  UNL     1      24.941   2.037  52.357  1.00  0.00    -0.198 N 
HETATM   10  C7  UNL     1      26.356   1.770  52.444  1.00  0.00     0.731 C 
HETATM   11  N3  UNL     1      27.097   2.533  51.699  1.00  0.00     0.033 NA
HETATM   12  H8  UNL     1      24.668   3.014  52.084  1.00  0.00     0.183 HD
ENDROOT
BRANCH  11  13
HETATM   13  N4  UNL     1      26.513   3.518  50.898  1.00  0.00    -0.204 N 
HETATM   14  H9  UNL     1      25.859   4.138  51.425  1.00  0.00     0.211 HD
BRANCH  13  15
HETATM   15  N5  UNL     1      26.816   3.610  49.535  1.00  0.00    -0.284 N 
HETATM   16  H10 UNL     1      26.791   2.739  48.978  1.00  0.00     0.188 HD
BRANCH  15  17
HETATM   17  C8  UNL     1      27.150   4.851  48.925  1.00  0.00     0.050 A 
HETATM   18  C9  UNL     1      28.433   5.089  48.478  1.00  0.00     0.031 A 
HETATM   19  C10 UNL     1      28.811   6.278  47.877  1.00  0.00     0.004 A 
HETATM   20  C11 UNL     1      27.856   7.259  47.726  1.00  0.00     0.019 A 
HETATM   21  C12 UNL     1      26.556   7.029  48.175  1.00  0.00     0.013 A 
HETATM   22 BR1  UNL     1      25.240   8.384  47.965  1.00  0.00    -0.051 Br
HETATM   23  C13 UNL     1      26.201   5.819  48.778  1.00  0.00     0.050 A 
ENDBRANCH  15  17
ENDBRANCH  13  15
ENDBRANCH  11  13
TORSDOF 3
ENDMDL
MODEL 2
REMARK VINA RESULT:      -8.0      1.195      1.600
REMARK  3 active torsions:
REMARK  status: ('A' for Active; 'I' for Inactive)
REMARK       I    between atoms: C2_2  and  N1_4 
REMARK    1  A    between atoms: N3_11  and  N4_12 
REMARK    2  A    between atoms: N4_12  and  N5_13 
REMARK    3  A    between atoms: N5_13  and  C8_14 
ROOT
HETATM    1  C1  UNL     1      29.048  -0.075  54.235  1.00  0.00     0.118 C 
HETATM    2  C2  UNL     1      28.355   0.944  53.422  1.00  0.00     0.238 C 
HETATM    3  O1  UNL     1      28.995   1.918  52.943  1.00  0.00    -0.273 OA
HETATM    4  N1  UNL     1      26.951   0.741  53.233  1.00  0.00    -0.123 N 
HETATM    5  C3  UNL     1      26.303  -0.387  53.809  1.00  0.00     0.118 C 
HETATM    6  C4  UNL     1      25.017  -0.690  53.799  1.00  0.00     0.020 C 
HETATM    7  C5  UNL     1      23.875   0.003  53.216  1.00  0.00     0.019 C 
HETATM    8  C6  UNL     1      23.862   1.179  52.609  1.00  0.00     0.106 C 
HETATM    9  N2  UNL     1      24.957   2.057  52.376  1.00  0.00    -0.198 N 
HETATM   10  C7  UNL     1      26.370   1.774  52.436  1.00  0.00     0.731 C 
HETATM   11  N3  UNL     1      27.109   2.543  51.696  1.00  0.00     0.033 NA
HETATM   12  H8  UNL     1      24.692   3.042  52.126  1.00  0.00     0.183 HD
ENDROOT
BRANCH  11  13
HETATM   13  N4  UNL     1      26.524   3.550  50.923  1.00  0.00    -0.204 N 
HETATM   14  H9  UNL     1      25.903   4.181  51.476  1.00  0.00     0.211 HD
BRANCH  13  15
HETATM   15  N5  UNL     1      26.786   3.648  49.552  1.00  0.00    -0.284 N 
HETATM   16  H10 UNL     1      26.788   2.774  49.000  1.00  0.00     0.188 HD
BRANCH  15  17
HETATM   17  C8  UNL     1      27.044   4.900  48.928  1.00  0.00     0.050 A 
HETATM   18  C9  UNL     1      26.025   5.808  48.732  1.00  0.00     0.031 A 
HETATM   19  C10 UNL     1      26.221   7.040  48.130  1.00  0.00     0.004 A 
HETATM   20  C11 UNL     1      27.493   7.360  47.711  1.00  0.00     0.019 A 
HETATM   21  C12 UNL     1      28.531   6.448  47.903  1.00  0.00     0.013 A 
HETATM   22 BR1  UNL     1      30.287   6.893  47.324  1.00  0.00    -0.051 Br
HETATM   23  C13 UNL     1      28.305   5.212  48.515  1.00  0.00     0.050 A 
ENDBRANCH  15  17
ENDBRANCH  13  15
ENDBRANCH  11  13
TORSDOF 3
ENDMDL
MODEL 3
REMARK VINA RESULT:      -7.5      4.658      7.031
REMARK  3 active torsions:
REMARK  status: ('A' for Active; 'I' for Inactive)
REMARK       I    between atoms: C2_2  and  N1_4 
REMARK    1  A    between atoms: N3_11  and  N4_12 
REMARK    2  A    between atoms: N4_12  and  N5_13 
REMARK    3  A    between atoms: N5_13  and  C8_14 
ROOT
HETATM    1  C1  UNL     1      28.738  -2.934  53.131  1.00  0.00     0.118 C 
HETATM    2  C2  UNL     1      27.701  -1.937  52.800  1.00  0.00     0.238 C 
HETATM    3  O1  UNL     1      26.637  -2.291  52.225  1.00  0.00    -0.273 OA
HETATM    4  N1  UNL     1      27.994  -0.586  53.171  1.00  0.00    -0.123 N 
HETATM    5  C3  UNL     1      29.221  -0.269  53.820  1.00  0.00     0.118 C 
HETATM    6  C4  UNL     1      29.685   0.919  54.164  1.00  0.00     0.020 C 
HETATM    7  C5  UNL     1      29.117   2.252  54.002  1.00  0.00     0.019 C 
HETATM    8  C6  UNL     1      27.999   2.589  53.378  1.00  0.00     0.106 C 
HETATM    9  N2  UNL     1      27.077   1.735  52.711  1.00  0.00    -0.198 N 
HETATM   10  C7  UNL     1      26.937   0.303  52.812  1.00  0.00     0.731 C 
HETATM   11  N3  UNL     1      25.748  -0.145  52.546  1.00  0.00     0.033 NA
HETATM   12  H8  UNL     1      26.411   2.222  52.061  1.00  0.00     0.183 HD
ENDROOT
BRANCH  11  13
HETATM   13  N4  UNL     1      24.724   0.739  52.194  1.00  0.00    -0.204 N 
HETATM   14  H9  UNL     1      24.782   1.058  51.201  1.00  0.00     0.211 HD
BRANCH  13  15
HETATM   15  N5  UNL     1      23.750   1.118  53.124  1.00  0.00    -0.284 N 
HETATM   16  H10 UNL     1      23.886   2.014  53.624  1.00  0.00     0.188 HD
BRANCH  15  17
HETATM   17  C8  UNL     1      22.609   0.310  53.384  1.00  0.00     0.050 A 
HETATM   18  C9  UNL     1      22.668  -0.709  54.311  1.00  0.00     0.031 A 
HETATM   19  C10 UNL     1      21.587  -1.524  54.603  1.00  0.00     0.004 A 
HETATM   20  C11 UNL     1      20.407  -1.299  53.929  1.00  0.00     0.019 A 
HETATM   21  C12 UNL     1      20.336  -0.272  52.988  1.00  0.00     0.013 A 
HETATM   22 BR1  UNL     1      18.706   0.037  52.061  1.00  0.00    -0.051 Br
HETATM   23  C13 UNL     1      21.443   0.537  52.715  1.00  0.00     0.050 A 
ENDBRANCH  15  17
ENDBRANCH  13  15
ENDBRANCH  11  13
TORSDOF 3
ENDMDL
MODEL 4
REMARK VINA RESULT:      -7.4      4.654      6.284
REMARK  3 active torsions:
REMARK  status: ('A' for Active; 'I' for Inactive)
REMARK       I    between atoms: C2_2  and  N1_4 
REMARK    1  A    between atoms: N3_11  and  N4_12 
REMARK    2  A    between atoms: N4_12  and  N5_13 
REMARK    3  A    between atoms: N5_13  and  C8_14 
ROOT
HETATM    1  C1  UNL     1      21.509   1.752  48.307  1.00  0.00     0.118 C 
HETATM    2  C2  UNL     1      22.487   2.040  49.375  1.00  0.00     0.238 C 
HETATM    3  O1  UNL     1      23.526   2.708  49.124  1.00  0.00    -0.273 OA
HETATM    4  N1  UNL     1      22.169   1.518  50.669  1.00  0.00    -0.123 N 
HETATM    5  C3  UNL     1      20.972   0.774  50.870  1.00  0.00     0.118 C 
HETATM    6  C4  UNL     1      20.559   0.162  51.965  1.00  0.00     0.020 C 
HETATM    7  C5  UNL     1      21.167   0.048  53.285  1.00  0.00     0.019 C 
HETATM    8  C6  UNL     1      22.354   0.487  53.673  1.00  0.00     0.106 C 
HETATM    9  N2  UNL     1      23.330   1.175  52.899  1.00  0.00    -0.198 N 
HETATM   10  C7  UNL     1      23.169   1.846  51.633  1.00  0.00     0.731 C 
HETATM   11  N3  UNL     1      24.019   2.802  51.414  1.00  0.00     0.033 NA
HETATM   12  H8  UNL     1      24.295   1.192  53.314  1.00  0.00     0.183 HD
ENDROOT
BRANCH  11  13
HETATM   13  N4  UNL     1      24.994   3.111  52.369  1.00  0.00    -0.204 N 
HETATM   14  H9  UNL     1      24.589   3.399  53.287  1.00  0.00     0.211 HD
BRANCH  13  15
HETATM   15  N5  UNL     1      26.356   3.021  52.062  1.00  0.00    -0.284 N 
HETATM   16  H10 UNL     1      26.747   3.719  51.406  1.00  0.00     0.188 HD
BRANCH  15  17
HETATM   17  C8  UNL     1      27.184   2.010  52.622  1.00  0.00     0.050 A 
HETATM   18  C9  UNL     1      28.268   2.347  53.405  1.00  0.00     0.031 A 
HETATM   19  C10 UNL     1      29.107   1.403  53.975  1.00  0.00     0.004 A 
HETATM   20  C11 UNL     1      28.836   0.073  53.742  1.00  0.00     0.019 A 
HETATM   21  C12 UNL     1      27.742  -0.279  52.952  1.00  0.00     0.013 A 
HETATM   22 BR1  UNL     1      27.370  -2.116  52.633  1.00  0.00    -0.051 Br
HETATM   23  C13 UNL     1      26.911   0.695  52.389  1.00  0.00     0.050 A 
ENDBRANCH  15  17
ENDBRANCH  13  15
ENDBRANCH  11  13
TORSDOF 3
ENDMDL
MODEL 5
REMARK VINA RESULT:      -7.3      1.520      2.767
REMARK  3 active torsions:
REMARK  status: ('A' for Active; 'I' for Inactive)
REMARK       I    between atoms: C2_2  and  N1_4 
REMARK    1  A    between atoms: N3_11  and  N4_12 
REMARK    2  A    between atoms: N4_12  and  N5_13 
REMARK    3  A    between atoms: N5_13  and  C8_14 
ROOT
HETATM    1  C1  UNL     1      23.079  -0.400  53.442  1.00  0.00     0.118 C 
HETATM    2  C2  UNL     1      23.897   0.623  52.763  1.00  0.00     0.238 C 
HETATM    3  O1  UNL     1      23.410   1.309  51.825  1.00  0.00    -0.273 OA
HETATM    4  N1  UNL     1      25.239   0.767  53.242  1.00  0.00    -0.123 N 
HETATM    5  C3  UNL     1      25.712  -0.048  54.309  1.00  0.00     0.118 C 
HETATM    6  C4  UNL     1      26.928  -0.103  54.824  1.00  0.00     0.020 C 
HETATM    7  C5  UNL     1      28.145   0.624  54.484  1.00  0.00     0.019 C 
HETATM    8  C6  UNL     1      28.329   1.481  53.492  1.00  0.00     0.106 C 
HETATM    9  N2  UNL     1      27.387   1.904  52.513  1.00  0.00    -0.198 N 
HETATM   10  C7  UNL     1      25.950   1.777  52.528  1.00  0.00     0.731 C 
HETATM   11  N3  UNL     1      25.320   2.669  51.827  1.00  0.00     0.033 NA
HETATM   12  H8  UNL     1      27.803   2.370  51.669  1.00  0.00     0.183 HD
ENDROOT
BRANCH  11  13
HETATM   13  N4  UNL     1      26.033   3.652  51.132  1.00  0.00    -0.204 N 
HETATM   14  H9  UNL     1      26.836   4.036  51.678  1.00  0.00     0.211 HD
BRANCH  13  15
HETATM   15  N5  UNL     1      25.656   4.035  49.841  1.00  0.00    -0.284 N 
HETATM   16  H10 UNL     1      24.847   3.554  49.414  1.00  0.00     0.188 HD
BRANCH  15  17
HETATM   17  C8  UNL     1      26.354   5.049  49.128  1.00  0.00     0.050 A 
HETATM   18  C9  UNL     1      27.684   4.886  48.800  1.00  0.00     0.031 A 
HETATM   19  C10 UNL     1      28.410   5.841  48.107  1.00  0.00     0.004 A 
HETATM   20  C11 UNL     1      27.765   7.000  47.736  1.00  0.00     0.019 A 
HETATM   21  C12 UNL     1      26.421   7.176  48.064  1.00  0.00     0.013 A 
HETATM   22 BR1  UNL     1      25.534   8.776  47.550  1.00  0.00    -0.051 Br
HETATM   23  C13 UNL     1      25.712   6.195  48.763  1.00  0.00     0.050 A 
ENDBRANCH  15  17
ENDBRANCH  13  15
ENDBRANCH  11  13
TORSDOF 3
ENDMDL
MODEL 6
REMARK VINA RESULT:      -7.2      2.775      4.122
REMARK  3 active torsions:
REMARK  status: ('A' for Active; 'I' for Inactive)
REMARK       I    between atoms: C2_2  and  N1_4 
REMARK    1  A    between atoms: N3_11  and  N4_12 
REMARK    2  A    between atoms: N4_12  and  N5_13 
REMARK    3  A    between atoms: N5_13  and  C8_14 
ROOT
HETATM    1  C1  UNL     1      20.875   1.233  51.495  1.00  0.00     0.118 C 
HETATM    2  C2  UNL     1      21.771   2.377  51.753  1.00  0.00     0.238 C 
HETATM    3  O1  UNL     1      21.450   3.535  51.375  1.00  0.00    -0.273 OA
HETATM    4  N1  UNL     1      22.989   2.071  52.441  1.00  0.00    -0.123 N 
HETATM    5  C3  UNL     1      23.276   0.734  52.835  1.00  0.00     0.118 C 
HETATM    6  C4  UNL     1      24.370   0.263  53.406  1.00  0.00     0.020 C 
HETATM    7  C5  UNL     1      25.603   0.929  53.809  1.00  0.00     0.019 C 
HETATM    8  C6  UNL     1      25.944   2.193  53.614  1.00  0.00     0.106 C 
HETATM    9  N2  UNL     1      25.195   3.213  52.963  1.00  0.00    -0.198 N 
HETATM   10  C7  UNL     1      23.788   3.236  52.645  1.00  0.00     0.731 C 
HETATM   11  N3  UNL     1      23.273   4.424  52.553  1.00  0.00     0.033 NA
HETATM   12  H8  UNL     1      25.749   4.058  52.679  1.00  0.00     0.183 HD
ENDROOT
BRANCH  11  13
HETATM   13  N4  UNL     1      24.070   5.555  52.755  1.00  0.00    -0.204 N 
HETATM   14  H9  UNL     1      24.573   5.542  53.670  1.00  0.00     0.211 HD
BRANCH  13  15
HETATM   15  N5  UNL     1      24.143   6.566  51.790  1.00  0.00    -0.284 N 
HETATM   16  H10 UNL     1      23.488   7.362  51.878  1.00  0.00     0.188 HD
BRANCH  15  17
HETATM   17  C8  UNL     1      25.078   6.513  50.720  1.00  0.00     0.050 A 
HETATM   18  C9  UNL     1      25.311   5.331  50.050  1.00  0.00     0.031 A 
HETATM   19  C10 UNL     1      26.210   5.224  49.002  1.00  0.00     0.004 A 
HETATM   20  C11 UNL     1      26.896   6.356  48.622  1.00  0.00     0.019 A 
HETATM   21  C12 UNL     1      26.669   7.557  49.292  1.00  0.00     0.013 A 
HETATM   22 BR1  UNL     1      27.617   9.118  48.764  1.00  0.00    -0.051 Br
HETATM   23  C13 UNL     1      25.755   7.637  50.347  1.00  0.00     0.050 A 
ENDBRANCH  15  17
ENDBRANCH  13  15
ENDBRANCH  11  13
TORSDOF 3
ENDMDL
MODEL 7
REMARK VINA RESULT:      -7.1      3.296      7.610
REMARK  3 active torsions:
REMARK  status: ('A' for Active; 'I' for Inactive)
REMARK       I    between atoms: C2_2  and  N1_4 
REMARK    1  A    between atoms: N3_11  and  N4_12 
REMARK    2  A    between atoms: N4_12  and  N5_13 
REMARK    3  A    between atoms: N5_13  and  C8_14 
ROOT
HETATM    1  C1  UNL     1      23.901   8.126  50.799  1.00  0.00     0.118 C 
HETATM    2  C2  UNL     1      24.263   6.695  50.789  1.00  0.00     0.238 C 
HETATM    3  O1  UNL     1      23.606   5.867  51.475  1.00  0.00    -0.273 OA
HETATM    4  N1  UNL     1      25.380   6.340  49.967  1.00  0.00    -0.123 N 
HETATM    5  C3  UNL     1      26.069   7.337  49.221  1.00  0.00     0.118 C 
HETATM    6  C4  UNL     1      27.152   7.205  48.476  1.00  0.00     0.020 C 
HETATM    7  C5  UNL     1      27.973   6.037  48.181  1.00  0.00     0.019 C 
HETATM    8  C6  UNL     1      27.855   4.815  48.675  1.00  0.00     0.106 C 
HETATM    9  N2  UNL     1      26.900   4.338  49.616  1.00  0.00    -0.198 N 
HETATM   10  C7  UNL     1      25.653   4.940  50.021  1.00  0.00     0.731 C 
HETATM   11  N3  UNL     1      24.761   4.101  50.453  1.00  0.00     0.033 NA
HETATM   12  H8  UNL     1      27.144   3.425  50.074  1.00  0.00     0.183 HD
ENDROOT
BRANCH  11  13
HETATM   13  N4  UNL     1      25.046   2.733  50.500  1.00  0.00    -0.204 N 
HETATM   14  H9  UNL     1      25.926   2.482  49.998  1.00  0.00     0.211 HD
BRANCH  13  15
HETATM   15  N5  UNL     1      24.196   1.844  51.168  1.00  0.00    -0.284 N 
HETATM   16  H10 UNL     1      23.194   1.853  50.911  1.00  0.00     0.188 HD
BRANCH  15  17
HETATM   17  C8  UNL     1      24.680   0.956  52.167  1.00  0.00     0.050 A 
HETATM   18  C9  UNL     1      23.809   0.358  53.054  1.00  0.00     0.031 A 
HETATM   19  C10 UNL     1      24.226  -0.514  54.045  1.00  0.00     0.004 A 
HETATM   20  C11 UNL     1      25.573  -0.788  54.141  1.00  0.00     0.019 A 
HETATM   21  C12 UNL     1      26.462  -0.189  53.250  1.00  0.00     0.013 A 
HETATM   22 BR1  UNL     1      28.320  -0.570  53.383  1.00  0.00    -0.051 Br
HETATM   23  C13 UNL     1      26.013   0.687  52.257  1.00  0.00     0.050 A 
ENDBRANCH  15  17
ENDBRANCH  13  15
ENDBRANCH  11  13
TORSDOF 3
ENDMDL
MODEL 8
REMARK VINA RESULT:      -7.1      3.611      7.519
REMARK  3 active torsions:
REMARK  status: ('A' for Active; 'I' for Inactive)
REMARK       I    between atoms: C2_2  and  N1_4 
REMARK    1  A    between atoms: N3_11  and  N4_12 
REMARK    2  A    between atoms: N4_12  and  N5_13 
REMARK    3  A    between atoms: N5_13  and  C8_14 
ROOT
HETATM    1  C1  UNL     1      21.690   4.934  49.536  1.00  0.00     0.118 C 
HETATM    2  C2  UNL     1      23.056   4.576  49.963  1.00  0.00     0.238 C 
HETATM    3  O1  UNL     1      23.239   3.672  50.822  1.00  0.00    -0.273 OA
HETATM    4  N1  UNL     1      24.116   5.314  49.345  1.00  0.00    -0.123 N 
HETATM    5  C3  UNL     1      23.824   6.321  48.382  1.00  0.00     0.118 C 
HETATM    6  C4  UNL     1      24.661   7.141  47.772  1.00  0.00     0.020 C 
HETATM    7  C5  UNL     1      26.108   7.284  47.876  1.00  0.00     0.019 C 
HETATM    8  C6  UNL     1      26.930   6.650  48.697  1.00  0.00     0.106 C 
HETATM    9  N2  UNL     1      26.606   5.673  49.680  1.00  0.00    -0.198 N 
HETATM   10  C7  UNL     1      25.397   4.899  49.819  1.00  0.00     0.731 C 
HETATM   11  N3  UNL     1      25.549   3.761  50.425  1.00  0.00     0.033 NA
HETATM   12  H8  UNL     1      27.354   5.499  50.396  1.00  0.00     0.183 HD
ENDROOT
BRANCH  11  13
HETATM   13  N4  UNL     1      26.810   3.370  50.884  1.00  0.00    -0.204 N 
HETATM   14  H9  UNL     1      27.560   3.487  50.167  1.00  0.00     0.211 HD
BRANCH  13  15
HETATM   15  N5  UNL     1      26.983   2.881  52.183  1.00  0.00    -0.284 N 
HETATM   16  H10 UNL     1      27.045   3.570  52.952  1.00  0.00     0.188 HD
BRANCH  15  17
HETATM   17  C8  UNL     1      27.072   1.487  52.452  1.00  0.00     0.050 A 
HETATM   18  C9  UNL     1      25.982   0.665  52.259  1.00  0.00     0.031 A 
HETATM   19  C10 UNL     1      26.014  -0.697  52.505  1.00  0.00     0.004 A 
HETATM   20  C11 UNL     1      27.192  -1.244  52.963  1.00  0.00     0.019 A 
HETATM   21  C12 UNL     1      28.301  -0.422  53.162  1.00  0.00     0.013 A 
HETATM   22 BR1  UNL     1      29.927  -1.179  53.792  1.00  0.00    -0.051 Br
HETATM   23  C13 UNL     1      28.241   0.951  52.904  1.00  0.00     0.050 A 
ENDBRANCH  15  17
ENDBRANCH  13  15
ENDBRANCH  11  13
TORSDOF 3
ENDMDL
MODEL 9
REMARK VINA RESULT:      -7.1      3.016      7.251
REMARK  3 active torsions:
REMARK  status: ('A' for Active; 'I' for Inactive)
REMARK       I    between atoms: C2_2  and  N1_4 
REMARK    1  A    between atoms: N3_11  and  N4_12 
REMARK    2  A    between atoms: N4_12  and  N5_13 
REMARK    3  A    between atoms: N5_13  and  C8_14 
ROOT
HETATM    1  C1  UNL     1      29.092   7.148  47.612  1.00  0.00     0.118 C 
HETATM    2  C2  UNL     1      28.379   5.998  48.203  1.00  0.00     0.238 C 
HETATM    3  O1  UNL     1      29.001   4.939  48.483  1.00  0.00    -0.273 OA
HETATM    4  N1  UNL     1      26.976   6.181  48.424  1.00  0.00    -0.123 N 
HETATM    5  C3  UNL     1      26.349   7.412  48.081  1.00  0.00     0.118 C 
HETATM    6  C4  UNL     1      25.068   7.727  48.146  1.00  0.00     0.020 C 
HETATM    7  C5  UNL     1      23.911   6.950  48.574  1.00  0.00     0.019 C 
HETATM    8  C6  UNL     1      23.877   5.677  48.936  1.00  0.00     0.106 C 
HETATM    9  N2  UNL     1      24.958   4.753  48.995  1.00  0.00    -0.198 N 
HETATM   10  C7  UNL     1      26.375   5.021  48.997  1.00  0.00     0.731 C 
HETATM   11  N3  UNL     1      27.098   4.109  49.573  1.00  0.00     0.033 NA
HETATM   12  H8  UNL     1      24.676   3.743  49.043  1.00  0.00     0.183 HD
ENDROOT
BRANCH  11  13
HETATM   13  N4  UNL     1      26.493   2.977  50.129  1.00  0.00    -0.204 N 
HETATM   14  H9  UNL     1      26.152   2.302  49.409  1.00  0.00     0.211 HD
BRANCH  13  15
HETATM   15  N5  UNL     1      26.388   2.826  51.515  1.00  0.00    -0.284 N 
HETATM   16  H10 UNL     1      26.530   3.665  52.102  1.00  0.00     0.188 HD
BRANCH  15  17
HETATM   17  C8  UNL     1      26.098   1.567  52.111  1.00  0.00     0.050 A 
HETATM   18  C9  UNL     1      27.084   0.614  52.252  1.00  0.00     0.031 A 
HETATM   19  C10 UNL     1      26.855  -0.626  52.824  1.00  0.00     0.004 A 
HETATM   20  C11 UNL     1      25.583  -0.909  53.267  1.00  0.00     0.019 A 
HETATM   21  C12 UNL     1      24.577   0.047  53.129  1.00  0.00     0.013 A 
HETATM   22 BR1  UNL     1      22.821  -0.346  53.742  1.00  0.00    -0.051 Br
HETATM   23  C13 UNL     1      24.836   1.292  52.548  1.00  0.00     0.050 A 
ENDBRANCH  15  17
ENDBRANCH  13  15
ENDBRANCH  11  13
TORSDOF 3
ENDMDL
