MODEL 1
REMARK VINA RESULT:      -9.5      0.000      0.000
REMARK  5 active torsions:
REMARK  status: ('A' for Active; 'I' for Inactive)
REMARK    1  A    between atoms: C9_10  and  N1_11 
REMARK    2  A    between atoms: N1_11  and  C10_12 
REMARK    3  A    between atoms: C10_12  and  C11_13 
REMARK    4  A    between atoms: C18_22  and  N3_23 
REMARK    5  A    between atoms: C19_25  and  N5_26 
ROOT
HETATM    1  C1  UNL     1      20.795  -0.159  52.209  1.00  0.00     0.046 C 
HETATM    2  C2  UNL     1      21.893  -0.361  53.188  1.00  0.00    -0.051 A 
HETATM    3  C3  UNL     1      21.844  -0.793  54.437  1.00  0.00     0.006 A 
HETATM    4  C4  UNL     1      23.224  -0.786  54.905  1.00  0.00     0.010 A 
HETATM    5  C5  UNL     1      24.064  -0.358  53.952  1.00  0.00     0.005 A 
HETATM    6  C6  UNL     1      23.289  -0.029  52.724  1.00  0.00     0.183 A 
HETATM    7  O1  UNL     1      23.310   1.331  52.564  1.00  0.00    -0.371 OA
HETATM    8  C7  UNL     1      24.419   1.854  51.944  1.00  0.00     0.230 C 
HETATM    9  C8  UNL     1      25.715   1.536  52.556  1.00  0.00     0.085 A 
HETATM   10  C9  UNL     1      26.661   2.375  51.977  1.00  0.00     0.148 A 
HETATM   11  N2  UNL     1      27.935   2.307  52.381  1.00  0.00    -0.238 NA
HETATM   12  C17 UNL     1      28.393   1.460  53.333  1.00  0.00     0.169 A 
HETATM   13  C18 UNL     1      27.435   0.615  53.911  1.00  0.00     0.142 A 
HETATM   14  N4  UNL     1      26.151   0.699  53.491  1.00  0.00    -0.294 N 
HETATM   15  C19 UNL     1      25.489  -0.305  54.258  1.00  0.00     0.357 C 
ENDROOT
BRANCH  10  16
HETATM   16  N1  UNL     1      26.513   3.327  50.947  1.00  0.00    -0.369 N 
HETATM   17  H9  UNL     1      26.345   4.245  51.385  1.00  0.00     0.161 HD
BRANCH  16  18
HETATM   18  C10 UNL     1      26.496   3.488  49.519  1.00  0.00     0.163 C 
BRANCH  18  19
HETATM   19  C11 UNL     1      26.812   4.850  49.039  1.00  0.00    -0.002 A 
HETATM   20  C12 UNL     1      28.124   4.972  48.556  1.00  0.00     0.012 A 
HETATM   21  C13 UNL     1      28.659   6.127  48.030  1.00  0.00     0.001 A 
HETATM   22  C14 UNL     1      27.881   7.259  47.957  1.00  0.00     0.003 A 
HETATM   23  C15 UNL     1      26.592   7.186  48.419  1.00  0.00     0.043 A 
HETATM   24  C16 UNL     1      26.101   6.018  48.934  1.00  0.00     0.124 A 
HETATM   25  F1  UNL     1      24.843   5.937  49.417  1.00  0.00    -0.205 F 
ENDBRANCH  18  19
ENDBRANCH  16  18
ENDBRANCH  10  16
BRANCH  13  26
HETATM   26  N3  UNL     1      27.987  -0.112  54.787  1.00  0.00    -0.282 NA
HETATM   27  H17 UNL     1      27.587  -0.787  55.445  1.00  0.00     0.188 HD
ENDBRANCH  13  26
BRANCH  15  28
HETATM   28  N5  UNL     1      26.018  -1.643  53.909  1.00  0.00     0.106 N 
HETATM   29  H19 UNL     1      26.433  -1.517  52.944  1.00  0.00     0.316 HD
HETATM   30  H20 UNL     1      25.183  -2.256  53.766  1.00  0.00     0.316 HD
ENDBRANCH  15  28
TORSDOF 5
ENDMDL
MODEL 2
REMARK VINA RESULT:      -9.1      2.030      4.003
REMARK  5 active torsions:
REMARK  status: ('A' for Active; 'I' for Inactive)
REMARK    1  A    between atoms: C9_10  and  N1_11 
REMARK    2  A    between atoms: N1_11  and  C10_12 
REMARK    3  A    between atoms: C10_12  and  C11_13 
REMARK    4  A    between atoms: C18_22  and  N3_23 
REMARK    5  A    between atoms: C19_25  and  N5_26 
ROOT
HETATM    1  C1  UNL     1      29.871   0.221  53.463  1.00  0.00     0.046 C 
HETATM    2  C2  UNL     1      28.553  -0.432  53.254  1.00  0.00    -0.051 A 
HETATM    3  C3  UNL     1      28.260  -1.710  53.081  1.00  0.00     0.006 A 
HETATM    4  C4  UNL     1      26.813  -1.759  52.926  1.00  0.00     0.010 A 
HETATM    5  C5  UNL     1      26.268  -0.536  53.005  1.00  0.00     0.005 A 
HETATM    6  C6  UNL     1      27.344   0.469  53.226  1.00  0.00     0.183 A 
HETATM    7  O1  UNL     1      27.466   1.214  52.082  1.00  0.00    -0.371 OA
HETATM    8  C7  UNL     1      26.588   2.259  51.941  1.00  0.00     0.230 C 
HETATM    9  C8  UNL     1      25.161   1.922  52.008  1.00  0.00     0.085 A 
HETATM   10  C9  UNL     1      24.452   3.031  51.558  1.00  0.00     0.148 A 
HETATM   11  N2  UNL     1      23.117   2.977  51.494  1.00  0.00    -0.238 NA
HETATM   12  C17 UNL     1      22.376   1.900  51.845  1.00  0.00     0.169 A 
HETATM   13  C18 UNL     1      23.095   0.786  52.301  1.00  0.00     0.142 A 
HETATM   14  N4  UNL     1      24.445   0.858  52.358  1.00  0.00    -0.294 N 
HETATM   15  C19 UNL     1      24.820  -0.415  52.883  1.00  0.00     0.357 C 
ENDROOT
BRANCH  10  16
HETATM   16  N1  UNL     1      24.921   4.300  51.161  1.00  0.00    -0.369 N 
HETATM   17  H9  UNL     1      25.514   4.671  51.918  1.00  0.00     0.161 HD
BRANCH  16  18
HETATM   18  C10 UNL     1      24.866   5.271  50.101  1.00  0.00     0.163 C 
BRANCH  18  19
HETATM   19  C11 UNL     1      26.148   5.512  49.407  1.00  0.00    -0.002 A 
HETATM   20  C12 UNL     1      26.425   6.875  49.220  1.00  0.00     0.012 A 
HETATM   21  C13 UNL     1      27.565   7.367  48.624  1.00  0.00     0.001 A 
HETATM   22  C14 UNL     1      28.521   6.489  48.169  1.00  0.00     0.003 A 
HETATM   23  C15 UNL     1      28.292   5.146  48.330  1.00  0.00     0.043 A 
HETATM   24  C16 UNL     1      27.146   4.701  48.927  1.00  0.00     0.124 A 
HETATM   25  F1  UNL     1      26.894   3.382  49.070  1.00  0.00    -0.205 F 
ENDBRANCH  18  19
ENDBRANCH  16  18
ENDBRANCH  10  16
BRANCH  13  26
HETATM   26  N3  UNL     1      22.290  -0.150  52.583  1.00  0.00    -0.282 NA
HETATM   27  H17 UNL     1      21.305  -0.123  52.861  1.00  0.00     0.188 HD
ENDBRANCH  13  26
BRANCH  15  28
HETATM   28  N5  UNL     1      24.293  -0.571  54.257  1.00  0.00     0.106 N 
HETATM   29  H19 UNL     1      24.340   0.402  54.669  1.00  0.00     0.316 HD
HETATM   30  H20 UNL     1      25.011  -1.121  54.782  1.00  0.00     0.316 HD
ENDBRANCH  15  28
TORSDOF 5
ENDMDL
MODEL 3
REMARK VINA RESULT:      -9.1      3.190      7.607
REMARK  5 active torsions:
REMARK  status: ('A' for Active; 'I' for Inactive)
REMARK    1  A    between atoms: C9_10  and  N1_11 
REMARK    2  A    between atoms: N1_11  and  C10_12 
REMARK    3  A    between atoms: C10_12  and  C11_13 
REMARK    4  A    between atoms: C18_22  and  N3_23 
REMARK    5  A    between atoms: C19_25  and  N5_26 
ROOT
HETATM    1  C1  UNL     1      23.832   4.340  49.357  1.00  0.00     0.046 C 
HETATM    2  C2  UNL     1      24.893   3.596  50.084  1.00  0.00    -0.051 A 
HETATM    3  C3  UNL     1      26.179   3.471  49.806  1.00  0.00     0.006 A 
HETATM    4  C4  UNL     1      26.726   2.631  50.863  1.00  0.00     0.010 A 
HETATM    5  C5  UNL     1      25.780   2.270  51.743  1.00  0.00     0.005 A 
HETATM    6  C6  UNL     1      24.475   2.858  51.331  1.00  0.00     0.183 A 
HETATM    7  O1  UNL     1      23.669   1.837  50.902  1.00  0.00    -0.371 OA
HETATM    8  C7  UNL     1      22.993   1.145  51.876  1.00  0.00     0.230 C 
HETATM    9  C8  UNL     1      23.814   0.544  52.934  1.00  0.00     0.085 A 
HETATM   10  C9  UNL     1      23.000  -0.338  53.638  1.00  0.00     0.148 A 
HETATM   11  N2  UNL     1      23.517  -1.043  54.650  1.00  0.00    -0.238 NA
HETATM   12  C17 UNL     1      24.804  -0.965  55.061  1.00  0.00     0.169 A 
HETATM   13  C18 UNL     1      25.619  -0.073  54.350  1.00  0.00     0.142 A 
HETATM   14  N4  UNL     1      25.081   0.632  53.328  1.00  0.00    -0.294 N 
HETATM   15  C19 UNL     1      26.168   1.436  52.874  1.00  0.00     0.357 C 
ENDROOT
BRANCH  10  16
HETATM   16  N1  UNL     1      21.627  -0.615  53.484  1.00  0.00    -0.369 N 
HETATM   17  H9  UNL     1      21.291  -0.106  52.654  1.00  0.00     0.161 HD
BRANCH  16  18
HETATM   18  C10 UNL     1      20.522  -1.330  54.065  1.00  0.00     0.163 C 
BRANCH  18  19
HETATM   19  C11 UNL     1      19.230  -1.157  53.368  1.00  0.00    -0.002 A 
HETATM   20  C12 UNL     1      19.244  -0.106  52.437  1.00  0.00     0.012 A 
HETATM   21  C13 UNL     1      18.178   0.245  51.640  1.00  0.00     0.001 A 
HETATM   22  C14 UNL     1      17.001  -0.461  51.735  1.00  0.00     0.003 A 
HETATM   23  C15 UNL     1      16.942  -1.496  52.633  1.00  0.00     0.043 A 
HETATM   24  C16 UNL     1      18.025  -1.812  53.405  1.00  0.00     0.124 A 
HETATM   25  F1  UNL     1      17.975  -2.811  54.312  1.00  0.00    -0.205 F 
ENDBRANCH  18  19
ENDBRANCH  16  18
ENDBRANCH  10  16
BRANCH  13  26
HETATM   26  N3  UNL     1      26.793  -0.103  54.823  1.00  0.00    -0.282 NA
HETATM   27  H17 UNL     1      27.457  -0.877  54.915  1.00  0.00     0.188 HD
ENDBRANCH  13  26
BRANCH  15  28
HETATM   28  N5  UNL     1      26.581   2.379  53.937  1.00  0.00     0.106 N 
HETATM   29  H19 UNL     1      26.651   1.780  54.807  1.00  0.00     0.316 HD
HETATM   30  H20 UNL     1      25.759   3.003  54.105  1.00  0.00     0.316 HD
ENDBRANCH  15  28
TORSDOF 5
ENDMDL
MODEL 4
REMARK VINA RESULT:      -8.8      3.122      7.154
REMARK  5 active torsions:
REMARK  status: ('A' for Active; 'I' for Inactive)
REMARK    1  A    between atoms: C9_10  and  N1_11 
REMARK    2  A    between atoms: N1_11  and  C10_12 
REMARK    3  A    between atoms: C10_12  and  C11_13 
REMARK    4  A    between atoms: C18_22  and  N3_23 
REMARK    5  A    between atoms: C19_25  and  N5_26 
ROOT
HETATM    1  C1  UNL     1      28.001   4.821  48.546  1.00  0.00     0.046 C 
HETATM    2  C2  UNL     1      26.565   5.029  48.865  1.00  0.00    -0.051 A 
HETATM    3  C3  UNL     1      25.822   6.116  48.747  1.00  0.00     0.006 A 
HETATM    4  C4  UNL     1      24.495   5.731  49.209  1.00  0.00     0.010 A 
HETATM    5  C5  UNL     1      24.460   4.445  49.591  1.00  0.00     0.005 A 
HETATM    6  C6  UNL     1      25.810   3.842  49.412  1.00  0.00     0.183 A 
HETATM    7  O1  UNL     1      26.337   3.612  50.655  1.00  0.00    -0.371 OA
HETATM    8  C7  UNL     1      25.953   2.446  51.271  1.00  0.00     0.230 C 
HETATM    9  C8  UNL     1      24.509   2.247  51.442  1.00  0.00     0.085 A 
HETATM   10  C9  UNL     1      24.340   1.186  52.325  1.00  0.00     0.148 A 
HETATM   11  N2  UNL     1      23.104   0.812  52.674  1.00  0.00    -0.238 NA
HETATM   12  C17 UNL     1      21.970   1.397  52.222  1.00  0.00     0.169 A 
HETATM   13  C18 UNL     1      22.146   2.464  51.331  1.00  0.00     0.142 A 
HETATM   14  N4  UNL     1      23.403   2.829  50.989  1.00  0.00    -0.294 N 
HETATM   15  C19 UNL     1      23.196   3.899  50.067  1.00  0.00     0.357 C 
ENDROOT
BRANCH  10  16
HETATM   16  N1  UNL     1      25.304   0.357  52.934  1.00  0.00    -0.369 N 
HETATM   17  H9  UNL     1      25.678   0.855  53.755  1.00  0.00     0.161 HD
BRANCH  16  18
HETATM   18  C10 UNL     1      25.968  -0.914  52.824  1.00  0.00     0.163 C 
BRANCH  18  19
HETATM   19  C11 UNL     1      27.426  -0.881  53.063  1.00  0.00    -0.002 A 
HETATM   20  C12 UNL     1      27.902   0.401  53.381  1.00  0.00     0.012 A 
HETATM   21  C13 UNL     1      29.215   0.697  53.672  1.00  0.00     0.001 A 
HETATM   22  C14 UNL     1      30.153  -0.309  53.660  1.00  0.00     0.003 A 
HETATM   23  C15 UNL     1      29.732  -1.578  53.353  1.00  0.00     0.043 A 
HETATM   24  C16 UNL     1      28.418  -1.828  53.070  1.00  0.00     0.124 A 
HETATM   25  F1  UNL     1      27.993  -3.066  52.740  1.00  0.00    -0.205 F 
ENDBRANCH  18  19
ENDBRANCH  16  18
ENDBRANCH  10  16
BRANCH  13  26
HETATM   26  N3  UNL     1      21.016   2.926  50.996  1.00  0.00    -0.282 NA
HETATM   27  H17 UNL     1      20.490   2.838  50.122  1.00  0.00     0.188 HD
ENDBRANCH  13  26
BRANCH  15  28
HETATM   28  N5  UNL     1      22.500   3.399  48.860  1.00  0.00     0.106 N 
HETATM   29  H19 UNL     1      21.576   3.033  49.222  1.00  0.00     0.316 HD
HETATM   30  H20 UNL     1      23.026   2.549  48.554  1.00  0.00     0.316 HD
ENDBRANCH  15  28
TORSDOF 5
ENDMDL
MODEL 5
REMARK VINA RESULT:      -8.3      5.739      9.825
REMARK  5 active torsions:
REMARK  status: ('A' for Active; 'I' for Inactive)
REMARK    1  A    between atoms: C9_10  and  N1_11 
REMARK    2  A    between atoms: N1_11  and  C10_12 
REMARK    3  A    between atoms: C10_12  and  C11_13 
REMARK    4  A    between atoms: C18_22  and  N3_23 
REMARK    5  A    between atoms: C19_25  and  N5_26 
ROOT
HETATM    1  C1  UNL     1      32.651   1.780  47.140  1.00  0.00     0.046 C 
HETATM    2  C2  UNL     1      33.444   3.028  47.279  1.00  0.00    -0.051 A 
HETATM    3  C3  UNL     1      34.739   3.188  47.492  1.00  0.00     0.006 A 
HETATM    4  C4  UNL     1      34.951   4.628  47.536  1.00  0.00     0.010 A 
HETATM    5  C5  UNL     1      33.805   5.300  47.354  1.00  0.00     0.005 A 
HETATM    6  C6  UNL     1      32.690   4.330  47.168  1.00  0.00     0.183 A 
HETATM    7  O1  UNL     1      31.891   4.388  48.279  1.00  0.00    -0.371 OA
HETATM    8  C7  UNL     1      30.950   5.388  48.299  1.00  0.00     0.230 C 
HETATM    9  C8  UNL     1      31.455   6.757  48.138  1.00  0.00     0.085 A 
HETATM   10  C9  UNL     1      30.419   7.622  48.476  1.00  0.00     0.148 A 
HETATM   11  N2  UNL     1      30.626   8.943  48.437  1.00  0.00    -0.238 NA
HETATM   12  C17 UNL     1      31.795   9.525  48.084  1.00  0.00     0.169 A 
HETATM   13  C18 UNL     1      32.836   8.650  47.742  1.00  0.00     0.142 A 
HETATM   14  N4  UNL     1      32.608   7.316  47.787  1.00  0.00    -0.294 N 
HETATM   15  C19 UNL     1      33.849   6.757  47.356  1.00  0.00     0.357 C 
ENDROOT
BRANCH  10  16
HETATM   16  N1  UNL     1      29.088   7.334  48.844  1.00  0.00    -0.369 N 
HETATM   17  H9  UNL     1      29.075   7.137  49.856  1.00  0.00     0.161 HD
BRANCH  16  18
HETATM   18  C10 UNL     1      27.752   7.200  48.331  1.00  0.00     0.163 C 
BRANCH  18  19
HETATM   19  C11 UNL     1      26.965   6.096  48.919  1.00  0.00    -0.002 A 
HETATM   20  C12 UNL     1      25.841   6.541  49.634  1.00  0.00     0.012 A 
HETATM   21  C13 UNL     1      24.932   5.715  50.254  1.00  0.00     0.001 A 
HETATM   22  C14 UNL     1      25.105   4.351  50.189  1.00  0.00     0.003 A 
HETATM   23  C15 UNL     1      26.190   3.871  49.502  1.00  0.00     0.043 A 
HETATM   24  C16 UNL     1      27.069   4.729  48.900  1.00  0.00     0.124 A 
HETATM   25  F1  UNL     1      28.156   4.273  48.241  1.00  0.00    -0.205 F 
ENDBRANCH  18  19
ENDBRANCH  16  18
ENDBRANCH  10  16
BRANCH  13  26
HETATM   26  N3  UNL     1      33.869   9.317  47.445  1.00  0.00    -0.282 NA
HETATM   27  H17 UNL     1      34.794   9.012  47.128  1.00  0.00     0.188 HD
ENDBRANCH  13  26
BRANCH  15  28
HETATM   28  N5  UNL     1      34.121   7.147  45.955  1.00  0.00     0.106 N 
HETATM   29  H19 UNL     1      35.174   7.089  45.866  1.00  0.00     0.316 HD
HETATM   30  H20 UNL     1      33.902   8.168  45.891  1.00  0.00     0.316 HD
ENDBRANCH  15  28
TORSDOF 5
ENDMDL
MODEL 6
REMARK VINA RESULT:      -8.3      3.679      7.260
REMARK  5 active torsions:
REMARK  status: ('A' for Active; 'I' for Inactive)
REMARK    1  A    between atoms: C9_10  and  N1_11 
REMARK    2  A    between atoms: N1_11  and  C10_12 
REMARK    3  A    between atoms: C10_12  and  C11_13 
REMARK    4  A    between atoms: C18_22  and  N3_23 
REMARK    5  A    between atoms: C19_25  and  N5_26 
ROOT
HETATM    1  C1  UNL     1      25.351   6.723  50.023  1.00  0.00     0.046 C 
HETATM    2  C2  UNL     1      23.964   6.490  50.503  1.00  0.00    -0.051 A 
HETATM    3  C3  UNL     1      23.008   7.360  50.780  1.00  0.00     0.006 A 
HETATM    4  C4  UNL     1      21.867   6.561  51.207  1.00  0.00     0.010 A 
HETATM    5  C5  UNL     1      22.149   5.250  51.184  1.00  0.00     0.005 A 
HETATM    6  C6  UNL     1      23.552   5.056  50.723  1.00  0.00     0.183 A 
HETATM    7  O1  UNL     1      24.290   4.620  51.792  1.00  0.00    -0.371 OA
HETATM    8  C7  UNL     1      24.242   3.273  52.054  1.00  0.00     0.230 C 
HETATM    9  C8  UNL     1      22.909   2.700  52.272  1.00  0.00     0.085 A 
HETATM   10  C9  UNL     1      23.087   1.427  52.802  1.00  0.00     0.148 A 
HETATM   11  N2  UNL     1      22.016   0.691  53.119  1.00  0.00    -0.238 NA
HETATM   12  C17 UNL     1      20.734   1.094  52.958  1.00  0.00     0.169 A 
HETATM   13  C18 UNL     1      20.560   2.376  52.420  1.00  0.00     0.142 A 
HETATM   14  N4  UNL     1      21.654   3.108  52.107  1.00  0.00    -0.294 N 
HETATM   15  C19 UNL     1      21.103   4.310  51.571  1.00  0.00     0.357 C 
ENDROOT
BRANCH  10  16
HETATM   16  N1  UNL     1      24.277   0.713  53.052  1.00  0.00    -0.369 N 
HETATM   17  H9  UNL     1      25.065   1.274  52.696  1.00  0.00     0.161 HD
BRANCH  16  18
HETATM   18  C10 UNL     1      24.795  -0.509  53.605  1.00  0.00     0.163 C 
BRANCH  18  19
HETATM   19  C11 UNL     1      26.268  -0.622  53.603  1.00  0.00    -0.002 A 
HETATM   20  C12 UNL     1      26.885   0.211  54.550  1.00  0.00     0.012 A 
HETATM   21  C13 UNL     1      28.243   0.276  54.766  1.00  0.00     0.001 A 
HETATM   22  C14 UNL     1      29.085  -0.518  54.021  1.00  0.00     0.003 A 
HETATM   23  C15 UNL     1      28.526  -1.346  53.082  1.00  0.00     0.043 A 
HETATM   24  C16 UNL     1      27.171  -1.379  52.900  1.00  0.00     0.124 A 
HETATM   25  F1  UNL     1      26.607  -2.170  51.963  1.00  0.00    -0.205 F 
ENDBRANCH  18  19
ENDBRANCH  16  18
ENDBRANCH  10  16
BRANCH  13  26
HETATM   26  N3  UNL     1      19.323   2.633  52.332  1.00  0.00    -0.282 NA
HETATM   27  H17 UNL     1      18.818   3.287  51.728  1.00  0.00     0.188 HD
ENDBRANCH  13  26
BRANCH  15  28
HETATM   28  N5  UNL     1      20.355   4.016  50.329  1.00  0.00     0.106 N 
HETATM   29  H19 UNL     1      20.576   3.002  50.123  1.00  0.00     0.316 HD
HETATM   30  H20 UNL     1      20.831   4.555  49.570  1.00  0.00     0.316 HD
ENDBRANCH  15  28
TORSDOF 5
ENDMDL
MODEL 7
REMARK VINA RESULT:      -8.2      3.397      6.200
REMARK  5 active torsions:
REMARK  status: ('A' for Active; 'I' for Inactive)
REMARK    1  A    between atoms: C9_10  and  N1_11 
REMARK    2  A    between atoms: N1_11  and  C10_12 
REMARK    3  A    between atoms: C10_12  and  C11_13 
REMARK    4  A    between atoms: C18_22  and  N3_23 
REMARK    5  A    between atoms: C19_25  and  N5_26 
ROOT
HETATM    1  C1  UNL     1      18.308  -0.681  52.454  1.00  0.00     0.046 C 
HETATM    2  C2  UNL     1      18.879   0.233  51.432  1.00  0.00    -0.051 A 
HETATM    3  C3  UNL     1      18.407   0.575  50.245  1.00  0.00     0.006 A 
HETATM    4  C4  UNL     1      19.387   1.498  49.688  1.00  0.00     0.010 A 
HETATM    5  C5  UNL     1      20.413   1.693  50.529  1.00  0.00     0.005 A 
HETATM    6  C6  UNL     1      20.198   0.886  51.763  1.00  0.00     0.183 A 
HETATM    7  O1  UNL     1      21.119  -0.128  51.770  1.00  0.00    -0.371 OA
HETATM    8  C7  UNL     1      22.365   0.187  52.253  1.00  0.00     0.230 C 
HETATM    9  C8  UNL     1      23.054   1.303  51.595  1.00  0.00     0.085 A 
HETATM   10  C9  UNL     1      24.380   1.275  52.013  1.00  0.00     0.148 A 
HETATM   11  N2  UNL     1      25.240   2.182  51.535  1.00  0.00    -0.238 NA
HETATM   12  C17 UNL     1      24.915   3.157  50.654  1.00  0.00     0.169 A 
HETATM   13  C18 UNL     1      23.576   3.183  50.238  1.00  0.00     0.142 A 
HETATM   14  N4  UNL     1      22.721   2.257  50.731  1.00  0.00    -0.294 N 
HETATM   15  C19 UNL     1      21.476   2.604  50.125  1.00  0.00     0.357 C 
ENDROOT
BRANCH  10  16
HETATM   16  N1  UNL     1      25.016   0.422  52.938  1.00  0.00    -0.369 N 
HETATM   17  H9  UNL     1      24.965   0.866  53.867  1.00  0.00     0.161 HD
BRANCH  16  18
HETATM   18  C10 UNL     1      25.720  -0.826  53.063  1.00  0.00     0.163 C 
BRANCH  18  19
HETATM   19  C11 UNL     1      27.186  -0.704  53.210  1.00  0.00    -0.002 A 
HETATM   20  C12 UNL     1      27.599   0.595  53.543  1.00  0.00     0.012 A 
HETATM   21  C13 UNL     1      28.907   0.967  53.762  1.00  0.00     0.001 A 
HETATM   22  C14 UNL     1      29.904   0.025  53.655  1.00  0.00     0.003 A 
HETATM   23  C15 UNL     1      29.546  -1.258  53.329  1.00  0.00     0.043 A 
HETATM   24  C16 UNL     1      28.234  -1.585  53.121  1.00  0.00     0.124 A 
HETATM   25  F1  UNL     1      27.868  -2.837  52.774  1.00  0.00    -0.205 F 
ENDBRANCH  18  19
ENDBRANCH  16  18
ENDBRANCH  10  16
BRANCH  13  26
HETATM   26  N3  UNL     1      23.408   4.128  49.413  1.00  0.00    -0.282 NA
HETATM   27  H17 UNL     1      22.559   4.621  49.125  1.00  0.00     0.188 HD
ENDBRANCH  13  26
BRANCH  15  28
HETATM   28  N5  UNL     1      21.045   3.944  50.584  1.00  0.00     0.106 N 
HETATM   29  H19 UNL     1      21.927   4.528  50.555  1.00  0.00     0.316 HD
HETATM   30  H20 UNL     1      20.822   3.843  51.601  1.00  0.00     0.316 HD
ENDBRANCH  15  28
TORSDOF 5
ENDMDL
MODEL 8
REMARK VINA RESULT:      -8.1      1.847      2.479
REMARK  5 active torsions:
REMARK  status: ('A' for Active; 'I' for Inactive)
REMARK    1  A    between atoms: C9_10  and  N1_11 
REMARK    2  A    between atoms: N1_11  and  C10_12 
REMARK    3  A    between atoms: C10_12  and  C11_13 
REMARK    4  A    between atoms: C18_22  and  N3_23 
REMARK    5  A    between atoms: C19_25  and  N5_26 
ROOT
HETATM    1  C1  UNL     1      21.102  -1.199  53.232  1.00  0.00     0.046 C 
HETATM    2  C2  UNL     1      22.362  -1.087  54.011  1.00  0.00    -0.051 A 
HETATM    3  C3  UNL     1      22.604  -1.389  55.275  1.00  0.00     0.006 A 
HETATM    4  C4  UNL     1      24.011  -1.074  55.487  1.00  0.00     0.010 A 
HETATM    5  C5  UNL     1      24.582  -0.596  54.371  1.00  0.00     0.005 A 
HETATM    6  C6  UNL     1      23.568  -0.549  53.281  1.00  0.00     0.183 A 
HETATM    7  O1  UNL     1      23.286   0.767  53.025  1.00  0.00    -0.371 OA
HETATM    8  C7  UNL     1      24.150   1.420  52.181  1.00  0.00     0.230 C 
HETATM    9  C8  UNL     1      25.565   1.418  52.572  1.00  0.00     0.085 A 
HETATM   10  C9  UNL     1      26.215   2.354  51.775  1.00  0.00     0.148 A 
HETATM   11  N2  UNL     1      27.524   2.569  51.948  1.00  0.00    -0.238 NA
HETATM   12  C17 UNL     1      28.292   1.928  52.860  1.00  0.00     0.169 A 
HETATM   13  C18 UNL     1      27.632   0.983  53.659  1.00  0.00     0.142 A 
HETATM   14  N4  UNL     1      26.308   0.780  53.471  1.00  0.00    -0.294 N 
HETATM   15  C19 UNL     1      25.996  -0.246  54.413  1.00  0.00     0.357 C 
ENDROOT
BRANCH  10  16
HETATM   16  N1  UNL     1      25.713   3.149  50.725  1.00  0.00    -0.369 N 
HETATM   17  H9  UNL     1      25.675   2.566  49.876  1.00  0.00     0.161 HD
BRANCH  16  18
HETATM   18  C10 UNL     1      25.250   4.470  50.397  1.00  0.00     0.163 C 
BRANCH  18  19
HETATM   19  C11 UNL     1      24.227   4.528  49.331  1.00  0.00    -0.002 A 
HETATM   20  C12 UNL     1      23.659   3.276  49.046  1.00  0.00     0.012 A 
HETATM   21  C13 UNL     1      22.668   3.062  48.114  1.00  0.00     0.001 A 
HETATM   22  C14 UNL     1      22.176   4.127  47.395  1.00  0.00     0.003 A 
HETATM   23  C15 UNL     1      22.704   5.369  47.639  1.00  0.00     0.043 A 
HETATM   24  C16 UNL     1      23.687   5.537  48.574  1.00  0.00     0.124 A 
HETATM   25  F1  UNL     1      24.235   6.748  48.809  1.00  0.00    -0.205 F 
ENDBRANCH  18  19
ENDBRANCH  16  18
ENDBRANCH  10  16
BRANCH  13  26
HETATM   26  N3  UNL     1      28.455   0.468  54.471  1.00  0.00    -0.282 NA
HETATM   27  H17 UNL     1      29.442   0.678  54.647  1.00  0.00     0.188 HD
ENDBRANCH  13  26
BRANCH  15  28
HETATM   28  N5  UNL     1      26.723  -1.489  54.070  1.00  0.00     0.106 N 
HETATM   29  H19 UNL     1      26.990  -1.903  55.006  1.00  0.00     0.316 HD
HETATM   30  H20 UNL     1      27.627  -1.186  53.641  1.00  0.00     0.316 HD
ENDBRANCH  15  28
TORSDOF 5
ENDMDL
MODEL 9
REMARK VINA RESULT:      -7.8      2.995      7.892
REMARK  5 active torsions:
REMARK  status: ('A' for Active; 'I' for Inactive)
REMARK    1  A    between atoms: C9_10  and  N1_11 
REMARK    2  A    between atoms: N1_11  and  C10_12 
REMARK    3  A    between atoms: C10_12  and  C11_13 
REMARK    4  A    between atoms: C18_22  and  N3_23 
REMARK    5  A    between atoms: C19_25  and  N5_26 
ROOT
HETATM    1  C1  UNL     1      21.066   8.559  49.551  1.00  0.00     0.046 C 
HETATM    2  C2  UNL     1      22.383   8.127  49.018  1.00  0.00    -0.051 A 
HETATM    3  C3  UNL     1      23.045   8.550  47.954  1.00  0.00     0.006 A 
HETATM    4  C4  UNL     1      24.275   7.770  47.925  1.00  0.00     0.010 A 
HETATM    5  C5  UNL     1      24.334   6.906  48.950  1.00  0.00     0.005 A 
HETATM    6  C6  UNL     1      23.103   7.041  49.778  1.00  0.00     0.183 A 
HETATM    7  O1  UNL     1      22.351   5.909  49.602  1.00  0.00    -0.371 OA
HETATM    8  C7  UNL     1      22.693   4.827  50.375  1.00  0.00     0.230 C 
HETATM    9  C8  UNL     1      24.082   4.365  50.267  1.00  0.00     0.085 A 
HETATM   10  C9  UNL     1      24.151   3.117  50.878  1.00  0.00     0.148 A 
HETATM   11  N2  UNL     1      25.314   2.457  50.896  1.00  0.00    -0.238 NA
HETATM   12  C17 UNL     1      26.466   2.919  50.356  1.00  0.00     0.169 A 
HETATM   13  C18 UNL     1      26.392   4.178  49.744  1.00  0.00     0.142 A 
HETATM   14  N4  UNL     1      25.207   4.831  49.734  1.00  0.00    -0.294 N 
HETATM   15  C19 UNL     1      25.513   6.058  49.073  1.00  0.00     0.357 C 
ENDROOT
BRANCH  10  16
HETATM   16  N1  UNL     1      23.152   2.388  51.555  1.00  0.00    -0.369 N 
HETATM   17  H9  UNL     1      22.744   3.002  52.276  1.00  0.00     0.161 HD
BRANCH  16  18
HETATM   18  C10 UNL     1      22.505   1.105  51.623  1.00  0.00     0.163 C 
BRANCH  18  19
HETATM   19  C11 UNL     1      22.793   0.324  52.844  1.00  0.00    -0.002 A 
HETATM   20  C12 UNL     1      21.656   0.102  53.637  1.00  0.00     0.012 A 
HETATM   21  C13 UNL     1      21.650  -0.618  54.810  1.00  0.00     0.001 A 
HETATM   22  C14 UNL     1      22.822  -1.174  55.267  1.00  0.00     0.003 A 
HETATM   23  C15 UNL     1      23.959  -0.982  54.525  1.00  0.00     0.043 A 
HETATM   24  C16 UNL     1      23.920  -0.259  53.365  1.00  0.00     0.124 A 
HETATM   25  F1  UNL     1      25.036  -0.039  52.636  1.00  0.00    -0.205 F 
ENDBRANCH  18  19
ENDBRANCH  16  18
ENDBRANCH  10  16
BRANCH  13  26
HETATM   26  N3  UNL     1      27.525   4.487  49.273  1.00  0.00    -0.282 NA
HETATM   27  H17 UNL     1      27.895   5.387  48.955  1.00  0.00     0.188 HD
ENDBRANCH  13  26
BRANCH  15  28
HETATM   28  N5  UNL     1      26.480   6.839  49.876  1.00  0.00     0.106 N 
HETATM   29  H19 UNL     1      27.339   6.905  49.260  1.00  0.00     0.316 HD
HETATM   30  H20 UNL     1      26.764   6.220  50.669  1.00  0.00     0.316 HD
ENDBRANCH  15  28
TORSDOF 5
ENDMDL
