MODEL 1
REMARK VINA RESULT:      -8.2      0.000      0.000
REMARK  4 active torsions:
REMARK  status: ('A' for Active; 'I' for Inactive)
REMARK       I    between atoms: N1_1  and  C1_2 
REMARK       I    between atoms: C1_2  and  N2_4 
REMARK    1  A    between atoms: N2_4  and  C2_5 
REMARK    2  A    between atoms: C7_12  and  C8_13 
REMARK    3  A    between atoms: C15_22  and  C16_23 
REMARK    4  A    between atoms: C17_24  and  C18_25 
ROOT
HETATM    1  C2  UNL     1      23.130   3.959  52.660  1.00  0.00     0.037 A 
HETATM    2  C3  UNL     1      24.406   3.623  53.120  1.00  0.00     0.032 A 
HETATM    3  C4  UNL     1      24.692   2.292  53.389  1.00  0.00     0.035 A 
HETATM    4  C5  UNL     1      23.786   1.271  53.229  1.00  0.00     0.070 A 
HETATM    5  N3  UNL     1      24.073  -0.019  53.491  1.00  0.00    -0.241 NA
HETATM    6  C6  UNL     1      23.068  -0.909  53.279  1.00  0.00     0.234 A 
HETATM    7  N4  UNL     1      21.845  -0.566  52.835  1.00  0.00    -0.245 NA
HETATM    8  C7  UNL     1      21.521   0.729  52.561  1.00  0.00     0.060 A 
HETATM    9  C19 UNL     1      22.538   1.633  52.774  1.00  0.00     0.021 A 
HETATM   10  C20 UNL     1      22.217   2.938  52.498  1.00  0.00     0.045 A 
ENDROOT
BRANCH   8  11
HETATM   11  C8  UNL     1      20.153   0.953  52.094  1.00  0.00     0.095 C 
HETATM   12  C9  UNL     1      19.381  -0.284  52.513  1.00  0.00     0.010 C 
HETATM   13  C10 UNL     1      18.104  -0.654  52.660  1.00  0.00     0.033 C 
HETATM   14 CL1  UNL     1      17.902  -2.323  53.208  1.00  0.00    -0.087 Cl
HETATM   15  C11 UNL     1      16.815   0.041  52.461  1.00  0.00     0.225 C 
HETATM   16  O2  UNL     1      16.730   0.699  51.234  1.00  0.00    -0.358 OA
HETATM   17  C12 UNL     1      17.452   0.912  50.059  1.00  0.00     0.135 C 
HETATM   18  C13 UNL     1      18.758   1.021  49.869  1.00  0.00     0.032 C 
HETATM   19  C14 UNL     1      20.037   0.997  50.595  1.00  0.00    -0.043 C 
HETATM   20  C15 UNL     1      21.136   1.021  49.876  1.00  0.00     0.008 C 
BRANCH  20  21
HETATM   21  C16 UNL     1      21.489   1.064  48.462  1.00  0.00    -0.001 C 
HETATM   22  C17 UNL     1      22.248   1.969  47.916  1.00  0.00     0.004 C 
BRANCH  22  23
HETATM   23  C18 UNL     1      22.909   3.115  48.537  1.00  0.00     0.249 C 
HETATM   24  F1  UNL     1      23.922   2.696  49.410  1.00  0.00    -0.251 F 
ENDBRANCH  22  23
ENDBRANCH  20  21
ENDBRANCH   8  11
BRANCH   1  25
HETATM   25  N2  UNL     1      22.904   5.342  52.404  1.00  0.00    -0.309 N 
HETATM   26  C1  UNL     1      23.689   5.959  51.391  1.00  0.00     0.318 C 
HETATM   27  N1  UNL     1      23.426   7.333  51.176  1.00  0.00    -0.352 N 
HETATM   28  O1  UNL     1      24.565   5.443  50.684  1.00  0.00    -0.247 OA
HETATM   29  H1  UNL     1      22.746   7.725  50.492  1.00  0.00     0.160 HD
HETATM   30  H2  UNL     1      23.241   8.349  51.026  1.00  0.00     0.160 HD
HETATM   31  H3  UNL     1      22.183   5.859  52.953  1.00  0.00     0.170 HD
ENDBRANCH   1  25
TORSDOF 4
ENDMDL
MODEL 2
REMARK VINA RESULT:      -7.7      3.475      5.677
REMARK  4 active torsions:
REMARK  status: ('A' for Active; 'I' for Inactive)
REMARK       I    between atoms: N1_1  and  C1_2 
REMARK       I    between atoms: C1_2  and  N2_4 
REMARK    1  A    between atoms: N2_4  and  C2_5 
REMARK    2  A    between atoms: C7_12  and  C8_13 
REMARK    3  A    between atoms: C15_22  and  C16_23 
REMARK    4  A    between atoms: C17_24  and  C18_25 
ROOT
HETATM    1  C2  UNL     1      25.218  -0.775  54.108  1.00  0.00     0.037 A 
HETATM    2  C3  UNL     1      24.633  -1.366  55.232  1.00  0.00     0.032 A 
HETATM    3  C4  UNL     1      23.281  -1.163  55.468  1.00  0.00     0.035 A 
HETATM    4  C5  UNL     1      22.471  -0.407  54.654  1.00  0.00     0.070 A 
HETATM    5  N3  UNL     1      21.158  -0.218  54.889  1.00  0.00    -0.241 NA
HETATM    6  C6  UNL     1      20.495   0.555  53.988  1.00  0.00     0.234 A 
HETATM    7  N4  UNL     1      21.076   1.115  52.911  1.00  0.00    -0.245 NA
HETATM    8  C7  UNL     1      22.401   0.944  52.644  1.00  0.00     0.060 A 
HETATM    9  C19 UNL     1      23.075   0.161  53.555  1.00  0.00     0.021 A 
HETATM   10  C20 UNL     1      24.410  -0.017  53.288  1.00  0.00     0.045 A 
ENDROOT
BRANCH   8  11
HETATM   11  C8  UNL     1      22.896   1.618  51.444  1.00  0.00     0.095 C 
HETATM   12  C9  UNL     1      23.147   3.053  51.867  1.00  0.00     0.010 C 
HETATM   13  C10 UNL     1      23.813   4.120  51.412  1.00  0.00     0.033 C 
HETATM   14 CL1  UNL     1      23.677   5.544  52.452  1.00  0.00    -0.087 Cl
HETATM   15  C11 UNL     1      24.646   4.364  50.216  1.00  0.00     0.225 C 
HETATM   16  O2  UNL     1      24.044   3.939  49.032  1.00  0.00    -0.358 OA
HETATM   17  C12 UNL     1      22.862   3.372  48.552  1.00  0.00     0.135 C 
HETATM   18  C13 UNL     1      22.046   2.496  49.118  1.00  0.00     0.032 C 
HETATM   19  C14 UNL     1      21.870   1.708  50.347  1.00  0.00    -0.043 C 
HETATM   20  C15 UNL     1      20.744   1.044  50.478  1.00  0.00     0.008 C 
BRANCH  20  21
HETATM   21  C16 UNL     1      19.523   0.845  49.706  1.00  0.00    -0.001 C 
HETATM   22  C17 UNL     1      18.366   0.542  50.218  1.00  0.00     0.004 C 
BRANCH  22  23
HETATM   23  C18 UNL     1      18.003   0.332  51.619  1.00  0.00     0.249 C 
HETATM   24  F1  UNL     1      18.318  -0.971  52.027  1.00  0.00    -0.251 F 
ENDBRANCH  22  23
ENDBRANCH  20  21
ENDBRANCH   8  11
BRANCH   1  25
HETATM   25  N2  UNL     1      26.608  -1.024  53.926  1.00  0.00    -0.309 N 
HETATM   26  C1  UNL     1      27.521  -0.057  54.431  1.00  0.00     0.318 C 
HETATM   27  N1  UNL     1      28.890  -0.351  54.225  1.00  0.00    -0.352 N 
HETATM   28  O1  UNL     1      27.262   1.000  55.023  1.00  0.00    -0.247 OA
HETATM   29  H1  UNL     1      29.510  -0.865  54.883  1.00  0.00     0.160 HD
HETATM   30  H2  UNL     1      29.898  -0.562  54.061  1.00  0.00     0.160 HD
HETATM   31  H3  UNL     1      26.919  -1.892  53.437  1.00  0.00     0.170 HD
ENDBRANCH   1  25
TORSDOF 4
ENDMDL
MODEL 3
REMARK VINA RESULT:      -7.4      3.764      5.916
REMARK  4 active torsions:
REMARK  status: ('A' for Active; 'I' for Inactive)
REMARK       I    between atoms: N1_1  and  C1_2 
REMARK       I    between atoms: C1_2  and  N2_4 
REMARK    1  A    between atoms: N2_4  and  C2_5 
REMARK    2  A    between atoms: C7_12  and  C8_13 
REMARK    3  A    between atoms: C15_22  and  C16_23 
REMARK    4  A    between atoms: C17_24  and  C18_25 
ROOT
HETATM    1  C2  UNL     1      24.619   0.659  52.820  1.00  0.00     0.037 A 
HETATM    2  C3  UNL     1      23.729  -0.202  53.469  1.00  0.00     0.032 A 
HETATM    3  C4  UNL     1      22.387   0.144  53.530  1.00  0.00     0.035 A 
HETATM    4  C5  UNL     1      21.872   1.297  52.985  1.00  0.00     0.070 A 
HETATM    5  N3  UNL     1      20.566   1.624  53.048  1.00  0.00    -0.241 NA
HETATM    6  C6  UNL     1      20.217   2.797  52.458  1.00  0.00     0.234 A 
HETATM    7  N4  UNL     1      21.089   3.613  51.837  1.00  0.00    -0.245 NA
HETATM    8  C7  UNL     1      22.415   3.312  51.756  1.00  0.00     0.060 A 
HETATM    9  C19 UNL     1      22.773   2.124  52.353  1.00  0.00     0.021 A 
HETATM   10  C20 UNL     1      24.108   1.815  52.272  1.00  0.00     0.045 A 
ENDROOT
BRANCH   8  11
HETATM   11  C8  UNL     1      23.244   4.296  51.059  1.00  0.00     0.095 C 
HETATM   12  C9  UNL     1      22.456   5.591  51.111  1.00  0.00     0.010 C 
HETATM   13  C10 UNL     1      22.681   6.897  50.932  1.00  0.00     0.033 C 
HETATM   14 CL1  UNL     1      21.247   7.907  51.158  1.00  0.00    -0.087 Cl
HETATM   15  C11 UNL     1      23.883   7.683  50.585  1.00  0.00     0.225 C 
HETATM   16  O2  UNL     1      24.574   7.173  49.486  1.00  0.00    -0.358 OA
HETATM   17  C12 UNL     1      24.507   6.156  48.532  1.00  0.00     0.135 C 
HETATM   18  C13 UNL     1      24.037   4.921  48.634  1.00  0.00     0.032 C 
HETATM   19  C14 UNL     1      23.413   3.998  49.594  1.00  0.00    -0.043 C 
HETATM   20  C15 UNL     1      22.987   2.847  49.129  1.00  0.00     0.008 C 
BRANCH  20  21
HETATM   21  C16 UNL     1      22.943   2.163  47.842  1.00  0.00    -0.001 C 
HETATM   22  C17 UNL     1      22.187   2.514  46.843  1.00  0.00     0.004 C 
BRANCH  22  23
HETATM   23  C18 UNL     1      21.238   3.622  46.749  1.00  0.00     0.249 C 
HETATM   24  F1  UNL     1      21.808   4.715  46.085  1.00  0.00    -0.251 F 
ENDBRANCH  22  23
ENDBRANCH  20  21
ENDBRANCH   8  11
BRANCH   1  25
HETATM   25  N2  UNL     1      25.981   0.243  52.794  1.00  0.00    -0.309 N 
HETATM   26  C1  UNL     1      26.819   0.670  53.861  1.00  0.00     0.318 C 
HETATM   27  N1  UNL     1      28.163   0.230  53.788  1.00  0.00    -0.352 N 
HETATM   28  O1  UNL     1      26.516   1.373  54.834  1.00  0.00    -0.247 OA
HETATM   29  H1  UNL     1      28.544  -0.641  54.212  1.00  0.00     0.160 HD
HETATM   30  H2  UNL     1      29.155  -0.084  53.727  1.00  0.00     0.160 HD
HETATM   31  H3  UNL     1      26.325  -0.353  52.009  1.00  0.00     0.170 HD
ENDBRANCH   1  25
TORSDOF 4
ENDMDL
MODEL 4
REMARK VINA RESULT:      -7.3      4.138      6.142
REMARK  4 active torsions:
REMARK  status: ('A' for Active; 'I' for Inactive)
REMARK       I    between atoms: N1_1  and  C1_2 
REMARK       I    between atoms: C1_2  and  N2_4 
REMARK    1  A    between atoms: N2_4  and  C2_5 
REMARK    2  A    between atoms: C7_12  and  C8_13 
REMARK    3  A    between atoms: C15_22  and  C16_23 
REMARK    4  A    between atoms: C17_24  and  C18_25 
ROOT
HETATM    1  C2  UNL     1      23.922   6.708  51.213  1.00  0.00     0.037 A 
HETATM    2  C3  UNL     1      22.744   7.332  50.793  1.00  0.00     0.032 A 
HETATM    3  C4  UNL     1      21.557   6.615  50.829  1.00  0.00     0.035 A 
HETATM    4  C5  UNL     1      21.467   5.312  51.257  1.00  0.00     0.070 A 
HETATM    5  N3  UNL     1      20.309   4.624  51.291  1.00  0.00    -0.241 NA
HETATM    6  C6  UNL     1      20.388   3.344  51.743  1.00  0.00     0.234 A 
HETATM    7  N4  UNL     1      21.533   2.761  52.143  1.00  0.00    -0.245 NA
HETATM    8  C7  UNL     1      22.721   3.428  52.122  1.00  0.00     0.060 A 
HETATM    9  C19 UNL     1      22.644   4.725  51.665  1.00  0.00     0.021 A 
HETATM   10  C20 UNL     1      23.837   5.401  51.643  1.00  0.00     0.045 A 
ENDROOT
BRANCH   8  11
HETATM   11  C8  UNL     1      23.883   2.664  52.578  1.00  0.00     0.095 C 
HETATM   12  C9  UNL     1      24.902   2.785  51.461  1.00  0.00     0.010 C 
HETATM   13  C10 UNL     1      26.215   2.590  51.290  1.00  0.00     0.033 C 
HETATM   14 CL1  UNL     1      26.782   2.939  49.652  1.00  0.00    -0.087 Cl
HETATM   15  C11 UNL     1      27.301   2.142  52.187  1.00  0.00     0.225 C 
HETATM   16  O2  UNL     1      26.981   0.987  52.901  1.00  0.00    -0.358 OA
HETATM   17  C12 UNL     1      25.966   0.041  53.047  1.00  0.00     0.135 C 
HETATM   18  C13 UNL     1      24.652   0.181  52.958  1.00  0.00     0.032 C 
HETATM   19  C14 UNL     1      23.612   1.190  52.702  1.00  0.00    -0.043 C 
HETATM   20  C15 UNL     1      22.376   0.761  52.584  1.00  0.00     0.008 C 
BRANCH  20  21
HETATM   21  C16 UNL     1      21.678  -0.519  52.630  1.00  0.00    -0.001 C 
HETATM   22  C17 UNL     1      21.438  -1.191  53.718  1.00  0.00     0.004 C 
BRANCH  22  23
HETATM   23  C18 UNL     1      21.782  -0.863  55.100  1.00  0.00     0.249 C 
HETATM   24  F1  UNL     1      22.846  -1.654  55.553  1.00  0.00    -0.251 F 
ENDBRANCH  22  23
ENDBRANCH  20  21
ENDBRANCH   8  11
BRANCH   1  25
HETATM   25  N2  UNL     1      25.104   7.501  51.150  1.00  0.00    -0.309 N 
HETATM   26  C1  UNL     1      25.969   7.303  50.038  1.00  0.00     0.318 C 
HETATM   27  N1  UNL     1      27.129   8.115  50.023  1.00  0.00    -0.352 N 
HETATM   28  O1  UNL     1      25.830   6.514  49.094  1.00  0.00    -0.247 OA
HETATM   29  H1  UNL     1      27.217   9.046  49.566  1.00  0.00     0.160 HD
HETATM   30  H2  UNL     1      27.989   8.704  50.019  1.00  0.00     0.160 HD
HETATM   31  H3  UNL     1      25.303   8.194  51.904  1.00  0.00     0.170 HD
ENDBRANCH   1  25
TORSDOF 4
ENDMDL
MODEL 5
REMARK VINA RESULT:      -7.1      9.461     12.819
REMARK  4 active torsions:
REMARK  status: ('A' for Active; 'I' for Inactive)
REMARK       I    between atoms: N1_1  and  C1_2 
REMARK       I    between atoms: C1_2  and  N2_4 
REMARK    1  A    between atoms: N2_4  and  C2_5 
REMARK    2  A    between atoms: C7_12  and  C8_13 
REMARK    3  A    between atoms: C15_22  and  C16_23 
REMARK    4  A    between atoms: C17_24  and  C18_25 
ROOT
HETATM    1  C2  UNL     1      33.087   6.143  47.148  1.00  0.00     0.037 A 
HETATM    2  C3  UNL     1      33.846   6.325  45.988  1.00  0.00     0.032 A 
HETATM    3  C4  UNL     1      33.347   7.141  44.983  1.00  0.00     0.035 A 
HETATM    4  C5  UNL     1      32.137   7.789  45.058  1.00  0.00     0.070 A 
HETATM    5  N3  UNL     1      31.662   8.581  44.077  1.00  0.00    -0.241 NA
HETATM    6  C6  UNL     1      30.449   9.151  44.306  1.00  0.00     0.234 A 
HETATM    7  N4  UNL     1      29.733   8.963  45.430  1.00  0.00    -0.245 NA
HETATM    8  C7  UNL     1      30.185   8.169  46.441  1.00  0.00     0.060 A 
HETATM    9  C19 UNL     1      31.413   7.590  46.212  1.00  0.00     0.021 A 
HETATM   10  C20 UNL     1      31.873   6.791  47.228  1.00  0.00     0.045 A 
ENDROOT
BRANCH   8  11
HETATM   11  C8  UNL     1      29.297   8.053  47.597  1.00  0.00     0.095 C 
HETATM   12  C9  UNL     1      27.892   8.135  47.031  1.00  0.00     0.010 C 
HETATM   13  C10 UNL     1      26.645   7.851  47.425  1.00  0.00     0.033 C 
HETATM   14 CL1  UNL     1      25.412   8.209  46.209  1.00  0.00    -0.087 Cl
HETATM   15  C11 UNL     1      26.074   7.296  48.670  1.00  0.00     0.225 C 
HETATM   16  O2  UNL     1      26.546   7.930  49.820  1.00  0.00    -0.358 OA
HETATM   17  C12 UNL     1      27.378   8.974  50.226  1.00  0.00     0.135 C 
HETATM   18  C13 UNL     1      28.495   9.435  49.682  1.00  0.00     0.032 C 
HETATM   19  C14 UNL     1      29.404   9.214  48.548  1.00  0.00    -0.043 C 
HETATM   20  C15 UNL     1      30.366  10.090  48.370  1.00  0.00     0.008 C 
BRANCH  20  21
HETATM   21  C16 UNL     1      30.832  11.313  49.014  1.00  0.00    -0.001 C 
HETATM   22  C17 UNL     1      30.239  12.468  48.923  1.00  0.00     0.004 C 
BRANCH  22  23
HETATM   23  C18 UNL     1      29.023  12.826  48.196  1.00  0.00     0.249 C 
HETATM   24  F1  UNL     1      28.020  13.252  49.077  1.00  0.00    -0.251 F 
ENDBRANCH  22  23
ENDBRANCH  20  21
ENDBRANCH   8  11
BRANCH   1  25
HETATM   25  N2  UNL     1      33.658   5.294  48.139  1.00  0.00    -0.309 N 
HETATM   26  C1  UNL     1      34.835   5.750  48.796  1.00  0.00     0.318 C 
HETATM   27  N1  UNL     1      35.363   4.870  49.771  1.00  0.00    -0.352 N 
HETATM   28  O1  UNL     1      35.446   6.812  48.616  1.00  0.00    -0.247 OA
HETATM   29  H1  UNL     1      35.135   4.876  50.786  1.00  0.00     0.160 HD
HETATM   30  H2  UNL     1      35.758   4.215  50.481  1.00  0.00     0.160 HD
HETATM   31  H3  UNL     1      33.209   4.378  48.357  1.00  0.00     0.170 HD
ENDBRANCH   1  25
TORSDOF 4
ENDMDL
MODEL 6
REMARK VINA RESULT:      -7.0      2.479      3.105
REMARK  4 active torsions:
REMARK  status: ('A' for Active; 'I' for Inactive)
REMARK       I    between atoms: N1_1  and  C1_2 
REMARK       I    between atoms: C1_2  and  N2_4 
REMARK    1  A    between atoms: N2_4  and  C2_5 
REMARK    2  A    between atoms: C7_12  and  C8_13 
REMARK    3  A    between atoms: C15_22  and  C16_23 
REMARK    4  A    between atoms: C17_24  and  C18_25 
ROOT
HETATM    1  C2  UNL     1      23.728   1.531  52.999  1.00  0.00     0.037 A 
HETATM    2  C3  UNL     1      24.086   0.349  53.655  1.00  0.00     0.032 A 
HETATM    3  C4  UNL     1      23.105  -0.598  53.911  1.00  0.00     0.035 A 
HETATM    4  C5  UNL     1      21.786  -0.444  53.554  1.00  0.00     0.070 A 
HETATM    5  N3  UNL     1      20.841  -1.372  53.805  1.00  0.00    -0.241 NA
HETATM    6  C6  UNL     1      19.583  -1.069  53.387  1.00  0.00     0.234 A 
HETATM    7  N4  UNL     1      19.258   0.075  52.756  1.00  0.00    -0.245 NA
HETATM    8  C7  UNL     1      20.189   1.032  52.487  1.00  0.00     0.060 A 
HETATM    9  C19 UNL     1      21.464   0.729  52.910  1.00  0.00     0.021 A 
HETATM   10  C20 UNL     1      22.406   1.690  52.639  1.00  0.00     0.045 A 
ENDROOT
BRANCH   8  11
HETATM   11  C8  UNL     1      19.689   2.226  51.804  1.00  0.00     0.095 C 
HETATM   12  C9  UNL     1      18.178   2.105  51.846  1.00  0.00     0.010 C 
HETATM   13  C10 UNL     1      17.114   2.898  51.673  1.00  0.00     0.033 C 
HETATM   14 CL1  UNL     1      15.565   2.071  51.880  1.00  0.00    -0.087 Cl
HETATM   15  C11 UNL     1      16.957   4.331  51.345  1.00  0.00     0.225 C 
HETATM   16  O2  UNL     1      17.730   4.731  50.255  1.00  0.00    -0.358 OA
HETATM   17  C12 UNL     1      18.612   4.226  49.299  1.00  0.00     0.135 C 
HETATM   18  C13 UNL     1      19.501   3.248  49.392  1.00  0.00     0.032 C 
HETATM   19  C14 UNL     1      20.038   2.262  50.342  1.00  0.00    -0.043 C 
HETATM   20  C15 UNL     1      20.876   1.368  49.868  1.00  0.00     0.008 C 
BRANCH  20  21
HETATM   21  C16 UNL     1      21.474   1.038  48.580  1.00  0.00    -0.001 C 
HETATM   22  C17 UNL     1      22.403   1.736  47.995  1.00  0.00     0.004 C 
BRANCH  22  23
HETATM   23  C18 UNL     1      23.057   2.963  48.447  1.00  0.00     0.249 C 
HETATM   24  F1  UNL     1      23.911   2.707  49.528  1.00  0.00    -0.251 F 
ENDBRANCH  22  23
ENDBRANCH  20  21
ENDBRANCH   8  11
BRANCH   1  25
HETATM   25  N2  UNL     1      24.782   2.460  52.768  1.00  0.00    -0.309 N 
HETATM   26  C1  UNL     1      25.896   2.013  52.005  1.00  0.00     0.318 C 
HETATM   27  N1  UNL     1      26.917   2.973  51.804  1.00  0.00    -0.352 N 
HETATM   28  O1  UNL     1      26.077   0.896  51.501  1.00  0.00    -0.247 OA
HETATM   29  H1  UNL     1      26.988   3.629  51.000  1.00  0.00     0.160 HD
HETATM   30  H2  UNL     1      27.674   3.677  51.668  1.00  0.00     0.160 HD
HETATM   31  H3  UNL     1      24.715   3.426  53.156  1.00  0.00     0.170 HD
ENDBRANCH   1  25
TORSDOF 4
ENDMDL
MODEL 7
REMARK VINA RESULT:      -6.9      3.164      5.514
REMARK  4 active torsions:
REMARK  status: ('A' for Active; 'I' for Inactive)
REMARK       I    between atoms: N1_1  and  C1_2 
REMARK       I    between atoms: C1_2  and  N2_4 
REMARK    1  A    between atoms: N2_4  and  C2_5 
REMARK    2  A    between atoms: C7_12  and  C8_13 
REMARK    3  A    between atoms: C15_22  and  C16_23 
REMARK    4  A    between atoms: C17_24  and  C18_25 
ROOT
HETATM    1  C2  UNL     1      23.922   0.062  53.425  1.00  0.00     0.037 A 
HETATM    2  C3  UNL     1      25.229  -0.432  53.443  1.00  0.00     0.032 A 
HETATM    3  C4  UNL     1      26.193   0.193  52.665  1.00  0.00     0.035 A 
HETATM    4  C5  UNL     1      25.937   1.282  51.866  1.00  0.00     0.070 A 
HETATM    5  N3  UNL     1      26.880   1.885  51.115  1.00  0.00    -0.241 NA
HETATM    6  C6  UNL     1      26.466   2.952  50.382  1.00  0.00     0.234 A 
HETATM    7  N4  UNL     1      25.202   3.414  50.378  1.00  0.00    -0.245 NA
HETATM    8  C7  UNL     1      24.225   2.828  51.125  1.00  0.00     0.060 A 
HETATM    9  C19 UNL     1      24.641   1.747  51.869  1.00  0.00     0.021 A 
HETATM   10  C20 UNL     1      23.661   1.155  52.626  1.00  0.00     0.045 A 
ENDROOT
BRANCH   8  11
HETATM   11  C8  UNL     1      22.897   3.433  51.015  1.00  0.00     0.095 C 
HETATM   12  C9  UNL     1      22.367   2.987  49.665  1.00  0.00     0.010 C 
HETATM   13  C10 UNL     1      21.190   2.926  49.032  1.00  0.00     0.033 C 
HETATM   14 CL1  UNL     1      21.293   2.266  47.395  1.00  0.00    -0.087 Cl
HETATM   15  C11 UNL     1      19.811   3.295  49.414  1.00  0.00     0.225 C 
HETATM   16  O2  UNL     1      19.717   4.573  49.964  1.00  0.00    -0.358 OA
HETATM   17  C12 UNL     1      20.496   5.692  50.261  1.00  0.00     0.135 C 
HETATM   18  C13 UNL     1      21.761   5.772  50.644  1.00  0.00     0.032 C 
HETATM   19  C14 UNL     1      22.933   4.935  50.945  1.00  0.00    -0.043 C 
HETATM   20  C15 UNL     1      24.070   5.552  51.168  1.00  0.00     0.008 C 
BRANCH  20  21
HETATM   21  C16 UNL     1      24.552   6.928  51.205  1.00  0.00    -0.001 C 
HETATM   22  C17 UNL     1      25.465   7.413  50.415  1.00  0.00     0.004 C 
BRANCH  22  23
HETATM   23  C18 UNL     1      26.207   6.749  49.345  1.00  0.00     0.249 C 
HETATM   24  F1  UNL     1      25.333   6.149  48.428  1.00  0.00    -0.251 F 
ENDBRANCH  22  23
ENDBRANCH  20  21
ENDBRANCH   8  11
BRANCH   1  25
HETATM   25  N2  UNL     1      22.984  -0.626  54.247  1.00  0.00    -0.309 N 
HETATM   26  C1  UNL     1      21.660  -0.776  53.749  1.00  0.00     0.318 C 
HETATM   27  N1  UNL     1      20.767  -1.467  54.603  1.00  0.00    -0.352 N 
HETATM   28  O1  UNL     1      21.201  -0.378  52.670  1.00  0.00    -0.247 OA
HETATM   29  H1  UNL     1      20.584  -2.491  54.595  1.00  0.00     0.160 HD
HETATM   30  H2  UNL     1      20.107  -1.964  55.239  1.00  0.00     0.160 HD
HETATM   31  H3  UNL     1      23.284  -0.997  55.175  1.00  0.00     0.170 HD
ENDBRANCH   1  25
TORSDOF 4
ENDMDL
MODEL 8
REMARK VINA RESULT:      -6.9     26.168     28.335
REMARK  4 active torsions:
REMARK  status: ('A' for Active; 'I' for Inactive)
REMARK       I    between atoms: N1_1  and  C1_2 
REMARK       I    between atoms: C1_2  and  N2_4 
REMARK    1  A    between atoms: N2_4  and  C2_5 
REMARK    2  A    between atoms: C7_12  and  C8_13 
REMARK    3  A    between atoms: C15_22  and  C16_23 
REMARK    4  A    between atoms: C17_24  and  C18_25 
ROOT
HETATM    1  C2  UNL     1      44.670   5.124  68.079  1.00  0.00     0.037 A 
HETATM    2  C3  UNL     1      44.251   6.356  68.589  1.00  0.00     0.032 A 
HETATM    3  C4  UNL     1      43.140   6.395  69.419  1.00  0.00     0.035 A 
HETATM    4  C5  UNL     1      42.416   5.281  69.775  1.00  0.00     0.070 A 
HETATM    5  N3  UNL     1      41.340   5.328  70.584  1.00  0.00    -0.241 NA
HETATM    6  C6  UNL     1      40.735   4.138  70.841  1.00  0.00     0.234 A 
HETATM    7  N4  UNL     1      41.154   2.961  70.340  1.00  0.00    -0.245 NA
HETATM    8  C7  UNL     1      42.238   2.878  69.520  1.00  0.00     0.060 A 
HETATM    9  C19 UNL     1      42.853   4.082  69.257  1.00  0.00     0.021 A 
HETATM   10  C20 UNL     1      43.948   4.004  68.433  1.00  0.00     0.045 A 
ENDROOT
BRANCH   8  11
HETATM   11  C8  UNL     1      42.572   1.535  69.046  1.00  0.00     0.095 C 
HETATM   12  C9  UNL     1      41.238   0.874  68.751  1.00  0.00     0.010 C 
HETATM   13  C10 UNL     1      40.785  -0.187  68.075  1.00  0.00     0.033 C 
HETATM   14 CL1  UNL     1      39.030  -0.385  68.148  1.00  0.00    -0.087 Cl
HETATM   15  C11 UNL     1      41.445  -1.239  67.272  1.00  0.00     0.225 C 
HETATM   16  O2  UNL     1      42.536  -1.819  67.919  1.00  0.00    -0.358 OA
HETATM   17  C12 UNL     1      43.235  -1.780  69.127  1.00  0.00     0.135 C 
HETATM   18  C13 UNL     1      43.468  -0.765  69.945  1.00  0.00     0.032 C 
HETATM   19  C14 UNL     1      43.210   0.674  70.102  1.00  0.00    -0.043 C 
HETATM   20  C15 UNL     1      43.568   1.228  71.238  1.00  0.00     0.008 C 
BRANCH  20  21
HETATM   21  C16 UNL     1      44.191   0.802  72.486  1.00  0.00    -0.001 C 
HETATM   22  C17 UNL     1      45.464   0.576  72.638  1.00  0.00     0.004 C 
BRANCH  22  23
HETATM   23  C18 UNL     1      46.543   0.682  71.657  1.00  0.00     0.249 C 
HETATM   24  F1  UNL     1      46.716  -0.527  70.971  1.00  0.00    -0.251 F 
ENDBRANCH  22  23
ENDBRANCH  20  21
ENDBRANCH   8  11
BRANCH   1  25
HETATM   25  N2  UNL     1      45.816   5.156  67.234  1.00  0.00    -0.309 N 
HETATM   26  C1  UNL     1      45.597   5.186  65.829  1.00  0.00     0.318 C 
HETATM   27  N1  UNL     1      46.767   5.218  65.034  1.00  0.00    -0.352 N 
HETATM   28  O1  UNL     1      44.515   5.187  65.226  1.00  0.00    -0.247 OA
HETATM   29  H1  UNL     1      47.250   6.073  64.692  1.00  0.00     0.160 HD
HETATM   30  H2  UNL     1      47.631   5.228  64.449  1.00  0.00     0.160 HD
HETATM   31  H3  UNL     1      46.771   5.158  67.656  1.00  0.00     0.170 HD
ENDBRANCH   1  25
TORSDOF 4
ENDMDL
MODEL 9
REMARK VINA RESULT:      -6.9     15.755     18.440
REMARK  4 active torsions:
REMARK  status: ('A' for Active; 'I' for Inactive)
REMARK       I    between atoms: N1_1  and  C1_2 
REMARK       I    between atoms: C1_2  and  N2_4 
REMARK    1  A    between atoms: N2_4  and  C2_5 
REMARK    2  A    between atoms: C7_12  and  C8_13 
REMARK    3  A    between atoms: C15_22  and  C16_23 
REMARK    4  A    between atoms: C17_24  and  C18_25 
ROOT
HETATM    1  C2  UNL     1      31.855  -8.525  64.181  1.00  0.00     0.037 A 
HETATM    2  C3  UNL     1      32.036  -9.678  64.950  1.00  0.00     0.032 A 
HETATM    3  C4  UNL     1      31.282  -9.839  66.104  1.00  0.00     0.035 A 
HETATM    4  C5  UNL     1      30.357  -8.922  66.543  1.00  0.00     0.070 A 
HETATM    5  N3  UNL     1      29.627  -9.088  67.663  1.00  0.00    -0.241 NA
HETATM    6  C6  UNL     1      28.753  -8.090  67.959  1.00  0.00     0.234 A 
HETATM    7  N4  UNL     1      28.593  -6.986  67.206  1.00  0.00    -0.245 NA
HETATM    8  C7  UNL     1      29.314  -6.788  66.067  1.00  0.00     0.060 A 
HETATM    9  C19 UNL     1      30.201  -7.797  65.764  1.00  0.00     0.021 A 
HETATM   10  C20 UNL     1      30.928  -7.603  64.617  1.00  0.00     0.045 A 
ENDROOT
BRANCH   8  11
HETATM   11  C8  UNL     1      29.040  -5.539  65.355  1.00  0.00     0.095 C 
HETATM   12  C9  UNL     1      28.436  -4.613  66.393  1.00  0.00     0.010 C 
HETATM   13  C10 UNL     1      28.200  -3.304  66.537  1.00  0.00     0.033 C 
HETATM   14 CL1  UNL     1      27.429  -2.881  68.072  1.00  0.00    -0.087 Cl
HETATM   15  C11 UNL     1      28.449  -2.126  65.680  1.00  0.00     0.225 C 
HETATM   16  O2  UNL     1      28.013  -2.301  64.367  1.00  0.00    -0.358 OA
HETATM   17  C12 UNL     1      27.363  -3.224  63.548  1.00  0.00     0.135 C 
HETATM   18  C13 UNL     1      27.389  -4.548  63.567  1.00  0.00     0.032 C 
HETATM   19  C14 UNL     1      27.982  -5.681  64.294  1.00  0.00    -0.043 C 
HETATM   20  C15 UNL     1      27.555  -6.883  63.983  1.00  0.00     0.008 C 
BRANCH  20  21
HETATM   21  C16 UNL     1      26.590  -7.471  63.062  1.00  0.00    -0.001 C 
HETATM   22  C17 UNL     1      26.299  -8.738  63.003  1.00  0.00     0.004 C 
BRANCH  22  23
HETATM   23  C18 UNL     1      26.831  -9.844  63.798  1.00  0.00     0.249 C 
HETATM   24  F1  UNL     1      28.226  -9.917  63.684  1.00  0.00    -0.251 F 
ENDBRANCH  22  23
ENDBRANCH  20  21
ENDBRANCH   8  11
BRANCH   1  25
HETATM   25  N2  UNL     1      32.661  -8.424  63.011  1.00  0.00    -0.309 N 
HETATM   26  C1  UNL     1      33.991  -7.946  63.168  1.00  0.00     0.318 C 
HETATM   27  N1  UNL     1      34.750  -7.864  61.976  1.00  0.00    -0.352 N 
HETATM   28  O1  UNL     1      34.558  -7.596  64.213  1.00  0.00    -0.247 OA
HETATM   29  H1  UNL     1      35.364  -8.610  61.591  1.00  0.00     0.160 HD
HETATM   30  H2  UNL     1      35.304  -7.791  61.095  1.00  0.00     0.160 HD
HETATM   31  H3  UNL     1      32.265  -8.697  62.085  1.00  0.00     0.170 HD
ENDBRANCH   1  25
TORSDOF 4
ENDMDL
