MODEL 1
REMARK VINA RESULT:      -8.6      0.000      0.000
REMARK  4 active torsions:
REMARK  status: ('A' for Active; 'I' for Inactive)
REMARK    1  A    between atoms: C2_2  and  C3_3 
REMARK    2  A    between atoms: C9_9  and  C10_10 
REMARK    3  A    between atoms: C14_14  and  C15_15 
REMARK    4  A    between atoms: C21_23  and  N2_24 
ROOT
HETATM    1  C10 UNL     1      23.935   0.610  52.347  1.00  0.00    -0.045 A 
HETATM    2  C11 UNL     1      22.793   0.977  51.789  1.00  0.00    -0.028 A 
HETATM    3  C12 UNL     1      22.584   2.007  50.769  1.00  0.00     0.051 C 
HETATM    4  C13 UNL     1      21.809   0.152  52.468  1.00  0.00     0.072 A 
HETATM    5  C14 UNL     1      20.541   0.210  52.115  1.00  0.00     0.113 A 
HETATM    6  N1  UNL     1      19.458  -0.532  52.690  1.00  0.00    -0.060 NA
HETATM    7  C21 UNL     1      19.473  -1.408  53.653  1.00  0.00     0.722 A 
HETATM    8  N3  UNL     1      20.551  -1.896  54.428  1.00  0.00    -0.058 NA
HETATM    9  C22 UNL     1      21.809  -1.622  54.371  1.00  0.00     0.230 A 
HETATM   10  N4  UNL     1      22.371  -0.710  53.445  1.00  0.00    -0.335 N 
HETATM   11  C23 UNL     1      23.798  -0.486  53.341  1.00  0.00     0.165 A 
ENDROOT
BRANCH   1  12
HETATM   12  C9  UNL     1      25.271   1.178  52.045  1.00  0.00     0.047 C 
HETATM   13  C3  UNL     1      25.831   2.006  53.176  1.00  0.00     0.027 C 
HETATM   14  C4  UNL     1      26.355   1.122  54.250  1.00  0.00    -0.066 A 
HETATM   15  C5  UNL     1      26.959   0.261  55.122  1.00  0.00    -0.010 A 
HETATM   16  C6  UNL     1      27.541   0.332  53.859  1.00  0.00     0.060 A 
HETATM   17  C7  UNL     1      27.182  -0.414  52.641  1.00  0.00    -0.017 C 
HETATM   18  C8  UNL     1      26.169  -0.020  51.849  1.00  0.00    -0.020 C 
BRANCH  13  19
HETATM   19  C2  UNL     1      24.883   2.982  53.719  1.00  0.00    -0.019 C 
HETATM   20  C1  UNL     1      24.293   4.021  53.082  1.00  0.00     0.029 C 
ENDBRANCH  13  19
ENDBRANCH   1  12
BRANCH   5  21
HETATM   21  C15 UNL     1      19.934   1.022  51.072  1.00  0.00    -0.003 A 
HETATM   22  C16 UNL     1      20.101   1.107  49.677  1.00  0.00     0.014 A 
HETATM   23  C17 UNL     1      19.380   1.998  48.920  1.00  0.00     0.002 A 
HETATM   24  C18 UNL     1      18.461   2.852  49.487  1.00  0.00     0.019 A 
HETATM   25  C19 UNL     1      18.249   2.819  50.848  1.00  0.00     0.011 A 
HETATM   26 BR1  UNL     1      16.978   4.006  51.595  1.00  0.00    -0.051 Br
HETATM   27  C20 UNL     1      18.985   1.910  51.616  1.00  0.00     0.033 A 
ENDBRANCH   5  21
BRANCH   7  28
HETATM   28  N2  UNL     1      18.264  -2.037  54.076  1.00  0.00    -0.231 N 
HETATM   29  H17 UNL     1      17.680  -1.685  54.851  1.00  0.00     0.174 HD
HETATM   30  H18 UNL     1      18.373  -2.785  53.339  1.00  0.00     0.174 HD
ENDBRANCH   7  28
TORSDOF 4
ENDMDL
MODEL 2
REMARK VINA RESULT:      -8.5      3.290      6.710
REMARK  4 active torsions:
REMARK  status: ('A' for Active; 'I' for Inactive)
REMARK    1  A    between atoms: C2_2  and  C3_3 
REMARK    2  A    between atoms: C9_9  and  C10_10 
REMARK    3  A    between atoms: C14_14  and  C15_15 
REMARK    4  A    between atoms: C21_23  and  N2_24 
ROOT
HETATM    1  C10 UNL     1      24.080   2.716  51.159  1.00  0.00    -0.045 A 
HETATM    2  C11 UNL     1      24.967   1.840  51.602  1.00  0.00    -0.028 A 
HETATM    3  C12 UNL     1      26.367   1.700  51.199  1.00  0.00     0.051 C 
HETATM    4  C13 UNL     1      24.200   1.034  52.536  1.00  0.00     0.072 A 
HETATM    5  C14 UNL     1      24.792   0.080  53.226  1.00  0.00     0.113 A 
HETATM    6  N1  UNL     1      24.175  -0.799  54.176  1.00  0.00    -0.060 NA
HETATM    7  C21 UNL     1      22.935  -0.855  54.568  1.00  0.00     0.722 A 
HETATM    8  N3  UNL     1      21.819  -0.076  54.184  1.00  0.00    -0.058 NA
HETATM    9  C22 UNL     1      21.736   0.913  53.362  1.00  0.00     0.230 A 
HETATM   10  N4  UNL     1      22.842   1.429  52.644  1.00  0.00    -0.335 N 
HETATM   11  C23 UNL     1      22.742   2.597  51.794  1.00  0.00     0.165 A 
ENDROOT
BRANCH   1  12
HETATM   12  C9  UNL     1      24.329   3.763  50.139  1.00  0.00     0.047 C 
HETATM   13  C3  UNL     1      23.307   3.763  49.029  1.00  0.00     0.027 C 
HETATM   14  C4  UNL     1      22.043   4.396  49.493  1.00  0.00    -0.066 A 
HETATM   15  C5  UNL     1      20.974   5.125  49.927  1.00  0.00    -0.010 A 
HETATM   16  C6  UNL     1      22.159   5.841  49.776  1.00  0.00     0.060 A 
HETATM   17  C7  UNL     1      23.259   6.006  50.740  1.00  0.00    -0.017 C 
HETATM   18  C8  UNL     1      24.213   5.070  50.885  1.00  0.00    -0.020 C 
BRANCH  13  19
HETATM   19  C2  UNL     1      23.049   2.437  48.463  1.00  0.00    -0.019 C 
HETATM   20  C1  UNL     1      21.855   1.853  48.204  1.00  0.00     0.029 C 
ENDBRANCH  13  19
ENDBRANCH   1  12
BRANCH   5  21
HETATM   21  C15 UNL     1      26.194  -0.310  53.202  1.00  0.00    -0.003 A 
HETATM   22  C16 UNL     1      26.891  -1.424  52.697  1.00  0.00     0.014 A 
HETATM   23  C17 UNL     1      28.253  -1.538  52.829  1.00  0.00     0.002 A 
HETATM   24  C18 UNL     1      29.003  -0.572  53.461  1.00  0.00     0.019 A 
HETATM   25  C19 UNL     1      28.381   0.543  53.978  1.00  0.00     0.011 A 
HETATM   26 BR1  UNL     1      29.442   1.852  54.841  1.00  0.00    -0.051 Br
HETATM   27  C20 UNL     1      26.994   0.657  53.842  1.00  0.00     0.033 A 
ENDBRANCH   5  21
BRANCH   7  28
HETATM   28  N2  UNL     1      22.527  -1.821  55.536  1.00  0.00    -0.231 N 
HETATM   29  H17 UNL     1      22.431  -1.612  56.543  1.00  0.00     0.174 HD
HETATM   30  H18 UNL     1      22.438  -2.562  54.789  1.00  0.00     0.174 HD
ENDBRANCH   7  28
TORSDOF 4
ENDMDL
MODEL 3
REMARK VINA RESULT:      -8.0      2.853      4.467
REMARK  4 active torsions:
REMARK  status: ('A' for Active; 'I' for Inactive)
REMARK    1  A    between atoms: C2_2  and  C3_3 
REMARK    2  A    between atoms: C9_9  and  C10_10 
REMARK    3  A    between atoms: C14_14  and  C15_15 
REMARK    4  A    between atoms: C21_23  and  N2_24 
ROOT
HETATM    1  C10 UNL     1      22.879   2.027  52.095  1.00  0.00    -0.045 A 
HETATM    2  C11 UNL     1      21.579   2.139  51.878  1.00  0.00    -0.028 A 
HETATM    3  C12 UNL     1      20.490   1.939  52.836  1.00  0.00     0.051 C 
HETATM    4  C13 UNL     1      21.503   2.454  50.463  1.00  0.00     0.072 A 
HETATM    5  C14 UNL     1      20.336   2.698  49.902  1.00  0.00     0.113 A 
HETATM    6  N1  UNL     1      20.098   3.015  48.524  1.00  0.00    -0.060 NA
HETATM    7  C21 UNL     1      20.946   3.138  47.544  1.00  0.00     0.722 A 
HETATM    8  N3  UNL     1      22.353   2.996  47.530  1.00  0.00    -0.058 NA
HETATM    9  C22 UNL     1      23.174   2.733  48.488  1.00  0.00     0.230 A 
HETATM   10  N4  UNL     1      22.771   2.522  49.829  1.00  0.00    -0.335 N 
HETATM   11  C23 UNL     1      23.718   2.315  50.904  1.00  0.00     0.165 A 
ENDROOT
BRANCH   1  12
HETATM   12  C9  UNL     1      23.516   1.670  53.386  1.00  0.00     0.047 C 
HETATM   13  C3  UNL     1      23.937   0.222  53.457  1.00  0.00     0.027 C 
HETATM   14  C4  UNL     1      25.189   0.011  52.683  1.00  0.00    -0.066 A 
HETATM   15  C5  UNL     1      26.416  -0.084  52.093  1.00  0.00    -0.010 A 
HETATM   16  C6  UNL     1      26.374   0.681  53.255  1.00  0.00     0.060 A 
HETATM   17  C7  UNL     1      26.036   2.108  53.401  1.00  0.00    -0.017 C 
HETATM   18  C8  UNL     1      24.758   2.524  53.457  1.00  0.00    -0.020 C 
BRANCH  13  19
HETATM   19  C2  UNL     1      22.896  -0.717  53.033  1.00  0.00    -0.019 C 
HETATM   20  C1  UNL     1      21.940  -1.308  53.789  1.00  0.00     0.029 C 
ENDBRANCH  13  19
ENDBRANCH   1  12
BRANCH   5  21
HETATM   21  C15 UNL     1      19.022   2.712  50.527  1.00  0.00    -0.003 A 
HETATM   22  C16 UNL     1      18.278   3.686  51.218  1.00  0.00     0.014 A 
HETATM   23  C17 UNL     1      17.031   3.412  51.724  1.00  0.00     0.002 A 
HETATM   24  C18 UNL     1      16.448   2.173  51.582  1.00  0.00     0.019 A 
HETATM   25  C19 UNL     1      17.124   1.175  50.916  1.00  0.00     0.011 A 
HETATM   26 BR1  UNL     1      16.294  -0.517  50.738  1.00  0.00    -0.051 Br
HETATM   27  C20 UNL     1      18.394   1.457  50.401  1.00  0.00     0.033 A 
ENDBRANCH   5  21
BRANCH   7  28
HETATM   28  N2  UNL     1      20.491   3.464  46.232  1.00  0.00    -0.231 N 
HETATM   29  H17 UNL     1      19.887   4.275  46.024  1.00  0.00     0.174 HD
HETATM   30  H18 UNL     1      21.003   2.633  45.827  1.00  0.00     0.174 HD
ENDBRANCH   7  28
TORSDOF 4
ENDMDL
MODEL 4
REMARK VINA RESULT:      -7.6      3.448      6.783
REMARK  4 active torsions:
REMARK  status: ('A' for Active; 'I' for Inactive)
REMARK    1  A    between atoms: C2_2  and  C3_3 
REMARK    2  A    between atoms: C9_9  and  C10_10 
REMARK    3  A    between atoms: C14_14  and  C15_15 
REMARK    4  A    between atoms: C21_23  and  N2_24 
ROOT
HETATM    1  C10 UNL     1      22.815   3.931  50.647  1.00  0.00    -0.045 A 
HETATM    2  C11 UNL     1      23.686   3.179  51.302  1.00  0.00    -0.028 A 
HETATM    3  C12 UNL     1      25.146   3.198  51.195  1.00  0.00     0.051 C 
HETATM    4  C13 UNL     1      22.840   2.311  52.103  1.00  0.00     0.072 A 
HETATM    5  C14 UNL     1      23.383   1.454  52.943  1.00  0.00     0.113 A 
HETATM    6  N1  UNL     1      22.687   0.531  53.793  1.00  0.00    -0.060 NA
HETATM    7  C21 UNL     1      21.408   0.336  53.931  1.00  0.00     0.722 A 
HETATM    8  N3  UNL     1      20.313   0.965  53.293  1.00  0.00    -0.058 NA
HETATM    9  C22 UNL     1      20.289   1.915  52.423  1.00  0.00     0.230 A 
HETATM   10  N4  UNL     1      21.453   2.543  51.916  1.00  0.00    -0.335 N 
HETATM   11  C23 UNL     1      21.398   3.668  51.006  1.00  0.00     0.165 A 
ENDROOT
BRANCH   1  12
HETATM   12  C9  UNL     1      23.149   4.973  49.647  1.00  0.00     0.047 C 
HETATM   13  C3  UNL     1      22.117   5.094  48.552  1.00  0.00     0.027 C 
HETATM   14  C4  UNL     1      20.924   5.830  49.048  1.00  0.00    -0.066 A 
HETATM   15  C5  UNL     1      19.933   6.646  49.513  1.00  0.00    -0.010 A 
HETATM   16  C6  UNL     1      21.177   7.252  49.361  1.00  0.00     0.060 A 
HETATM   17  C7  UNL     1      22.300   7.292  50.313  1.00  0.00    -0.017 C 
HETATM   18  C8  UNL     1      23.164   6.268  50.423  1.00  0.00    -0.020 C 
BRANCH  13  19
HETATM   19  C2  UNL     1      21.730   3.811  47.961  1.00  0.00    -0.019 C 
HETATM   20  C1  UNL     1      21.946   3.369  46.698  1.00  0.00     0.029 C 
ENDBRANCH  13  19
ENDBRANCH   1  12
BRANCH   5  21
HETATM   21  C15 UNL     1      24.794   1.235  53.220  1.00  0.00    -0.003 A 
HETATM   22  C16 UNL     1      25.811   2.019  53.796  1.00  0.00     0.014 A 
HETATM   23  C17 UNL     1      27.094   1.548  53.927  1.00  0.00     0.002 A 
HETATM   24  C18 UNL     1      27.450   0.288  53.502  1.00  0.00     0.019 A 
HETATM   25  C19 UNL     1      26.501  -0.531  52.929  1.00  0.00     0.011 A 
HETATM   26 BR1  UNL     1      27.023  -2.258  52.356  1.00  0.00    -0.051 Br
HETATM   27  C20 UNL     1      25.195  -0.048  52.797  1.00  0.00     0.033 A 
ENDBRANCH   5  21
BRANCH   7  28
HETATM   28  N2  UNL     1      20.921  -0.645  54.845  1.00  0.00    -0.231 N 
HETATM   29  H17 UNL     1      21.477  -1.014  55.634  1.00  0.00     0.174 HD
HETATM   30  H18 UNL     1      19.996  -0.688  54.338  1.00  0.00     0.174 HD
ENDBRANCH   7  28
TORSDOF 4
ENDMDL
MODEL 5
REMARK VINA RESULT:      -7.5     11.171     13.983
REMARK  4 active torsions:
REMARK  status: ('A' for Active; 'I' for Inactive)
REMARK    1  A    between atoms: C2_2  and  C3_3 
REMARK    2  A    between atoms: C9_9  and  C10_10 
REMARK    3  A    between atoms: C14_14  and  C15_15 
REMARK    4  A    between atoms: C21_23  and  N2_24 
ROOT
HETATM    1  C10 UNL     1      29.879   7.400  47.326  1.00  0.00    -0.045 A 
HETATM    2  C11 UNL     1      30.919   6.585  47.394  1.00  0.00    -0.028 A 
HETATM    3  C12 UNL     1      31.281   5.684  48.489  1.00  0.00     0.051 C 
HETATM    4  C13 UNL     1      31.627   6.843  46.152  1.00  0.00     0.072 A 
HETATM    5  C14 UNL     1      32.705   6.149  45.850  1.00  0.00     0.113 A 
HETATM    6  N1  UNL     1      33.512   6.290  44.673  1.00  0.00    -0.060 NA
HETATM    7  C21 UNL     1      33.371   7.100  43.664  1.00  0.00     0.722 A 
HETATM    8  N3  UNL     1      32.389   8.087  43.416  1.00  0.00    -0.058 NA
HETATM    9  C22 UNL     1      31.359   8.431  44.109  1.00  0.00     0.230 A 
HETATM   10  N4  UNL     1      31.006   7.828  45.341  1.00  0.00    -0.335 N 
HETATM   11  C23 UNL     1      29.795   8.169  46.057  1.00  0.00     0.165 A 
ENDROOT
BRANCH   1  12
HETATM   12  C9  UNL     1      28.840   7.570  48.369  1.00  0.00     0.047 C 
HETATM   13  C3  UNL     1      28.811   8.961  48.956  1.00  0.00     0.027 C 
HETATM   14  C4  UNL     1      28.144   9.901  48.017  1.00  0.00    -0.066 A 
HETATM   15  C5  UNL     1      27.385  10.675  47.187  1.00  0.00    -0.010 A 
HETATM   16  C6  UNL     1      26.702   9.643  47.824  1.00  0.00     0.060 A 
HETATM   17  C7  UNL     1      26.567   8.238  47.404  1.00  0.00    -0.017 C 
HETATM   18  C8  UNL     1      27.530   7.333  47.657  1.00  0.00    -0.020 C 
BRANCH  13  19
HETATM   19  C2  UNL     1      30.130   9.463  49.349  1.00  0.00    -0.019 C 
HETATM   20  C1  UNL     1      30.638  10.707  49.180  1.00  0.00     0.029 C 
ENDBRANCH  13  19
ENDBRANCH   1  12
BRANCH   5  21
HETATM   21  C15 UNL     1      33.333   5.082  46.615  1.00  0.00    -0.003 A 
HETATM   22  C16 UNL     1      34.430   5.025  47.494  1.00  0.00     0.014 A 
HETATM   23  C17 UNL     1      34.817   3.847  48.085  1.00  0.00     0.002 A 
HETATM   24  C18 UNL     1      34.152   2.665  47.845  1.00  0.00     0.019 A 
HETATM   25  C19 UNL     1      33.069   2.653  46.994  1.00  0.00     0.011 A 
HETATM   26 BR1  UNL     1      32.177   1.011  46.686  1.00  0.00    -0.051 Br
HETATM   27  C20 UNL     1      32.678   3.855  46.394  1.00  0.00     0.033 A 
ENDBRANCH   5  21
BRANCH   7  28
HETATM   28  N2  UNL     1      34.299   7.074  42.581  1.00  0.00    -0.231 N 
HETATM   29  H17 UNL     1      34.530   7.902  42.010  1.00  0.00     0.174 HD
HETATM   30  H18 UNL     1      34.483   6.046  42.738  1.00  0.00     0.174 HD
ENDBRANCH   7  28
TORSDOF 4
ENDMDL
MODEL 6
REMARK VINA RESULT:      -7.5     12.865     15.106
REMARK  4 active torsions:
REMARK  status: ('A' for Active; 'I' for Inactive)
REMARK    1  A    between atoms: C2_2  and  C3_3 
REMARK    2  A    between atoms: C9_9  and  C10_10 
REMARK    3  A    between atoms: C14_14  and  C15_15 
REMARK    4  A    between atoms: C21_23  and  N2_24 
ROOT
HETATM    1  C10 UNL     1      33.074   5.950  43.141  1.00  0.00    -0.045 A 
HETATM    2  C11 UNL     1      32.614   6.423  44.288  1.00  0.00    -0.028 A 
HETATM    3  C12 UNL     1      31.663   7.518  44.489  1.00  0.00     0.051 C 
HETATM    4  C13 UNL     1      33.317   5.630  45.282  1.00  0.00     0.072 A 
HETATM    5  C14 UNL     1      33.055   5.793  46.563  1.00  0.00     0.113 A 
HETATM    6  N1  UNL     1      33.664   5.095  47.657  1.00  0.00    -0.060 NA
HETATM    7  C21 UNL     1      34.579   4.170  47.641  1.00  0.00     0.722 A 
HETATM    8  N3  UNL     1      35.254   3.569  46.553  1.00  0.00    -0.058 NA
HETATM    9  C22 UNL     1      35.125   3.760  45.285  1.00  0.00     0.230 A 
HETATM   10  N4  UNL     1      34.209   4.681  44.721  1.00  0.00    -0.335 N 
HETATM   11  C23 UNL     1      34.020   4.814  43.291  1.00  0.00     0.165 A 
ENDROOT
BRANCH   1  12
HETATM   12  C9  UNL     1      32.710   6.442  41.791  1.00  0.00     0.047 C 
HETATM   13  C3  UNL     1      33.795   7.276  41.153  1.00  0.00     0.027 C 
HETATM   14  C4  UNL     1      34.879   6.400  40.635  1.00  0.00    -0.066 A 
HETATM   15  C5  UNL     1      35.757   5.539  40.044  1.00  0.00    -0.010 A 
HETATM   16  C6  UNL     1      34.475   5.542  39.503  1.00  0.00     0.060 A 
HETATM   17  C7  UNL     1      33.294   4.778  39.940  1.00  0.00    -0.017 C 
HETATM   18  C8  UNL     1      32.524   5.196  40.959  1.00  0.00    -0.020 C 
BRANCH  13  19
HETATM   19  C2  UNL     1      34.337   8.314  42.034  1.00  0.00    -0.019 C 
HETATM   20  C1  UNL     1      35.621   8.497  42.421  1.00  0.00     0.029 C 
ENDBRANCH  13  19
ENDBRANCH   1  12
BRANCH   5  21
HETATM   21  C15 UNL     1      32.096   6.699  47.177  1.00  0.00    -0.003 A 
HETATM   22  C16 UNL     1      32.138   8.052  47.564  1.00  0.00     0.014 A 
HETATM   23  C17 UNL     1      31.057   8.666  48.147  1.00  0.00     0.002 A 
HETATM   24  C18 UNL     1      29.881   7.990  48.384  1.00  0.00     0.019 A 
HETATM   25  C19 UNL     1      29.775   6.663  48.029  1.00  0.00     0.011 A 
HETATM   26 BR1  UNL     1      28.144   5.763  48.368  1.00  0.00    -0.051 Br
HETATM   27  C20 UNL     1      30.877   6.040  47.435  1.00  0.00     0.033 A 
ENDBRANCH   5  21
BRANCH   7  28
HETATM   28  N2  UNL     1      35.052   3.601  48.862  1.00  0.00    -0.231 N 
HETATM   29  H17 UNL     1      36.038   3.341  49.024  1.00  0.00     0.174 HD
HETATM   30  H18 UNL     1      34.081   3.634  49.276  1.00  0.00     0.174 HD
ENDBRANCH   7  28
TORSDOF 4
ENDMDL
MODEL 7
REMARK VINA RESULT:      -7.4     12.122     14.563
REMARK  4 active torsions:
REMARK  status: ('A' for Active; 'I' for Inactive)
REMARK    1  A    between atoms: C2_2  and  C3_3 
REMARK    2  A    between atoms: C9_9  and  C10_10 
REMARK    3  A    between atoms: C14_14  and  C15_15 
REMARK    4  A    between atoms: C21_23  and  N2_24 
ROOT
HETATM    1  C10 UNL     1      33.014   7.344  47.754  1.00  0.00    -0.045 A 
HETATM    2  C11 UNL     1      32.289   8.445  47.875  1.00  0.00    -0.028 A 
HETATM    3  C12 UNL     1      31.311   8.764  48.916  1.00  0.00     0.051 C 
HETATM    4  C13 UNL     1      32.665   9.221  46.706  1.00  0.00     0.072 A 
HETATM    5  C14 UNL     1      32.171  10.430  46.530  1.00  0.00     0.113 A 
HETATM    6  N1  UNL     1      32.439  11.312  45.431  1.00  0.00    -0.060 NA
HETATM    7  C21 UNL     1      33.207  11.135  44.395  1.00  0.00     0.722 A 
HETATM    8  N3  UNL     1      34.008  10.028  44.030  1.00  0.00    -0.058 NA
HETATM    9  C22 UNL     1      34.212   8.910  44.638  1.00  0.00     0.230 A 
HETATM   10  N4  UNL     1      33.616   8.572  45.878  1.00  0.00    -0.335 N 
HETATM   11  C23 UNL     1      33.929   7.348  46.584  1.00  0.00     0.165 A 
ENDROOT
BRANCH   1  12
HETATM   12  C9  UNL     1      32.984   6.181  48.672  1.00  0.00     0.047 C 
HETATM   13  C3  UNL     1      32.254   4.991  48.098  1.00  0.00     0.027 C 
HETATM   14  C4  UNL     1      33.110   4.293  47.103  1.00  0.00    -0.066 A 
HETATM   15  C5  UNL     1      34.000   3.609  46.324  1.00  0.00    -0.010 A 
HETATM   16  C6  UNL     1      34.304   3.643  47.682  1.00  0.00     0.060 A 
HETATM   17  C7  UNL     1      35.039   4.677  48.431  1.00  0.00    -0.017 C 
HETATM   18  C8  UNL     1      34.432   5.797  48.862  1.00  0.00    -0.020 C 
BRANCH  13  19
HETATM   19  C2  UNL     1      30.948   5.322  47.522  1.00  0.00    -0.019 C 
HETATM   20  C1  UNL     1      29.767   5.491  48.163  1.00  0.00     0.029 C 
ENDBRANCH  13  19
ENDBRANCH   1  12
BRANCH   5  21
HETATM   21  C15 UNL     1      31.253  11.161  47.389  1.00  0.00    -0.003 A 
HETATM   22  C16 UNL     1      31.412  11.947  48.546  1.00  0.00     0.014 A 
HETATM   23  C17 UNL     1      30.337  12.526  49.174  1.00  0.00     0.002 A 
HETATM   24  C18 UNL     1      29.052  12.366  48.706  1.00  0.00     0.019 A 
HETATM   25  C19 UNL     1      28.828  11.608  47.577  1.00  0.00     0.011 A 
HETATM   26 BR1  UNL     1      27.049  11.409  46.959  1.00  0.00    -0.051 Br
HETATM   27  C20 UNL     1      29.925  11.020  46.939  1.00  0.00     0.033 A 
ENDBRANCH   5  21
BRANCH   7  28
HETATM   28  N2  UNL     1      33.333  12.156  43.407  1.00  0.00    -0.231 N 
HETATM   29  H17 UNL     1      34.225  12.395  42.946  1.00  0.00     0.174 HD
HETATM   30  H18 UNL     1      32.302  12.376  43.475  1.00  0.00     0.174 HD
ENDBRANCH   7  28
TORSDOF 4
ENDMDL
MODEL 8
REMARK VINA RESULT:      -7.4      4.173      6.635
REMARK  4 active torsions:
REMARK  status: ('A' for Active; 'I' for Inactive)
REMARK    1  A    between atoms: C2_2  and  C3_3 
REMARK    2  A    between atoms: C9_9  and  C10_10 
REMARK    3  A    between atoms: C14_14  and  C15_15 
REMARK    4  A    between atoms: C21_23  and  N2_24 
ROOT
HETATM    1  C10 UNL     1      24.040   5.455  50.282  1.00  0.00    -0.045 A 
HETATM    2  C11 UNL     1      24.072   4.243  50.813  1.00  0.00    -0.028 A 
HETATM    3  C12 UNL     1      25.125   3.657  51.644  1.00  0.00     0.051 C 
HETATM    4  C13 UNL     1      22.846   3.635  50.328  1.00  0.00     0.072 A 
HETATM    5  C14 UNL     1      22.514   2.420  50.715  1.00  0.00     0.113 A 
HETATM    6  N1  UNL     1      21.346   1.686  50.322  1.00  0.00    -0.060 NA
HETATM    7  C21 UNL     1      20.377   2.036  49.526  1.00  0.00     0.722 A 
HETATM    8  N3  UNL     1      20.173   3.236  48.807  1.00  0.00    -0.058 NA
HETATM    9  C22 UNL     1      20.880   4.313  48.765  1.00  0.00     0.230 A 
HETATM   10  N4  UNL     1      22.081   4.490  49.494  1.00  0.00    -0.335 N 
HETATM   11  C23 UNL     1      22.810   5.741  49.501  1.00  0.00     0.165 A 
ENDROOT
BRANCH   1  12
HETATM   12  C9  UNL     1      25.088   6.494  50.428  1.00  0.00     0.047 C 
HETATM   13  C3  UNL     1      26.068   6.512  49.279  1.00  0.00     0.027 C 
HETATM   14  C4  UNL     1      25.458   7.170  48.093  1.00  0.00    -0.066 A 
HETATM   15  C5  UNL     1      24.902   7.923  47.099  1.00  0.00    -0.010 A 
HETATM   16  C6  UNL     1      25.199   8.614  48.270  1.00  0.00     0.060 A 
HETATM   17  C7  UNL     1      24.374   8.760  49.482  1.00  0.00    -0.017 C 
HETATM   18  C8  UNL     1      24.341   7.805  50.428  1.00  0.00    -0.020 C 
BRANCH  13  19
HETATM   19  C2  UNL     1      26.591   5.189  48.929  1.00  0.00    -0.019 C 
HETATM   20  C1  UNL     1      27.854   4.855  48.570  1.00  0.00     0.029 C 
ENDBRANCH  13  19
ENDBRANCH   1  12
BRANCH   5  21
HETATM   21  C15 UNL     1      23.229   1.538  51.624  1.00  0.00    -0.003 A 
HETATM   22  C16 UNL     1      24.573   1.138  51.743  1.00  0.00     0.014 A 
HETATM   23  C17 UNL     1      24.977   0.260  52.719  1.00  0.00     0.002 A 
HETATM   24  C18 UNL     1      24.089  -0.273  53.626  1.00  0.00     0.019 A 
HETATM   25  C19 UNL     1      22.758   0.078  53.564  1.00  0.00     0.011 A 
HETATM   26 BR1  UNL     1      21.564  -0.672  54.827  1.00  0.00    -0.051 Br
HETATM   27  C20 UNL     1      22.350   0.973  52.569  1.00  0.00     0.033 A 
ENDBRANCH   5  21
BRANCH   7  28
HETATM   28  N2  UNL     1      19.296   1.141  49.268  1.00  0.00    -0.231 N 
HETATM   29  H17 UNL     1      18.333   1.454  49.067  1.00  0.00     0.174 HD
HETATM   30  H18 UNL     1      19.933   0.307  49.384  1.00  0.00     0.174 HD
ENDBRANCH   7  28
TORSDOF 4
ENDMDL
MODEL 9
REMARK VINA RESULT:      -7.4      5.997      8.417
REMARK  4 active torsions:
REMARK  status: ('A' for Active; 'I' for Inactive)
REMARK    1  A    between atoms: C2_2  and  C3_3 
REMARK    2  A    between atoms: C9_9  and  C10_10 
REMARK    3  A    between atoms: C14_14  and  C15_15 
REMARK    4  A    between atoms: C21_23  and  N2_24 
ROOT
HETATM    1  C10 UNL     1      23.089   4.165  49.177  1.00  0.00    -0.045 A 
HETATM    2  C11 UNL     1      23.936   5.182  49.177  1.00  0.00    -0.028 A 
HETATM    3  C12 UNL     1      25.398   5.130  49.228  1.00  0.00     0.051 C 
HETATM    4  C13 UNL     1      23.062   6.342  49.165  1.00  0.00     0.072 A 
HETATM    5  C14 UNL     1      23.576   7.554  49.101  1.00  0.00     0.113 A 
HETATM    6  N1  UNL     1      22.850   8.791  49.087  1.00  0.00    -0.060 NA
HETATM    7  C21 UNL     1      21.566   8.998  49.128  1.00  0.00     0.722 A 
HETATM    8  N3  UNL     1      20.494   8.079  49.199  1.00  0.00    -0.058 NA
HETATM    9  C22 UNL     1      20.501   6.791  49.218  1.00  0.00     0.230 A 
HETATM   10  N4  UNL     1      21.683   6.012  49.167  1.00  0.00    -0.335 N 
HETATM   11  C23 UNL     1      21.661   4.566  49.099  1.00  0.00     0.165 A 
ENDROOT
BRANCH   1  12
HETATM   12  C9  UNL     1      23.457   2.729  49.228  1.00  0.00     0.047 C 
HETATM   13  C3  UNL     1      23.275   2.119  50.597  1.00  0.00     0.027 C 
HETATM   14  C4  UNL     1      21.835   1.848  50.852  1.00  0.00    -0.066 A 
HETATM   15  C5  UNL     1      20.526   1.478  50.959  1.00  0.00    -0.010 A 
HETATM   16  C6  UNL     1      21.256   0.796  49.991  1.00  0.00     0.060 A 
HETATM   17  C7  UNL     1      21.518   1.187  48.595  1.00  0.00    -0.017 C 
HETATM   18  C8  UNL     1      22.501   2.048  48.279  1.00  0.00    -0.020 C 
BRANCH  13  19
HETATM   19  C2  UNL     1      23.856   2.917  51.680  1.00  0.00    -0.019 C 
HETATM   20  C1  UNL     1      24.173   2.521  52.936  1.00  0.00     0.029 C 
ENDBRANCH  13  19
ENDBRANCH   1  12
BRANCH   5  21
HETATM   21  C15 UNL     1      24.978   7.935  49.023  1.00  0.00    -0.003 A 
HETATM   22  C16 UNL     1      25.984   8.163  49.980  1.00  0.00     0.014 A 
HETATM   23  C17 UNL     1      27.254   8.532  49.613  1.00  0.00     0.002 A 
HETATM   24  C18 UNL     1      27.606   8.699  48.292  1.00  0.00     0.019 A 
HETATM   25  C19 UNL     1      26.668   8.490  47.305  1.00  0.00     0.011 A 
HETATM   26 BR1  UNL     1      27.185   8.727  45.500  1.00  0.00    -0.051 Br
HETATM   27  C20 UNL     1      25.375   8.114  47.683  1.00  0.00     0.033 A 
ENDBRANCH   5  21
BRANCH   7  28
HETATM   28  N2  UNL     1      21.048  10.327  49.103  1.00  0.00    -0.231 N 
HETATM   29  H17 UNL     1      21.253  11.032  49.829  1.00  0.00     0.174 HD
HETATM   30  H18 UNL     1      20.536  10.132  48.200  1.00  0.00     0.174 HD
ENDBRANCH   7  28
TORSDOF 4
ENDMDL
