MODEL 1
REMARK VINA RESULT:      -8.0      0.000      0.000
REMARK  3 active torsions:
REMARK  status: ('A' for Active; 'I' for Inactive)
REMARK    1  A    between atoms: C5_6  and  N1_7 
REMARK    2  A    between atoms: N1_7  and  N2_8 
REMARK    3  A    between atoms: N3_9  and  C6_10 
ROOT
HETATM    1  N2  UNL     1      25.486   3.011  51.201  1.00  0.00    -0.068 NA
HETATM    2  N3  UNL     1      25.501   2.513  52.337  1.00  0.00    -0.133 NA
ENDROOT
BRANCH   2   3
HETATM    3  C6  UNL     1      26.573   1.635  52.678  1.00  0.00     0.081 A 
HETATM    4  C7  UNL     1      27.763   2.093  53.201  1.00  0.00     0.036 A 
HETATM    5  C8  UNL     1      28.728   1.156  53.494  1.00  0.00     0.035 A 
HETATM    6  C9  UNL     1      28.466  -0.186  53.256  1.00  0.00     0.070 A 
HETATM    7  N4  UNL     1      29.372  -1.124  53.529  1.00  0.00    -0.241 NA
HETATM    8  C12 UNL     1      27.255  -0.617  52.728  1.00  0.00     0.013 A 
HETATM    9  C10 UNL     1      29.172  -2.439  53.323  1.00  0.00     0.233 A 
HETATM   10  N5  UNL     1      28.011  -2.845  52.818  1.00  0.00    -0.253 NA
HETATM   11  C11 UNL     1      27.038  -1.977  52.512  1.00  0.00     0.132 A 
HETATM   12  C13 UNL     1      26.270   0.306  52.426  1.00  0.00     0.048 A 
ENDBRANCH   2   3
BRANCH   1  13
HETATM   13  N1  UNL     1      26.379   2.852  50.159  1.00  0.00    -0.260 N 
HETATM   14  H4  UNL     1      26.957   2.063  49.776  1.00  0.00     0.191 HD
BRANCH  13  15
HETATM   15  C5  UNL     1      26.478   4.127  49.501  1.00  0.00     0.053 A 
HETATM   16  C4  UNL     1      25.317   4.900  49.469  1.00  0.00     0.031 A 
HETATM   17  C3  UNL     1      25.282   6.148  48.869  1.00  0.00     0.004 A 
HETATM   18  C2  UNL     1      26.417   6.662  48.277  1.00  0.00     0.024 A 
HETATM   19  C1  UNL     1      27.556   5.902  48.309  1.00  0.00     0.036 A 
HETATM   20 CL1  UNL     1      28.992   6.548  47.569  1.00  0.00    -0.084 Cl
HETATM   21  C14 UNL     1      27.614   4.659  48.901  1.00  0.00     0.054 A 
ENDBRANCH  13  15
ENDBRANCH   1  13
TORSDOF 3
ENDMDL
MODEL 2
REMARK VINA RESULT:      -8.0      1.465      2.415
REMARK  3 active torsions:
REMARK  status: ('A' for Active; 'I' for Inactive)
REMARK    1  A    between atoms: C5_6  and  N1_7 
REMARK    2  A    between atoms: N1_7  and  N2_8 
REMARK    3  A    between atoms: N3_9  and  C6_10 
ROOT
HETATM    1  N2  UNL     1      24.305   3.213  52.166  1.00  0.00    -0.068 NA
HETATM    2  N3  UNL     1      24.669   2.761  53.263  1.00  0.00    -0.133 NA
ENDROOT
BRANCH   2   3
HETATM    3  C6  UNL     1      25.493   1.595  53.275  1.00  0.00     0.081 A 
HETATM    4  C7  UNL     1      24.973   0.325  53.156  1.00  0.00     0.036 A 
HETATM    5  C8  UNL     1      25.861  -0.727  53.180  1.00  0.00     0.035 A 
HETATM    6  C9  UNL     1      27.217  -0.468  53.320  1.00  0.00     0.070 A 
HETATM    7  N4  UNL     1      28.108  -1.458  53.344  1.00  0.00    -0.241 NA
HETATM    8  C12 UNL     1      27.711   0.825  53.437  1.00  0.00     0.013 A 
HETATM    9  C10 UNL     1      29.435  -1.267  53.473  1.00  0.00     0.233 A 
HETATM   10  N5  UNL     1      29.901  -0.027  53.585  1.00  0.00    -0.253 NA
HETATM   11  C11 UNL     1      29.083   1.034  53.570  1.00  0.00     0.132 A 
HETATM   12  C13 UNL     1      26.839   1.899  53.416  1.00  0.00     0.048 A 
ENDBRANCH   2   3
BRANCH   1  13
HETATM   13  N1  UNL     1      24.577   2.756  50.892  1.00  0.00    -0.260 N 
HETATM   14  H4  UNL     1      24.386   1.876  50.351  1.00  0.00     0.191 HD
BRANCH  13  15
HETATM   15  C5  UNL     1      25.300   3.803  50.222  1.00  0.00     0.053 A 
HETATM   16  C4  UNL     1      26.488   3.431  49.592  1.00  0.00     0.031 A 
HETATM   17  C3  UNL     1      27.275   4.344  48.909  1.00  0.00     0.004 A 
HETATM   18  C2  UNL     1      26.892   5.667  48.837  1.00  0.00     0.024 A 
HETATM   19  C1  UNL     1      25.725   6.032  49.455  1.00  0.00     0.036 A 
HETATM   20 CL1  UNL     1      25.236   7.698  49.362  1.00  0.00    -0.084 Cl
HETATM   21  C14 UNL     1      24.928   5.140  50.140  1.00  0.00     0.054 A 
ENDBRANCH  13  15
ENDBRANCH   1  13
TORSDOF 3
ENDMDL
MODEL 3
REMARK VINA RESULT:      -7.9      4.234      6.148
REMARK  3 active torsions:
REMARK  status: ('A' for Active; 'I' for Inactive)
REMARK    1  A    between atoms: C5_6  and  N1_7 
REMARK    2  A    between atoms: N1_7  and  N2_8 
REMARK    3  A    between atoms: N3_9  and  C6_10 
ROOT
HETATM    1  N2  UNL     1      23.601   1.746  51.865  1.00  0.00    -0.068 NA
HETATM    2  N3  UNL     1      24.633   1.626  51.187  1.00  0.00    -0.133 NA
ENDROOT
BRANCH   2   3
HETATM    3  C6  UNL     1      25.869   1.404  51.868  1.00  0.00     0.081 A 
HETATM    4  C7  UNL     1      26.664   2.440  52.307  1.00  0.00     0.036 A 
HETATM    5  C8  UNL     1      27.835   2.109  52.952  1.00  0.00     0.035 A 
HETATM    6  C9  UNL     1      28.157   0.771  53.131  1.00  0.00     0.070 A 
HETATM    7  N4  UNL     1      29.278   0.410  53.754  1.00  0.00    -0.241 NA
HETATM    8  C12 UNL     1      27.332  -0.252  52.677  1.00  0.00     0.013 A 
HETATM    9  C10 UNL     1      29.640  -0.871  53.959  1.00  0.00     0.233 A 
HETATM   10  N5  UNL     1      28.847  -1.844  53.522  1.00  0.00    -0.253 NA
HETATM   11  C11 UNL     1      27.698  -1.580  52.886  1.00  0.00     0.132 A 
HETATM   12  C13 UNL     1      26.151   0.055  52.026  1.00  0.00     0.048 A 
ENDBRANCH   2   3
BRANCH   1  13
HETATM   13  N1  UNL     1      23.438   1.698  53.235  1.00  0.00    -0.260 N 
HETATM   14  H4  UNL     1      23.818   2.229  54.059  1.00  0.00     0.191 HD
BRANCH  13  15
HETATM   15  C5  UNL     1      22.509   0.633  53.505  1.00  0.00     0.053 A 
HETATM   16  C4  UNL     1      22.992  -0.431  54.267  1.00  0.00     0.031 A 
HETATM   17  C3  UNL     1      22.197  -1.516  54.600  1.00  0.00     0.004 A 
HETATM   18  C2  UNL     1      20.886  -1.568  54.175  1.00  0.00     0.024 A 
HETATM   19  C1  UNL     1      20.414  -0.522  53.426  1.00  0.00     0.036 A 
HETATM   20 CL1  UNL     1      18.760  -0.580  52.892  1.00  0.00    -0.084 Cl
HETATM   21  C14 UNL     1      21.186   0.567  53.084  1.00  0.00     0.054 A 
ENDBRANCH  13  15
ENDBRANCH   1  13
TORSDOF 3
ENDMDL
MODEL 4
REMARK VINA RESULT:      -7.7      3.050      7.383
REMARK  3 active torsions:
REMARK  status: ('A' for Active; 'I' for Inactive)
REMARK    1  A    between atoms: C5_6  and  N1_7 
REMARK    2  A    between atoms: N1_7  and  N2_8 
REMARK    3  A    between atoms: N3_9  and  C6_10 
ROOT
HETATM    1  N2  UNL     1      25.684   2.759  50.760  1.00  0.00    -0.068 NA
HETATM    2  N3  UNL     1      25.377   3.299  49.686  1.00  0.00    -0.133 NA
ENDROOT
BRANCH   2   3
HETATM    3  C6  UNL     1      26.003   4.536  49.347  1.00  0.00     0.081 A 
HETATM    4  C7  UNL     1      25.359   5.748  49.474  1.00  0.00     0.036 A 
HETATM    5  C8  UNL     1      26.060   6.878  49.118  1.00  0.00     0.035 A 
HETATM    6  C9  UNL     1      27.362   6.752  48.655  1.00  0.00     0.070 A 
HETATM    7  N4  UNL     1      28.075   7.821  48.304  1.00  0.00    -0.241 NA
HETATM    8  C12 UNL     1      27.985   5.515  48.538  1.00  0.00     0.013 A 
HETATM    9  C10 UNL     1      29.342   7.760  47.852  1.00  0.00     0.233 A 
HETATM   10  N5  UNL     1      29.931   6.574  47.743  1.00  0.00    -0.253 NA
HETATM   11  C11 UNL     1      29.296   5.441  48.072  1.00  0.00     0.132 A 
HETATM   12  C13 UNL     1      27.301   4.365  48.889  1.00  0.00     0.048 A 
ENDBRANCH   2   3
BRANCH   1  13
HETATM   13  N1  UNL     1      26.575   3.172  51.730  1.00  0.00    -0.260 N 
HETATM   14  H4  UNL     1      26.905   4.097  52.105  1.00  0.00     0.191 HD
BRANCH  13  15
HETATM   15  C5  UNL     1      27.140   1.983  52.308  1.00  0.00     0.053 A 
HETATM   16  C4  UNL     1      28.202   2.168  53.193  1.00  0.00     0.031 A 
HETATM   17  C3  UNL     1      28.830   1.105  53.820  1.00  0.00     0.004 A 
HETATM   18  C2  UNL     1      28.411  -0.186  53.576  1.00  0.00     0.024 A 
HETATM   19  C1  UNL     1      27.368  -0.367  52.706  1.00  0.00     0.036 A 
HETATM   20 CL1  UNL     1      26.831  -1.993  52.399  1.00  0.00    -0.084 Cl
HETATM   21  C14 UNL     1      26.728   0.676  52.072  1.00  0.00     0.054 A 
ENDBRANCH  13  15
ENDBRANCH   1  13
TORSDOF 3
ENDMDL
MODEL 5
REMARK VINA RESULT:      -7.5      3.139      7.751
REMARK  3 active torsions:
REMARK  status: ('A' for Active; 'I' for Inactive)
REMARK    1  A    between atoms: C5_6  and  N1_7 
REMARK    2  A    between atoms: N1_7  and  N2_8 
REMARK    3  A    between atoms: N3_9  and  C6_10 
ROOT
HETATM    1  N2  UNL     1      25.777   2.671  51.112  1.00  0.00    -0.068 NA
HETATM    2  N3  UNL     1      25.317   3.251  50.116  1.00  0.00    -0.133 NA
ENDROOT
BRANCH   2   3
HETATM    3  C6  UNL     1      25.958   4.447  49.673  1.00  0.00     0.081 A 
HETATM    4  C7  UNL     1      27.102   4.430  48.905  1.00  0.00     0.036 A 
HETATM    5  C8  UNL     1      27.634   5.644  48.534  1.00  0.00     0.035 A 
HETATM    6  C9  UNL     1      27.006   6.813  48.941  1.00  0.00     0.070 A 
HETATM    7  N4  UNL     1      27.488   8.008  48.599  1.00  0.00    -0.241 NA
HETATM    8  C12 UNL     1      25.852   6.798  49.714  1.00  0.00     0.013 A 
HETATM    9  C10 UNL     1      26.920   9.174  48.961  1.00  0.00     0.233 A 
HETATM   10  N5  UNL     1      25.816   9.152  49.702  1.00  0.00    -0.253 NA
HETATM   11  C11 UNL     1      25.256   8.000  50.093  1.00  0.00     0.132 A 
HETATM   12  C13 UNL     1      25.299   5.590  50.100  1.00  0.00     0.048 A 
ENDBRANCH   2   3
BRANCH   1  13
HETATM   13  N1  UNL     1      26.858   3.004  51.903  1.00  0.00    -0.260 N 
HETATM   14  H4  UNL     1      27.356   3.893  52.164  1.00  0.00     0.191 HD
BRANCH  13  15
HETATM   15  C5  UNL     1      27.361   1.776  52.456  1.00  0.00     0.053 A 
HETATM   16  C4  UNL     1      28.425   1.889  53.351  1.00  0.00     0.031 A 
HETATM   17  C3  UNL     1      28.997   0.781  53.956  1.00  0.00     0.004 A 
HETATM   18  C2  UNL     1      28.516  -0.481  53.681  1.00  0.00     0.024 A 
HETATM   19  C1  UNL     1      27.470  -0.591  52.802  1.00  0.00     0.036 A 
HETATM   20 CL1  UNL     1      26.857  -2.181  52.455  1.00  0.00    -0.084 Cl
HETATM   21  C14 UNL     1      26.887   0.497  52.189  1.00  0.00     0.054 A 
ENDBRANCH  13  15
ENDBRANCH   1  13
TORSDOF 3
ENDMDL
MODEL 6
REMARK VINA RESULT:      -7.5      3.772      6.750
REMARK  3 active torsions:
REMARK  status: ('A' for Active; 'I' for Inactive)
REMARK    1  A    between atoms: C5_6  and  N1_7 
REMARK    2  A    between atoms: N1_7  and  N2_8 
REMARK    3  A    between atoms: N3_9  and  C6_10 
ROOT
HETATM    1  N2  UNL     1      26.918   2.873  50.963  1.00  0.00    -0.068 NA
HETATM    2  N3  UNL     1      25.950   3.035  50.204  1.00  0.00    -0.133 NA
ENDROOT
BRANCH   2   3
HETATM    3  C6  UNL     1      24.660   3.231  50.783  1.00  0.00     0.081 A 
HETATM    4  C7  UNL     1      24.184   4.480  51.118  1.00  0.00     0.036 A 
HETATM    5  C8  UNL     1      22.925   4.550  51.671  1.00  0.00     0.035 A 
HETATM    6  C9  UNL     1      22.201   3.381  51.863  1.00  0.00     0.070 A 
HETATM    7  N4  UNL     1      20.978   3.408  52.391  1.00  0.00    -0.241 NA
HETATM    8  C12 UNL     1      22.709   2.136  51.514  1.00  0.00     0.013 A 
HETATM    9  C10 UNL     1      20.230   2.308  52.597  1.00  0.00     0.233 A 
HETATM   10  N5  UNL     1      20.721   1.119  52.261  1.00  0.00    -0.253 NA
HETATM   11  C11 UNL     1      21.941   0.992  51.722  1.00  0.00     0.132 A 
HETATM   12  C13 UNL     1      23.972   2.039  50.957  1.00  0.00     0.048 A 
ENDBRANCH   2   3
BRANCH   1  13
HETATM   13  N1  UNL     1      26.960   2.849  52.343  1.00  0.00    -0.260 N 
HETATM   14  H4  UNL     1      26.690   3.508  53.116  1.00  0.00     0.191 HD
BRANCH  13  15
HETATM   15  C5  UNL     1      27.527   1.583  52.719  1.00  0.00     0.053 A 
HETATM   16  C4  UNL     1      28.717   1.628  53.446  1.00  0.00     0.031 A 
HETATM   17  C3  UNL     1      29.362   0.478  53.871  1.00  0.00     0.004 A 
HETATM   18  C2  UNL     1      28.831  -0.760  53.579  1.00  0.00     0.024 A 
HETATM   19  C1  UNL     1      27.662  -0.804  52.865  1.00  0.00     0.036 A 
HETATM   20 CL1  UNL     1      26.985  -2.363  52.498  1.00  0.00    -0.084 Cl
HETATM   21  C14 UNL     1      27.004   0.327  52.432  1.00  0.00     0.054 A 
ENDBRANCH  13  15
ENDBRANCH   1  13
TORSDOF 3
ENDMDL
MODEL 7
REMARK VINA RESULT:      -7.4      4.055      7.141
REMARK  3 active torsions:
REMARK  status: ('A' for Active; 'I' for Inactive)
REMARK    1  A    between atoms: C5_6  and  N1_7 
REMARK    2  A    between atoms: N1_7  and  N2_8 
REMARK    3  A    between atoms: N3_9  and  C6_10 
ROOT
HETATM    1  N2  UNL     1      23.200   3.937  51.783  1.00  0.00    -0.068 NA
HETATM    2  N3  UNL     1      23.339   4.069  50.556  1.00  0.00    -0.133 NA
ENDROOT
BRANCH   2   3
HETATM    3  C6  UNL     1      24.662   4.169  50.031  1.00  0.00     0.081 A 
HETATM    4  C7  UNL     1      25.476   3.070  49.868  1.00  0.00     0.036 A 
HETATM    5  C8  UNL     1      26.734   3.284  49.352  1.00  0.00     0.035 A 
HETATM    6  C9  UNL     1      27.122   4.576  49.022  1.00  0.00     0.070 A 
HETATM    7  N4  UNL     1      28.329   4.824  48.516  1.00  0.00    -0.241 NA
HETATM    8  C12 UNL     1      26.277   5.665  49.197  1.00  0.00     0.013 A 
HETATM    9  C10 UNL     1      28.757   6.054  48.174  1.00  0.00     0.233 A 
HETATM   10  N5  UNL     1      27.944   7.092  48.345  1.00  0.00    -0.253 NA
HETATM   11  C11 UNL     1      26.711   6.942  48.845  1.00  0.00     0.132 A 
HETATM   12  C13 UNL     1      25.008   5.475  49.714  1.00  0.00     0.048 A 
ENDBRANCH   2   3
BRANCH   1  13
HETATM   13  N1  UNL     1      24.159   3.867  52.773  1.00  0.00    -0.260 N 
HETATM   14  H4  UNL     1      24.743   4.559  53.308  1.00  0.00     0.191 HD
BRANCH  13  15
HETATM   15  C5  UNL     1      24.338   2.473  53.079  1.00  0.00     0.053 A 
HETATM   16  C4  UNL     1      25.606   2.092  53.515  1.00  0.00     0.031 A 
HETATM   17  C3  UNL     1      25.907   0.781  53.846  1.00  0.00     0.004 A 
HETATM   18  C2  UNL     1      24.938  -0.195  53.747  1.00  0.00     0.024 A 
HETATM   19  C1  UNL     1      23.692   0.180  53.319  1.00  0.00     0.036 A 
HETATM   20 CL1  UNL     1      22.464  -1.046  53.198  1.00  0.00    -0.084 Cl
HETATM   21  C14 UNL     1      23.371   1.479  52.985  1.00  0.00     0.054 A 
ENDBRANCH  13  15
ENDBRANCH   1  13
TORSDOF 3
ENDMDL
MODEL 8
REMARK VINA RESULT:      -7.3      3.690      4.586
REMARK  3 active torsions:
REMARK  status: ('A' for Active; 'I' for Inactive)
REMARK    1  A    between atoms: C5_6  and  N1_7 
REMARK    2  A    between atoms: N1_7  and  N2_8 
REMARK    3  A    between atoms: N3_9  and  C6_10 
ROOT
HETATM    1  N2  UNL     1      24.020   2.827  52.190  1.00  0.00    -0.068 NA
HETATM    2  N3  UNL     1      24.506   2.506  53.286  1.00  0.00    -0.133 NA
ENDROOT
BRANCH   2   3
HETATM    3  C6  UNL     1      25.409   1.401  53.329  1.00  0.00     0.081 A 
HETATM    4  C7  UNL     1      24.976   0.093  53.278  1.00  0.00     0.036 A 
HETATM    5  C8  UNL     1      25.935  -0.893  53.326  1.00  0.00     0.035 A 
HETATM    6  C9  UNL     1      27.273  -0.535  53.421  1.00  0.00     0.070 A 
HETATM    7  N4  UNL     1      28.232  -1.460  53.466  1.00  0.00    -0.241 NA
HETATM    8  C12 UNL     1      27.678   0.793  53.469  1.00  0.00     0.013 A 
HETATM    9  C10 UNL     1      29.544  -1.172  53.553  1.00  0.00     0.233 A 
HETATM   10  N5  UNL     1      29.925   0.101  53.599  1.00  0.00    -0.253 NA
HETATM   11  C11 UNL     1      29.035   1.101  53.558  1.00  0.00     0.132 A 
HETATM   12  C13 UNL     1      26.733   1.802  53.422  1.00  0.00     0.048 A 
ENDBRANCH   2   3
BRANCH   1  13
HETATM   13  N1  UNL     1      24.216   2.268  50.943  1.00  0.00    -0.260 N 
HETATM   14  H4  UNL     1      25.047   2.040  50.341  1.00  0.00     0.191 HD
BRANCH  13  15
HETATM   15  C5  UNL     1      22.913   1.959  50.418  1.00  0.00     0.053 A 
HETATM   16  C4  UNL     1      22.169   1.014  51.124  1.00  0.00     0.031 A 
HETATM   17  C3  UNL     1      20.899   0.632  50.725  1.00  0.00     0.004 A 
HETATM   18  C2  UNL     1      20.332   1.189  49.597  1.00  0.00     0.024 A 
HETATM   19  C1  UNL     1      21.064   2.118  48.905  1.00  0.00     0.036 A 
HETATM   20 CL1  UNL     1      20.352   2.828  47.486  1.00  0.00    -0.084 Cl
HETATM   21  C14 UNL     1      22.329   2.512  49.284  1.00  0.00     0.054 A 
ENDBRANCH  13  15
ENDBRANCH   1  13
TORSDOF 3
ENDMDL
MODEL 9
REMARK VINA RESULT:      -7.1      3.252      7.746
REMARK  3 active torsions:
REMARK  status: ('A' for Active; 'I' for Inactive)
REMARK    1  A    between atoms: C5_6  and  N1_7 
REMARK    2  A    between atoms: N1_7  and  N2_8 
REMARK    3  A    between atoms: N3_9  and  C6_10 
ROOT
HETATM    1  N2  UNL     1      27.190   3.020  50.733  1.00  0.00    -0.068 NA
HETATM    2  N3  UNL     1      26.702   3.543  49.719  1.00  0.00    -0.133 NA
ENDROOT
BRANCH   2   3
HETATM    3  C6  UNL     1      25.360   4.026  49.785  1.00  0.00     0.081 A 
HETATM    4  C7  UNL     1      24.272   3.219  49.531  1.00  0.00     0.036 A 
HETATM    5  C8  UNL     1      23.024   3.792  49.624  1.00  0.00     0.035 A 
HETATM    6  C9  UNL     1      22.915   5.133  49.965  1.00  0.00     0.070 A 
HETATM    7  N4  UNL     1      21.725   5.724  50.069  1.00  0.00    -0.241 NA
HETATM    8  C12 UNL     1      24.032   5.921  50.216  1.00  0.00     0.013 A 
HETATM    9  C10 UNL     1      21.560   7.018  50.399  1.00  0.00     0.233 A 
HETATM   10  N5  UNL     1      22.632   7.766  50.638  1.00  0.00    -0.253 NA
HETATM   11  C11 UNL     1      23.871   7.263  50.559  1.00  0.00     0.132 A 
HETATM   12  C13 UNL     1      25.297   5.369  50.128  1.00  0.00     0.048 A 
ENDBRANCH   2   3
BRANCH   1  13
HETATM   13  N1  UNL     1      26.626   2.819  51.977  1.00  0.00    -0.260 N 
HETATM   14  H4  UNL     1      25.896   3.301  52.561  1.00  0.00     0.191 HD
BRANCH  13  15
HETATM   15  C5  UNL     1      27.253   1.651  52.533  1.00  0.00     0.053 A 
HETATM   16  C4  UNL     1      28.332   1.874  53.389  1.00  0.00     0.031 A 
HETATM   17  C3  UNL     1      29.019   0.834  53.992  1.00  0.00     0.004 A 
HETATM   18  C2  UNL     1      28.645  -0.472  53.753  1.00  0.00     0.024 A 
HETATM   19  C1  UNL     1      27.585  -0.690  52.911  1.00  0.00     0.036 A 
HETATM   20 CL1  UNL     1      27.105  -2.335  52.611  1.00  0.00    -0.084 Cl
HETATM   21  C14 UNL     1      26.887   0.330  52.301  1.00  0.00     0.054 A 
ENDBRANCH  13  15
ENDBRANCH   1  13
TORSDOF 3
ENDMDL
