MODEL 1
REMARK VINA RESULT:      -8.3      0.000      0.000
REMARK  5 active torsions:
REMARK  status: ('A' for Active; 'I' for Inactive)
REMARK    1  A    between atoms: N1_1  and  C1_2 
REMARK    2  A    between atoms: N2_5  and  C4_6 
REMARK    3  A    between atoms: C4_6  and  C5_7 
REMARK    4  A    between atoms: C9_14  and  N6_15 
REMARK    5  A    between atoms: N6_15  and  C10_16 
ROOT
HETATM    1  C5  UNL     1      23.055   0.596  52.516  1.00  0.00     0.004 A 
HETATM    2  C6  UNL     1      21.697   0.443  52.525  1.00  0.00     0.030 A 
HETATM    3  C7  UNL     1      21.322  -0.337  53.581  1.00  0.00     0.119 A 
HETATM    4  N3  UNL     1      22.445  -0.682  54.247  1.00  0.00    -0.240 N 
HETATM    5  N4  UNL     1      22.570  -1.425  55.325  1.00  0.00    -0.161 NA
HETATM    6  C8  UNL     1      23.772  -1.671  55.861  1.00  0.00     0.258 A 
HETATM    7  N5  UNL     1      24.885  -1.151  55.289  1.00  0.00    -0.220 NA
HETATM    8  C9  UNL     1      24.720  -0.388  54.177  1.00  0.00     0.159 A 
HETATM    9  C15 UNL     1      23.489  -0.124  53.612  1.00  0.00     0.112 A 
ENDROOT
BRANCH   1  10
HETATM   10  C4  UNL     1      23.909   1.356  51.589  1.00  0.00     0.313 C 
BRANCH  10  11
HETATM   11  N2  UNL     1      23.480   2.742  51.517  1.00  0.00     0.092 N 
HETATM   12  C3  UNL     1      23.956   3.476  52.699  1.00  0.00     0.275 C 
HETATM   13  C2  UNL     1      23.184   4.788  52.675  1.00  0.00     0.065 C 
HETATM   14  C1  UNL     1      23.726   5.575  51.499  1.00  0.00     0.221 C 
HETATM   15  C17 UNL     1      24.643   4.745  50.640  1.00  0.00     0.065 C 
HETATM   16  C16 UNL     1      24.034   3.409  50.349  1.00  0.00     0.275 C 
BRANCH  14  17
HETATM   17  N1  UNL     1      24.425   6.785  51.958  1.00  0.00     0.083 N 
HETATM   18  H1  UNL     1      24.079   6.955  52.925  1.00  0.00     0.313 HD
HETATM   19  H2  UNL     1      24.075   7.567  51.362  1.00  0.00     0.313 HD
ENDBRANCH  14  17
ENDBRANCH  10  11
ENDBRANCH   1  10
BRANCH   8  20
HETATM   20  N6  UNL     1      25.904   0.148  53.591  1.00  0.00    -0.338 N 
HETATM   21  H13 UNL     1      25.657   0.028  52.593  1.00  0.00     0.167 HD
BRANCH  20  22
HETATM   22  C10 UNL     1      27.158   0.721  53.919  1.00  0.00     0.044 C 
HETATM   23  C11 UNL     1      28.271   0.458  54.542  1.00  0.00     0.003 C 
HETATM   24  C12 UNL     1      29.269   1.257  54.264  1.00  0.00     0.014 C 
HETATM   25  C13 UNL     1      28.649   2.418  53.633  1.00  0.00     0.003 C 
HETATM   26  C14 UNL     1      27.377   2.075  53.433  1.00  0.00     0.030 C 
ENDBRANCH  20  22
ENDBRANCH   8  20
TORSDOF 5
ENDMDL
MODEL 2
REMARK VINA RESULT:      -7.9      2.129      6.393
REMARK  5 active torsions:
REMARK  status: ('A' for Active; 'I' for Inactive)
REMARK    1  A    between atoms: N1_1  and  C1_2 
REMARK    2  A    between atoms: N2_5  and  C4_6 
REMARK    3  A    between atoms: C4_6  and  C5_7 
REMARK    4  A    between atoms: C9_14  and  N6_15 
REMARK    5  A    between atoms: N6_15  and  C10_16 
ROOT
HETATM    1  C5  UNL     1      25.887   2.422  51.741  1.00  0.00     0.004 A 
HETATM    2  C6  UNL     1      26.677   2.980  50.775  1.00  0.00     0.030 A 
HETATM    3  C7  UNL     1      25.900   3.595  49.835  1.00  0.00     0.119 A 
HETATM    4  N3  UNL     1      24.612   3.427  50.204  1.00  0.00    -0.240 N 
HETATM    5  N4  UNL     1      23.521   3.847  49.601  1.00  0.00    -0.161 NA
HETATM    6  C8  UNL     1      22.308   3.590  50.108  1.00  0.00     0.258 A 
HETATM    7  N5  UNL     1      22.194   2.886  51.260  1.00  0.00    -0.220 NA
HETATM    8  C9  UNL     1      23.341   2.468  51.855  1.00  0.00     0.159 A 
HETATM    9  C15 UNL     1      24.598   2.724  51.348  1.00  0.00     0.112 A 
ENDROOT
BRANCH   1  10
HETATM   10  C4  UNL     1      26.269   1.677  52.951  1.00  0.00     0.313 C 
BRANCH  10  11
HETATM   11  N2  UNL     1      27.214   0.623  52.628  1.00  0.00     0.092 N 
HETATM   12  C3  UNL     1      27.768   0.050  53.865  1.00  0.00     0.275 C 
HETATM   13  C2  UNL     1      28.956  -0.784  53.405  1.00  0.00     0.065 C 
HETATM   14  C1  UNL     1      28.375  -1.973  52.666  1.00  0.00     0.221 C 
HETATM   15  C17 UNL     1      26.894  -1.826  52.436  1.00  0.00     0.065 C 
HETATM   16  C16 UNL     1      26.572  -0.464  51.905  1.00  0.00     0.275 C 
BRANCH  14  17
HETATM   17  N1  UNL     1      28.650  -3.223  53.390  1.00  0.00     0.083 N 
HETATM   18  H1  UNL     1      27.876  -3.869  53.132  1.00  0.00     0.313 HD
HETATM   19  H2  UNL     1      28.544  -3.002  54.405  1.00  0.00     0.313 HD
ENDBRANCH  14  17
ENDBRANCH  10  11
ENDBRANCH   1  10
BRANCH   8  20
HETATM   20  N6  UNL     1      23.197   1.727  53.066  1.00  0.00    -0.338 N 
HETATM   21  H13 UNL     1      23.527   2.446  53.733  1.00  0.00     0.167 HD
BRANCH  20  22
HETATM   22  C10 UNL     1      22.792   0.465  53.567  1.00  0.00     0.044 C 
HETATM   23  C11 UNL     1      23.258  -0.712  53.871  1.00  0.00     0.003 C 
HETATM   24  C12 UNL     1      22.477  -1.445  54.623  1.00  0.00     0.014 C 
HETATM   25  C13 UNL     1      21.167  -0.810  54.527  1.00  0.00     0.003 C 
HETATM   26  C14 UNL     1      21.378   0.340  53.887  1.00  0.00     0.030 C 
ENDBRANCH  20  22
ENDBRANCH   8  20
TORSDOF 5
ENDMDL
MODEL 3
REMARK VINA RESULT:      -7.8      2.170      5.685
REMARK  5 active torsions:
REMARK  status: ('A' for Active; 'I' for Inactive)
REMARK    1  A    between atoms: N1_1  and  C1_2 
REMARK    2  A    between atoms: N2_5  and  C4_6 
REMARK    3  A    between atoms: C4_6  and  C5_7 
REMARK    4  A    between atoms: C9_14  and  N6_15 
REMARK    5  A    between atoms: N6_15  and  C10_16 
ROOT
HETATM    1  C5  UNL     1      24.669   0.805  53.235  1.00  0.00     0.004 A 
HETATM    2  C6  UNL     1      24.049  -0.157  53.982  1.00  0.00     0.030 A 
HETATM    3  C7  UNL     1      22.848  -0.484  53.417  1.00  0.00     0.119 A 
HETATM    4  N3  UNL     1      22.704   0.273  52.309  1.00  0.00    -0.240 N 
HETATM    5  N4  UNL     1      21.706   0.300  51.452  1.00  0.00    -0.161 NA
HETATM    6  C8  UNL     1      21.723   1.121  50.395  1.00  0.00     0.258 A 
HETATM    7  N5  UNL     1      22.783   1.942  50.196  1.00  0.00    -0.220 NA
HETATM    8  C9  UNL     1      23.796   1.888  51.099  1.00  0.00     0.159 A 
HETATM    9  C15 UNL     1      23.795   1.049  52.194  1.00  0.00     0.112 A 
ENDROOT
BRANCH   1  10
HETATM   10  C4  UNL     1      25.975   1.453  53.436  1.00  0.00     0.313 C 
BRANCH  10  11
HETATM   11  N2  UNL     1      27.055   0.557  53.064  1.00  0.00     0.092 N 
HETATM   12  C3  UNL     1      27.542  -0.161  54.251  1.00  0.00     0.275 C 
HETATM   13  C2  UNL     1      28.852  -0.797  53.807  1.00  0.00     0.065 C 
HETATM   14  C1  UNL     1      28.478  -1.894  52.831  1.00  0.00     0.221 C 
HETATM   15  C17 UNL     1      27.020  -1.845  52.458  1.00  0.00     0.065 C 
HETATM   16  C16 UNL     1      26.607  -0.448  52.112  1.00  0.00     0.275 C 
BRANCH  14  17
HETATM   17  N1  UNL     1      28.813  -3.217  53.378  1.00  0.00     0.083 N 
HETATM   18  H1  UNL     1      28.053  -3.851  53.055  1.00  0.00     0.313 HD
HETATM   19  H2  UNL     1      28.726  -3.134  54.415  1.00  0.00     0.313 HD
ENDBRANCH  14  17
ENDBRANCH  10  11
ENDBRANCH   1  10
BRANCH   8  20
HETATM   20  N6  UNL     1      24.900   2.762  50.871  1.00  0.00    -0.338 N 
HETATM   21  H13 UNL     1      25.493   2.483  51.672  1.00  0.00     0.167 HD
BRANCH  20  22
HETATM   22  C10 UNL     1      25.370   3.769  49.992  1.00  0.00     0.044 C 
HETATM   23  C11 UNL     1      25.001   4.878  49.416  1.00  0.00     0.003 C 
HETATM   24  C12 UNL     1      25.974   5.604  48.928  1.00  0.00     0.014 C 
HETATM   25  C13 UNL     1      27.117   4.699  48.864  1.00  0.00     0.003 C 
HETATM   26  C14 UNL     1      26.733   3.599  49.511  1.00  0.00     0.030 C 
ENDBRANCH  20  22
ENDBRANCH   8  20
TORSDOF 5
ENDMDL
MODEL 4
REMARK VINA RESULT:      -7.7      1.959      4.837
REMARK  5 active torsions:
REMARK  status: ('A' for Active; 'I' for Inactive)
REMARK    1  A    between atoms: N1_1  and  C1_2 
REMARK    2  A    between atoms: N2_5  and  C4_6 
REMARK    3  A    between atoms: C4_6  and  C5_7 
REMARK    4  A    between atoms: C9_14  and  N6_15 
REMARK    5  A    between atoms: N6_15  and  C10_16 
ROOT
HETATM    1  C5  UNL     1      27.490   1.328  53.540  1.00  0.00     0.004 A 
HETATM    2  C6  UNL     1      28.770   1.720  53.815  1.00  0.00     0.030 A 
HETATM    3  C7  UNL     1      29.605   0.639  53.783  1.00  0.00     0.119 A 
HETATM    4  N3  UNL     1      28.853  -0.443  53.487  1.00  0.00    -0.240 N 
HETATM    5  N4  UNL     1      29.229  -1.696  53.352  1.00  0.00    -0.161 NA
HETATM    6  C8  UNL     1      28.344  -2.656  53.054  1.00  0.00     0.258 A 
HETATM    7  N5  UNL     1      27.037  -2.340  52.887  1.00  0.00    -0.220 NA
HETATM    8  C9  UNL     1      26.684  -1.036  53.033  1.00  0.00     0.159 A 
HETATM    9  C15 UNL     1      27.582  -0.035  53.339  1.00  0.00     0.112 A 
ENDROOT
BRANCH   1  10
HETATM   10  C4  UNL     1      26.261   2.134  53.447  1.00  0.00     0.313 C 
BRANCH  10  11
HETATM   11  N2  UNL     1      25.752   2.136  52.087  1.00  0.00     0.092 N 
HETATM   12  C3  UNL     1      24.460   2.840  52.038  1.00  0.00     0.275 C 
HETATM   13  C2  UNL     1      23.885   2.494  50.672  1.00  0.00     0.065 C 
HETATM   14  C1  UNL     1      24.747   3.217  49.656  1.00  0.00     0.221 C 
HETATM   15  C17 UNL     1      25.973   3.823  50.287  1.00  0.00     0.065 C 
HETATM   16  C16 UNL     1      26.652   2.835  51.184  1.00  0.00     0.275 C 
BRANCH  14  17
HETATM   17  N1  UNL     1      23.974   4.256  48.960  1.00  0.00     0.083 N 
HETATM   18  H1  UNL     1      23.162   4.459  49.579  1.00  0.00     0.313 HD
HETATM   19  H2  UNL     1      23.599   3.810  48.094  1.00  0.00     0.313 HD
ENDBRANCH  14  17
ENDBRANCH  10  11
ENDBRANCH   1  10
BRANCH   8  20
HETATM   20  N6  UNL     1      25.303  -0.727  52.854  1.00  0.00    -0.338 N 
HETATM   21  H13 UNL     1      25.341  -0.388  51.876  1.00  0.00     0.167 HD
BRANCH  20  22
HETATM   22  C10 UNL     1      24.055  -0.741  53.524  1.00  0.00     0.044 C 
HETATM   23  C11 UNL     1      22.784  -0.539  53.322  1.00  0.00     0.003 C 
HETATM   24  C12 UNL     1      21.990  -1.013  54.248  1.00  0.00     0.014 C 
HETATM   25  C13 UNL     1      22.861  -1.263  55.391  1.00  0.00     0.003 C 
HETATM   26  C14 UNL     1      24.101  -1.094  54.935  1.00  0.00     0.030 C 
ENDBRANCH  20  22
ENDBRANCH   8  20
TORSDOF 5
ENDMDL
MODEL 5
REMARK VINA RESULT:      -7.5      2.179      5.514
REMARK  5 active torsions:
REMARK  status: ('A' for Active; 'I' for Inactive)
REMARK    1  A    between atoms: N1_1  and  C1_2 
REMARK    2  A    between atoms: N2_5  and  C4_6 
REMARK    3  A    between atoms: C4_6  and  C5_7 
REMARK    4  A    between atoms: C9_14  and  N6_15 
REMARK    5  A    between atoms: N6_15  and  C10_16 
ROOT
HETATM    1  C5  UNL     1      23.392  -0.047  53.428  1.00  0.00     0.004 A 
HETATM    2  C6  UNL     1      23.457  -0.903  54.491  1.00  0.00     0.030 A 
HETATM    3  C7  UNL     1      22.211  -1.379  54.784  1.00  0.00     0.119 A 
HETATM    4  N3  UNL     1      21.350  -0.823  53.905  1.00  0.00    -0.240 N 
HETATM    5  N4  UNL     1      20.048  -0.989  53.808  1.00  0.00    -0.161 NA
HETATM    6  C8  UNL     1      19.338  -0.353  52.867  1.00  0.00     0.258 A 
HETATM    7  N5  UNL     1      19.961   0.477  51.997  1.00  0.00    -0.220 NA
HETATM    8  C9  UNL     1      21.306   0.624  52.125  1.00  0.00     0.159 A 
HETATM    9  C15 UNL     1      22.054  -0.023  53.087  1.00  0.00     0.112 A 
ENDROOT
BRANCH   1  10
HETATM   10  C4  UNL     1      24.469   0.691  52.749  1.00  0.00     0.313 C 
BRANCH  10  11
HETATM   11  N2  UNL     1      25.717   0.563  53.479  1.00  0.00     0.092 N 
HETATM   12  C3  UNL     1      26.731  -0.080  52.630  1.00  0.00     0.275 C 
HETATM   13  C2  UNL     1      27.856  -0.452  53.586  1.00  0.00     0.065 C 
HETATM   14  C1  UNL     1      28.495   0.854  54.013  1.00  0.00     0.221 C 
HETATM   15  C17 UNL     1      27.699   2.047  53.556  1.00  0.00     0.065 C 
HETATM   16  C16 UNL     1      26.245   1.864  53.861  1.00  0.00     0.275 C 
BRANCH  14  17
HETATM   17  N1  UNL     1      29.875   0.948  53.511  1.00  0.00     0.083 N 
HETATM   18  H1  UNL     1      30.396   0.182  53.987  1.00  0.00     0.313 HD
HETATM   19  H2  UNL     1      30.255   1.851  53.871  1.00  0.00     0.313 HD
ENDBRANCH  14  17
ENDBRANCH  10  11
ENDBRANCH   1  10
BRANCH   8  20
HETATM   20  N6  UNL     1      21.941   1.503  51.199  1.00  0.00    -0.338 N 
HETATM   21  H13 UNL     1      22.392   2.146  51.873  1.00  0.00     0.167 HD
BRANCH  20  22
HETATM   22  C10 UNL     1      22.119   1.734  49.812  1.00  0.00     0.044 C 
HETATM   23  C11 UNL     1      21.703   1.329  48.647  1.00  0.00     0.003 C 
HETATM   24  C12 UNL     1      21.974   2.130  47.648  1.00  0.00     0.014 C 
HETATM   25  C13 UNL     1      23.007   3.024  48.159  1.00  0.00     0.003 C 
HETATM   26  C14 UNL     1      23.080   2.770  49.465  1.00  0.00     0.030 C 
ENDBRANCH  20  22
ENDBRANCH   8  20
TORSDOF 5
ENDMDL
MODEL 6
REMARK VINA RESULT:      -7.5      2.386      6.206
REMARK  5 active torsions:
REMARK  status: ('A' for Active; 'I' for Inactive)
REMARK    1  A    between atoms: N1_1  and  C1_2 
REMARK    2  A    between atoms: N2_5  and  C4_6 
REMARK    3  A    between atoms: C4_6  and  C5_7 
REMARK    4  A    between atoms: C9_14  and  N6_15 
REMARK    5  A    between atoms: N6_15  and  C10_16 
ROOT
HETATM    1  C5  UNL     1      24.363   2.445  51.839  1.00  0.00     0.004 A 
HETATM    2  C6  UNL     1      23.394   1.634  52.359  1.00  0.00     0.030 A 
HETATM    3  C7  UNL     1      22.199   2.294  52.385  1.00  0.00     0.119 A 
HETATM    4  N3  UNL     1      22.408   3.528  51.880  1.00  0.00    -0.240 N 
HETATM    5  N4  UNL     1      21.546   4.508  51.712  1.00  0.00    -0.161 NA
HETATM    6  C8  UNL     1      21.925   5.682  51.192  1.00  0.00     0.258 A 
HETATM    7  N5  UNL     1      23.217   5.874  50.829  1.00  0.00    -0.220 NA
HETATM    8  C9  UNL     1      24.079   4.841  51.015  1.00  0.00     0.159 A 
HETATM    9  C15 UNL     1      23.706   3.625  51.549  1.00  0.00     0.112 A 
ENDROOT
BRANCH   1  10
HETATM   10  C4  UNL     1      25.790   2.171  51.601  1.00  0.00     0.313 C 
BRANCH  10  11
HETATM   11  N2  UNL     1      26.300   1.227  52.580  1.00  0.00     0.092 N 
HETATM   12  C3  UNL     1      26.703  -0.020  51.911  1.00  0.00     0.275 C 
HETATM   13  C2  UNL     1      26.898  -1.019  53.042  1.00  0.00     0.065 C 
HETATM   14  C1  UNL     1      28.140  -0.574  53.788  1.00  0.00     0.221 C 
HETATM   15  C17 UNL     1      28.617   0.779  53.331  1.00  0.00     0.065 C 
HETATM   16  C16 UNL     1      27.479   1.747  53.256  1.00  0.00     0.275 C 
BRANCH  14  17
HETATM   17  N1  UNL     1      29.218  -1.563  53.644  1.00  0.00     0.083 N 
HETATM   18  H1  UNL     1      29.701  -1.583  54.567  1.00  0.00     0.313 HD
HETATM   19  H2  UNL     1      29.890  -1.164  52.952  1.00  0.00     0.313 HD
ENDBRANCH  14  17
ENDBRANCH  10  11
ENDBRANCH   1  10
BRANCH   8  20
HETATM   20  N6  UNL     1      25.434   5.065  50.628  1.00  0.00    -0.338 N 
HETATM   21  H13 UNL     1      25.903   4.722  51.484  1.00  0.00     0.167 HD
BRANCH  20  22
HETATM   22  C10 UNL     1      26.230   5.553  49.562  1.00  0.00     0.044 C 
HETATM   23  C11 UNL     1      26.361   6.579  48.771  1.00  0.00     0.003 C 
HETATM   24  C12 UNL     1      27.508   6.658  48.146  1.00  0.00     0.014 C 
HETATM   25  C13 UNL     1      28.091   5.326  48.269  1.00  0.00     0.003 C 
HETATM   26  C14 UNL     1      27.306   4.675  49.127  1.00  0.00     0.030 C 
ENDBRANCH  20  22
ENDBRANCH   8  20
TORSDOF 5
ENDMDL
MODEL 7
REMARK VINA RESULT:      -7.2      1.936      5.364
REMARK  5 active torsions:
REMARK  status: ('A' for Active; 'I' for Inactive)
REMARK    1  A    between atoms: N1_1  and  C1_2 
REMARK    2  A    between atoms: N2_5  and  C4_6 
REMARK    3  A    between atoms: C4_6  and  C5_7 
REMARK    4  A    between atoms: C9_14  and  N6_15 
REMARK    5  A    between atoms: N6_15  and  C10_16 
ROOT
HETATM    1  C5  UNL     1      26.347  -0.264  52.586  1.00  0.00     0.004 A 
HETATM    2  C6  UNL     1      26.910  -1.491  52.798  1.00  0.00     0.030 A 
HETATM    3  C7  UNL     1      28.104  -1.350  53.448  1.00  0.00     0.119 A 
HETATM    4  N3  UNL     1      28.300  -0.029  53.649  1.00  0.00    -0.240 N 
HETATM    5  N4  UNL     1      29.312   0.574  54.235  1.00  0.00    -0.161 NA
HETATM    6  C8  UNL     1      29.348   1.908  54.351  1.00  0.00     0.258 A 
HETATM    7  N5  UNL     1      28.331   2.656  53.860  1.00  0.00    -0.220 NA
HETATM    8  C9  UNL     1      27.302   2.000  53.263  1.00  0.00     0.159 A 
HETATM    9  C15 UNL     1      27.247   0.628  53.134  1.00  0.00     0.112 A 
ENDROOT
BRANCH   1  10
HETATM   10  C4  UNL     1      25.069   0.084  51.944  1.00  0.00     0.313 C 
BRANCH  10  11
HETATM   11  N2  UNL     1      24.050   0.355  52.944  1.00  0.00     0.092 N 
HETATM   12  C3  UNL     1      22.750   0.567  52.289  1.00  0.00     0.275 C 
HETATM   13  C2  UNL     1      21.863   1.156  53.376  1.00  0.00     0.065 C 
HETATM   14  C1  UNL     1      21.608   0.035  54.365  1.00  0.00     0.221 C 
HETATM   15  C17 UNL     1      22.466  -1.170  54.084  1.00  0.00     0.065 C 
HETATM   16  C16 UNL     1      23.890  -0.767  53.856  1.00  0.00     0.275 C 
BRANCH  14  17
HETATM   17  N1  UNL     1      20.188  -0.348  54.366  1.00  0.00     0.083 N 
HETATM   18  H1  UNL     1      19.672   0.502  54.676  1.00  0.00     0.313 HD
HETATM   19  H2  UNL     1      20.080  -1.066  55.115  1.00  0.00     0.313 HD
ENDBRANCH  14  17
ENDBRANCH  10  11
ENDBRANCH   1  10
BRANCH   8  20
HETATM   20  N6  UNL     1      26.243   2.808  52.752  1.00  0.00    -0.338 N 
HETATM   21  H13 UNL     1      25.818   3.099  53.650  1.00  0.00     0.167 HD
BRANCH  20  22
HETATM   22  C10 UNL     1      25.670   3.272  51.543  1.00  0.00     0.044 C 
HETATM   23  C11 UNL     1      24.556   3.736  51.051  1.00  0.00     0.003 C 
HETATM   24  C12 UNL     1      24.664   4.332  49.891  1.00  0.00     0.014 C 
HETATM   25  C13 UNL     1      25.962   3.911  49.377  1.00  0.00     0.003 C 
HETATM   26  C14 UNL     1      26.553   3.273  50.387  1.00  0.00     0.030 C 
ENDBRANCH  20  22
ENDBRANCH   8  20
TORSDOF 5
ENDMDL
MODEL 8
REMARK VINA RESULT:      -7.1      2.261      5.832
REMARK  5 active torsions:
REMARK  status: ('A' for Active; 'I' for Inactive)
REMARK    1  A    between atoms: N1_1  and  C1_2 
REMARK    2  A    between atoms: N2_5  and  C4_6 
REMARK    3  A    between atoms: C4_6  and  C5_7 
REMARK    4  A    between atoms: C9_14  and  N6_15 
REMARK    5  A    between atoms: N6_15  and  C10_16 
ROOT
HETATM    1  C5  UNL     1      23.863   1.152  52.301  1.00  0.00     0.004 A 
HETATM    2  C6  UNL     1      23.206   0.272  53.115  1.00  0.00     0.030 A 
HETATM    3  C7  UNL     1      21.988  -0.037  52.581  1.00  0.00     0.119 A 
HETATM    4  N3  UNL     1      21.868   0.648  51.424  1.00  0.00    -0.240 N 
HETATM    5  N4  UNL     1      20.865   0.662  50.573  1.00  0.00    -0.161 NA
HETATM    6  C8  UNL     1      20.910   1.408  49.462  1.00  0.00     0.258 A 
HETATM    7  N5  UNL     1      22.004   2.165  49.202  1.00  0.00    -0.220 NA
HETATM    8  C9  UNL     1      23.021   2.126  50.101  1.00  0.00     0.159 A 
HETATM    9  C15 UNL     1      22.992   1.364  51.250  1.00  0.00     0.112 A 
ENDROOT
BRANCH   1  10
HETATM   10  C4  UNL     1      25.198   1.752  52.451  1.00  0.00     0.313 C 
BRANCH  10  11
HETATM   11  N2  UNL     1      26.096   0.840  53.136  1.00  0.00     0.092 N 
HETATM   12  C3  UNL     1      26.781  -0.018  52.156  1.00  0.00     0.275 C 
HETATM   13  C2  UNL     1      27.419  -1.121  52.990  1.00  0.00     0.065 C 
HETATM   14  C1  UNL     1      28.543  -0.465  53.766  1.00  0.00     0.221 C 
HETATM   15  C17 UNL     1      28.513   1.036  53.643  1.00  0.00     0.065 C 
HETATM   16  C16 UNL     1      27.129   1.559  53.866  1.00  0.00     0.275 C 
BRANCH  14  17
HETATM   17  N1  UNL     1      29.850  -0.979  53.329  1.00  0.00     0.083 N 
HETATM   18  H1  UNL     1      29.759  -1.131  52.303  1.00  0.00     0.313 HD
HETATM   19  H2  UNL     1      29.957  -1.918  53.772  1.00  0.00     0.313 HD
ENDBRANCH  14  17
ENDBRANCH  10  11
ENDBRANCH   1  10
BRANCH   8  20
HETATM   20  N6  UNL     1      24.161   2.932  49.808  1.00  0.00    -0.338 N 
HETATM   21  H13 UNL     1      24.902   2.280  50.121  1.00  0.00     0.167 HD
BRANCH  20  22
HETATM   22  C10 UNL     1      24.539   4.194  49.285  1.00  0.00     0.044 C 
HETATM   23  C11 UNL     1      24.039   5.267  48.743  1.00  0.00     0.003 C 
HETATM   24  C12 UNL     1      24.831   6.309  48.734  1.00  0.00     0.014 C 
HETATM   25  C13 UNL     1      26.160   5.766  48.994  1.00  0.00     0.003 C 
HETATM   26  C14 UNL     1      25.963   4.490  49.324  1.00  0.00     0.030 C 
ENDBRANCH  20  22
ENDBRANCH   8  20
TORSDOF 5
ENDMDL
MODEL 9
REMARK VINA RESULT:      -7.0      1.308      4.274
REMARK  5 active torsions:
REMARK  status: ('A' for Active; 'I' for Inactive)
REMARK    1  A    between atoms: N1_1  and  C1_2 
REMARK    2  A    between atoms: N2_5  and  C4_6 
REMARK    3  A    between atoms: C4_6  and  C5_7 
REMARK    4  A    between atoms: C9_14  and  N6_15 
REMARK    5  A    between atoms: N6_15  and  C10_16 
ROOT
HETATM    1  C5  UNL     1      25.979   1.676  51.969  1.00  0.00     0.004 A 
HETATM    2  C6  UNL     1      27.125   2.406  51.821  1.00  0.00     0.030 A 
HETATM    3  C7  UNL     1      27.979   2.146  52.855  1.00  0.00     0.119 A 
HETATM    4  N3  UNL     1      27.374   1.249  53.663  1.00  0.00    -0.240 N 
HETATM    5  N4  UNL     1      27.820   0.711  54.778  1.00  0.00    -0.161 NA
HETATM    6  C8  UNL     1      27.082  -0.172  55.463  1.00  0.00     0.258 A 
HETATM    7  N5  UNL     1      25.854  -0.523  55.008  1.00  0.00    -0.220 NA
HETATM    8  C9  UNL     1      25.427   0.051  53.854  1.00  0.00     0.159 A 
HETATM    9  C15 UNL     1      26.172   0.962  53.135  1.00  0.00     0.112 A 
ENDROOT
BRANCH   1  10
HETATM   10  C4  UNL     1      24.789   1.611  51.104  1.00  0.00     0.313 C 
BRANCH  10  11
HETATM   11  N2  UNL     1      24.092   2.885  51.097  1.00  0.00     0.092 N 
HETATM   12  C3  UNL     1      24.312   3.584  52.372  1.00  0.00     0.275 C 
HETATM   13  C2  UNL     1      23.291   4.713  52.375  1.00  0.00     0.065 C 
HETATM   14  C1  UNL     1      23.751   5.699  51.319  1.00  0.00     0.221 C 
HETATM   15  C17 UNL     1      24.884   5.152  50.492  1.00  0.00     0.065 C 
HETATM   16  C16 UNL     1      24.587   3.756  50.042  1.00  0.00     0.275 C 
BRANCH  14  17
HETATM   17  N1  UNL     1      24.148   6.975  51.935  1.00  0.00     0.083 N 
HETATM   18  H1  UNL     1      23.305   7.584  51.877  1.00  0.00     0.313 HD
HETATM   19  H2  UNL     1      24.872   7.389  51.308  1.00  0.00     0.313 HD
ENDBRANCH  14  17
ENDBRANCH  10  11
ENDBRANCH   1  10
BRANCH   8  20
HETATM   20  N6  UNL     1      24.131  -0.331  53.395  1.00  0.00    -0.338 N 
HETATM   21  H13 UNL     1      24.402  -0.757  52.491  1.00  0.00     0.167 HD
BRANCH  20  22
HETATM   22  C10 UNL     1      22.761  -0.308  53.755  1.00  0.00     0.044 C 
HETATM   23  C11 UNL     1      21.891  -0.919  54.506  1.00  0.00     0.003 C 
HETATM   24  C12 UNL     1      20.776  -0.267  54.712  1.00  0.00     0.014 C 
HETATM   25  C13 UNL     1      20.755   0.768  53.684  1.00  0.00     0.003 C 
HETATM   26  C14 UNL     1      21.961   0.727  53.118  1.00  0.00     0.030 C 
ENDBRANCH  20  22
ENDBRANCH   8  20
TORSDOF 5
ENDMDL
