MODEL 1
REMARK VINA RESULT:      -8.6      0.000      0.000
REMARK  2 active torsions:
REMARK  status: ('A' for Active; 'I' for Inactive)
REMARK    1  A    between atoms: C2_2  and  C3_3 
REMARK    2  A    between atoms: C2_2  and  N1_7 
ROOT
HETATM    1  N1  UNL     1      26.256   0.626  53.336  1.00  0.00    -0.334 N 
HETATM    2  C7  UNL     1      26.316  -0.244  54.493  1.00  0.00     0.204 A 
HETATM    3  N2  UNL     1      25.283  -0.840  54.997  1.00  0.00    -0.280 NA
HETATM    4  C8  UNL     1      23.954  -0.688  54.440  1.00  0.00     0.188 A 
HETATM    5  C9  UNL     1      23.956   0.215  53.257  1.00  0.00    -0.018 A 
HETATM    6  C10 UNL     1      24.969   0.835  52.716  1.00  0.00     0.043 A 
HETATM    7  C11 UNL     1      25.420   1.732  51.665  1.00  0.00     0.232 C 
HETATM    8  O1  UNL     1      24.417   2.216  50.803  1.00  0.00    -0.347 OA
HETATM    9  C12 UNL     1      23.145   2.057  50.361  1.00  0.00     0.072 C 
HETATM   10  C13 UNL     1      22.102   1.416  50.845  1.00  0.00     0.038 C 
HETATM   11  C14 UNL     1      20.838   1.463  50.066  1.00  0.00     0.086 C 
HETATM   12  C15 UNL     1      21.195   1.191  48.641  1.00  0.00    -0.024 C 
HETATM   13  C16 UNL     1      22.245   1.841  48.159  1.00  0.00    -0.024 C 
HETATM   14  C17 UNL     1      22.957   2.770  49.076  1.00  0.00     0.093 C 
HETATM   15  N3  UNL     1      21.884   0.648  51.998  1.00  0.00    -0.387 N 
HETATM   16  C18 UNL     1      22.508   0.027  53.110  1.00  0.00     0.157 C 
HETATM   17  H19 UNL     1      20.868   0.420  52.121  1.00  0.00     0.159 HD
ENDROOT
BRANCH   1  18
HETATM   18  C2  UNL     1      27.574   1.101  53.058  1.00  0.00     0.119 C 
HETATM   19  C1  UNL     1      27.945   2.309  53.903  1.00  0.00     0.038 C 
BRANCH  18  20
HETATM   20  C3  UNL     1      28.638   0.060  53.296  1.00  0.00    -0.035 A 
HETATM   21  C4  UNL     1      29.899   0.019  53.764  1.00  0.00     0.009 A 
HETATM   22  C5  UNL     1      30.016  -1.401  53.586  1.00  0.00     0.001 A 
HETATM   23  C6  UNL     1      28.778  -1.381  53.124  1.00  0.00     0.009 A 
ENDBRANCH  18  20
ENDBRANCH   1  18
TORSDOF 2
ENDMDL
MODEL 2
REMARK VINA RESULT:      -8.2      2.430      5.934
REMARK  2 active torsions:
REMARK  status: ('A' for Active; 'I' for Inactive)
REMARK    1  A    between atoms: C2_2  and  C3_3 
REMARK    2  A    between atoms: C2_2  and  N1_7 
ROOT
HETATM    1  N1  UNL     1      24.461   3.206  50.669  1.00  0.00    -0.334 N 
HETATM    2  C7  UNL     1      25.817   3.264  50.163  1.00  0.00     0.204 A 
HETATM    3  N2  UNL     1      26.771   2.490  50.571  1.00  0.00    -0.280 NA
HETATM    4  C8  UNL     1      26.563   1.479  51.588  1.00  0.00     0.188 A 
HETATM    5  C9  UNL     1      25.155   1.467  52.069  1.00  0.00    -0.018 A 
HETATM    6  C10 UNL     1      24.164   2.226  51.687  1.00  0.00     0.043 A 
HETATM    7  C11 UNL     1      22.758   2.557  51.850  1.00  0.00     0.232 C 
HETATM    8  O1  UNL     1      22.062   1.808  52.819  1.00  0.00    -0.347 OA
HETATM    9  C12 UNL     1      22.070   0.697  53.596  1.00  0.00     0.072 C 
HETATM   10  C13 UNL     1      23.027  -0.121  53.981  1.00  0.00     0.038 C 
HETATM   11  C14 UNL     1      22.654  -1.261  54.856  1.00  0.00     0.086 C 
HETATM   12  C15 UNL     1      21.433  -1.884  54.261  1.00  0.00    -0.024 C 
HETATM   13  C16 UNL     1      20.472  -1.055  53.878  1.00  0.00    -0.024 C 
HETATM   14  C17 UNL     1      20.701   0.401  54.079  1.00  0.00     0.093 C 
HETATM   15  N3  UNL     1      24.408  -0.177  53.745  1.00  0.00    -0.387 N 
HETATM   16  C18 UNL     1      25.477   0.368  52.988  1.00  0.00     0.157 C 
HETATM   17  H19 UNL     1      24.872  -0.898  54.349  1.00  0.00     0.159 HD
ENDROOT
BRANCH   1  18
HETATM   18  C2  UNL     1      23.682   4.194  49.994  1.00  0.00     0.119 C 
HETATM   19  C1  UNL     1      24.510   5.400  49.579  1.00  0.00     0.038 C 
BRANCH  18  20
HETATM   20  C3  UNL     1      23.019   3.671  48.746  1.00  0.00    -0.035 A 
HETATM   21  C4  UNL     1      22.447   4.179  47.638  1.00  0.00     0.009 A 
HETATM   22  C5  UNL     1      22.139   2.886  47.095  1.00  0.00     0.001 A 
HETATM   23  C6  UNL     1      22.697   2.368  48.176  1.00  0.00     0.009 A 
ENDBRANCH  18  20
ENDBRANCH   1  18
TORSDOF 2
ENDMDL
MODEL 3
REMARK VINA RESULT:      -8.0      1.749      6.436
REMARK  2 active torsions:
REMARK  status: ('A' for Active; 'I' for Inactive)
REMARK    1  A    between atoms: C2_2  and  C3_3 
REMARK    2  A    between atoms: C2_2  and  N1_7 
ROOT
HETATM    1  N1  UNL     1      22.428   0.350  52.556  1.00  0.00    -0.334 N 
HETATM    2  C7  UNL     1      21.304  -0.233  53.261  1.00  0.00     0.204 A 
HETATM    3  N2  UNL     1      21.419  -0.921  54.352  1.00  0.00    -0.280 NA
HETATM    4  C8  UNL     1      22.702  -1.173  54.975  1.00  0.00     0.188 A 
HETATM    5  C9  UNL     1      23.815  -0.552  54.208  1.00  0.00    -0.018 A 
HETATM    6  C10 UNL     1      23.747   0.147  53.108  1.00  0.00     0.043 A 
HETATM    7  C11 UNL     1      24.481   0.882  52.091  1.00  0.00     0.232 C 
HETATM    8  O1  UNL     1      25.880   0.913  52.250  1.00  0.00    -0.347 OA
HETATM    9  C12 UNL     1      26.917   0.708  53.099  1.00  0.00     0.072 C 
HETATM   10  C13 UNL     1      27.031   0.047  54.232  1.00  0.00     0.038 C 
HETATM   11  C14 UNL     1      28.358   0.041  54.899  1.00  0.00     0.086 C 
HETATM   12  C15 UNL     1      28.857   1.449  54.887  1.00  0.00    -0.024 C 
HETATM   13  C16 UNL     1      28.742   2.109  53.743  1.00  0.00    -0.024 C 
HETATM   14  C17 UNL     1      28.133   1.387  52.593  1.00  0.00     0.093 C 
HETATM   15  N3  UNL     1      26.139  -0.703  55.011  1.00  0.00    -0.387 N 
HETATM   16  C18 UNL     1      24.780  -1.067  55.188  1.00  0.00     0.157 C 
HETATM   17  H19 UNL     1      26.636  -1.210  55.783  1.00  0.00     0.159 HD
ENDROOT
BRANCH   1  18
HETATM   18  C2  UNL     1      21.934   1.038  51.407  1.00  0.00     0.119 C 
HETATM   19  C1  UNL     1      20.694   0.379  50.825  1.00  0.00     0.038 C 
BRANCH  18  20
HETATM   20  C3  UNL     1      21.572   2.474  51.690  1.00  0.00    -0.035 A 
HETATM   21  C4  UNL     1      22.194   3.667  51.714  1.00  0.00     0.009 A 
HETATM   22  C5  UNL     1      21.004   4.381  52.085  1.00  0.00     0.001 A 
HETATM   23  C6  UNL     1      20.377   3.218  52.067  1.00  0.00     0.009 A 
ENDBRANCH  18  20
ENDBRANCH   1  18
TORSDOF 2
ENDMDL
MODEL 4
REMARK VINA RESULT:      -8.0      1.631      2.117
REMARK  2 active torsions:
REMARK  status: ('A' for Active; 'I' for Inactive)
REMARK    1  A    between atoms: C2_2  and  C3_3 
REMARK    2  A    between atoms: C2_2  and  N1_7 
ROOT
HETATM    1  N1  UNL     1      24.955  -0.040  53.730  1.00  0.00    -0.334 N 
HETATM    2  C7  UNL     1      25.303  -0.882  54.857  1.00  0.00     0.204 A 
HETATM    3  N2  UNL     1      24.429  -1.447  55.628  1.00  0.00    -0.280 NA
HETATM    4  C8  UNL     1      23.003  -1.285  55.430  1.00  0.00     0.188 A 
HETATM    5  C9  UNL     1      22.709  -0.412  54.261  1.00  0.00    -0.018 A 
HETATM    6  C10 UNL     1      23.553   0.176  53.459  1.00  0.00     0.043 A 
HETATM    7  C11 UNL     1      23.726   1.039  52.301  1.00  0.00     0.232 C 
HETATM    8  O1  UNL     1      22.539   1.518  51.714  1.00  0.00    -0.347 OA
HETATM    9  C12 UNL     1      21.194   1.370  51.621  1.00  0.00     0.072 C 
HETATM   10  C13 UNL     1      20.305   0.761  52.377  1.00  0.00     0.038 C 
HETATM   11  C14 UNL     1      18.883   0.810  51.950  1.00  0.00     0.086 C 
HETATM   12  C15 UNL     1      18.856   0.496  50.490  1.00  0.00    -0.024 C 
HETATM   13  C16 UNL     1      19.752   1.115  49.734  1.00  0.00    -0.024 C 
HETATM   14  C17 UNL     1      20.687   2.055  50.409  1.00  0.00     0.093 C 
HETATM   15  N3  UNL     1      20.386   0.025  53.568  1.00  0.00    -0.387 N 
HETATM   16  C18 UNL     1      21.269  -0.578  54.498  1.00  0.00     0.157 C 
HETATM   17  H19 UNL     1      19.434  -0.182  53.956  1.00  0.00     0.159 HD
ENDROOT
BRANCH   1  18
HETATM   18  C2  UNL     1      26.160   0.405  53.107  1.00  0.00     0.119 C 
HETATM   19  C1  UNL     1      26.784   1.587  53.830  1.00  0.00     0.038 C 
BRANCH  18  20
HETATM   20  C3  UNL     1      27.217  -0.668  53.036  1.00  0.00    -0.035 A 
HETATM   21  C4  UNL     1      27.314  -1.937  52.598  1.00  0.00     0.009 A 
HETATM   22  C5  UNL     1      28.694  -2.057  52.976  1.00  0.00     0.001 A 
HETATM   23  C6  UNL     1      28.618  -0.812  53.411  1.00  0.00     0.009 A 
ENDBRANCH  18  20
ENDBRANCH   1  18
TORSDOF 2
ENDMDL
MODEL 5
REMARK VINA RESULT:      -7.6      8.148     11.139
REMARK  2 active torsions:
REMARK  status: ('A' for Active; 'I' for Inactive)
REMARK    1  A    between atoms: C2_2  and  C3_3 
REMARK    2  A    between atoms: C2_2  and  N1_7 
ROOT
HETATM    1  N1  UNL     1      28.746   7.596  48.589  1.00  0.00    -0.334 N 
HETATM    2  C7  UNL     1      28.612   8.956  49.070  1.00  0.00     0.204 A 
HETATM    3  N2  UNL     1      29.611   9.682  49.460  1.00  0.00    -0.280 NA
HETATM    4  C8  UNL     1      30.974   9.190  49.450  1.00  0.00     0.188 A 
HETATM    5  C9  UNL     1      31.047   7.791  48.948  1.00  0.00    -0.018 A 
HETATM    6  C10 UNL     1      30.071   7.024  48.546  1.00  0.00     0.043 A 
HETATM    7  C11 UNL     1      29.688   5.722  48.024  1.00  0.00     0.232 C 
HETATM    8  O1  UNL     1      30.740   4.802  47.846  1.00  0.00    -0.347 OA
HETATM    9  C12 UNL     1      32.082   4.637  47.754  1.00  0.00     0.072 C 
HETATM   10  C13 UNL     1      33.104   5.389  48.108  1.00  0.00     0.038 C 
HETATM   11  C14 UNL     1      34.470   4.869  47.845  1.00  0.00     0.086 C 
HETATM   12  C15 UNL     1      34.472   4.341  46.447  1.00  0.00    -0.024 C 
HETATM   13  C16 UNL     1      33.443   3.583  46.098  1.00  0.00    -0.024 C 
HETATM   14  C17 UNL     1      32.395   3.333  47.125  1.00  0.00     0.093 C 
HETATM   15  N3  UNL     1      33.217   6.649  48.713  1.00  0.00    -0.387 N 
HETATM   16  C18 UNL     1      32.504   7.801  49.130  1.00  0.00     0.157 C 
HETATM   17  H19 UNL     1      34.210   6.860  48.976  1.00  0.00     0.159 HD
ENDROOT
BRANCH   1  18
HETATM   18  C2  UNL     1      27.449   7.107  48.243  1.00  0.00     0.119 C 
HETATM   19  C1  UNL     1      26.465   7.210  49.397  1.00  0.00     0.038 C 
BRANCH  18  20
HETATM   20  C3  UNL     1      26.834   7.841  47.079  1.00  0.00    -0.035 A 
HETATM   21  C4  UNL     1      25.608   8.240  46.694  1.00  0.00     0.009 A 
HETATM   22  C5  UNL     1      26.085   8.837  45.478  1.00  0.00     0.001 A 
HETATM   23  C6  UNL     1      27.297   8.453  45.840  1.00  0.00     0.009 A 
ENDBRANCH  18  20
ENDBRANCH   1  18
TORSDOF 2
ENDMDL
MODEL 6
REMARK VINA RESULT:      -7.5      2.972      5.303
REMARK  2 active torsions:
REMARK  status: ('A' for Active; 'I' for Inactive)
REMARK    1  A    between atoms: C2_2  and  C3_3 
REMARK    2  A    between atoms: C2_2  and  N1_7 
ROOT
HETATM    1  N1  UNL     1      22.743   1.806  51.405  1.00  0.00    -0.334 N 
HETATM    2  C7  UNL     1      21.971   0.723  50.831  1.00  0.00     0.204 A 
HETATM    3  N2  UNL     1      21.499   0.737  49.625  1.00  0.00    -0.280 NA
HETATM    4  C8  UNL     1      21.705   1.856  48.728  1.00  0.00     0.188 A 
HETATM    5  C9  UNL     1      22.503   2.935  49.372  1.00  0.00    -0.018 A 
HETATM    6  C10 UNL     1      22.997   2.963  50.579  1.00  0.00     0.043 A 
HETATM    7  C11 UNL     1      23.762   3.717  51.558  1.00  0.00     0.232 C 
HETATM    8  O1  UNL     1      24.206   4.987  51.141  1.00  0.00    -0.347 OA
HETATM    9  C12 UNL     1      24.419   5.809  50.084  1.00  0.00     0.072 C 
HETATM   10  C13 UNL     1      23.978   5.806  48.843  1.00  0.00     0.038 C 
HETATM   11  C14 UNL     1      24.437   6.895  47.943  1.00  0.00     0.086 C 
HETATM   12  C15 UNL     1      25.913   7.025  48.134  1.00  0.00    -0.024 C 
HETATM   13  C16 UNL     1      26.350   7.029  49.385  1.00  0.00    -0.024 C 
HETATM   14  C17 UNL     1      25.336   6.908  50.467  1.00  0.00     0.093 C 
HETATM   15  N3  UNL     1      23.122   4.963  48.120  1.00  0.00    -0.387 N 
HETATM   16  C18 UNL     1      22.419   3.732  48.142  1.00  0.00     0.157 C 
HETATM   17  H19 UNL     1      22.886   5.370  47.182  1.00  0.00     0.159 HD
ENDROOT
BRANCH   1  18
HETATM   18  C2  UNL     1      23.101   1.449  52.740  1.00  0.00     0.119 C 
HETATM   19  C1  UNL     1      21.991   0.697  53.456  1.00  0.00     0.038 C 
BRANCH  18  20
HETATM   20  C3  UNL     1      24.331   0.580  52.809  1.00  0.00    -0.035 A 
HETATM   21  C4  UNL     1      24.712  -0.551  53.430  1.00  0.00     0.009 A 
HETATM   22  C5  UNL     1      26.025  -0.536  52.847  1.00  0.00     0.001 A 
HETATM   23  C6  UNL     1      25.668   0.576  52.228  1.00  0.00     0.009 A 
ENDBRANCH  18  20
ENDBRANCH   1  18
TORSDOF 2
ENDMDL
MODEL 7
REMARK VINA RESULT:      -7.5      2.597      6.566
REMARK  2 active torsions:
REMARK  status: ('A' for Active; 'I' for Inactive)
REMARK    1  A    between atoms: C2_2  and  C3_3 
REMARK    2  A    between atoms: C2_2  and  N1_7 
ROOT
HETATM    1  N1  UNL     1      22.915   3.823  50.449  1.00  0.00    -0.334 N 
HETATM    2  C7  UNL     1      21.520   4.205  50.523  1.00  0.00     0.204 A 
HETATM    3  N2  UNL     1      20.655   3.624  51.293  1.00  0.00    -0.280 NA
HETATM    4  C8  UNL     1      21.013   2.522  52.163  1.00  0.00     0.188 A 
HETATM    5  C9  UNL     1      22.455   2.176  52.043  1.00  0.00    -0.018 A 
HETATM    6  C10 UNL     1      23.359   2.731  51.284  1.00  0.00     0.043 A 
HETATM    7  C11 UNL     1      24.751   2.738  50.863  1.00  0.00     0.232 C 
HETATM    8  O1  UNL     1      25.573   1.758  51.453  1.00  0.00    -0.347 OA
HETATM    9  C12 UNL     1      25.701   0.862  52.462  1.00  0.00     0.072 C 
HETATM   10  C13 UNL     1      24.834   0.300  53.278  1.00  0.00     0.038 C 
HETATM   11  C14 UNL     1      25.353  -0.661  54.284  1.00  0.00     0.086 C 
HETATM   12  C15 UNL     1      26.555  -0.031  54.908  1.00  0.00    -0.024 C 
HETATM   13  C16 UNL     1      27.426   0.531  54.082  1.00  0.00    -0.024 C 
HETATM   14  C17 UNL     1      27.123   0.478  52.626  1.00  0.00     0.093 C 
HETATM   15  N3  UNL     1      23.444   0.400  53.434  1.00  0.00    -0.387 N 
HETATM   16  C18 UNL     1      22.283   1.111  53.040  1.00  0.00     0.157 C 
HETATM   17  H19 UNL     1      23.080  -0.323  54.102  1.00  0.00     0.159 HD
ENDROOT
BRANCH   1  18
HETATM   18  C2  UNL     1      23.570   4.675  49.509  1.00  0.00     0.119 C 
HETATM   19  C1  UNL     1      22.834   4.745  48.181  1.00  0.00     0.038 C 
BRANCH  18  20
HETATM   20  C3  UNL     1      23.717   6.092  50.001  1.00  0.00    -0.035 A 
HETATM   21  C4  UNL     1      24.260   6.724  51.058  1.00  0.00     0.009 A 
HETATM   22  C5  UNL     1      23.873   8.026  50.593  1.00  0.00     0.001 A 
HETATM   23  C6  UNL     1      23.335   7.424  49.547  1.00  0.00     0.009 A 
ENDBRANCH  18  20
ENDBRANCH   1  18
TORSDOF 2
ENDMDL
MODEL 8
REMARK VINA RESULT:      -7.2      6.772      8.353
REMARK  2 active torsions:
REMARK  status: ('A' for Active; 'I' for Inactive)
REMARK    1  A    between atoms: C2_2  and  C3_3 
REMARK    2  A    between atoms: C2_2  and  N1_7 
ROOT
HETATM    1  N1  UNL     1      28.149   8.238  48.327  1.00  0.00    -0.334 N 
HETATM    2  C7  UNL     1      27.960   9.645  48.619  1.00  0.00     0.204 A 
HETATM    3  N2  UNL     1      27.024  10.099  49.390  1.00  0.00    -0.280 NA
HETATM    4  C8  UNL     1      26.067   9.227  50.040  1.00  0.00     0.188 A 
HETATM    5  C9  UNL     1      26.311   7.798  49.703  1.00  0.00    -0.018 A 
HETATM    6  C10 UNL     1      27.238   7.296  48.934  1.00  0.00     0.043 A 
HETATM    7  C11 UNL     1      27.816   6.092  48.359  1.00  0.00     0.232 C 
HETATM    8  O1  UNL     1      27.175   4.885  48.698  1.00  0.00    -0.347 OA
HETATM    9  C12 UNL     1      26.306   4.275  49.542  1.00  0.00     0.072 C 
HETATM   10  C13 UNL     1      25.382   4.731  50.361  1.00  0.00     0.038 C 
HETATM   11  C14 UNL     1      24.604   3.740  51.148  1.00  0.00     0.086 C 
HETATM   12  C15 UNL     1      25.585   2.766  51.713  1.00  0.00    -0.024 C 
HETATM   13  C16 UNL     1      26.511   2.308  50.883  1.00  0.00    -0.024 C 
HETATM   14  C17 UNL     1      26.481   2.805  49.480  1.00  0.00     0.093 C 
HETATM   15  N3  UNL     1      24.928   6.016  50.691  1.00  0.00    -0.387 N 
HETATM   16  C18 UNL     1      25.174   7.404  50.545  1.00  0.00     0.157 C 
HETATM   17  H19 UNL     1      24.062   5.976  51.283  1.00  0.00     0.159 HD
ENDROOT
BRANCH   1  18
HETATM   18  C2  UNL     1      29.270   8.103  47.453  1.00  0.00     0.119 C 
HETATM   19  C1  UNL     1      29.321   9.200  46.402  1.00  0.00     0.038 C 
BRANCH  18  20
HETATM   20  C3  UNL     1      30.590   8.134  48.179  1.00  0.00    -0.035 A 
HETATM   21  C4  UNL     1      31.647   8.962  48.283  1.00  0.00     0.009 A 
HETATM   22  C5  UNL     1      32.349   8.099  49.191  1.00  0.00     0.001 A 
HETATM   23  C6  UNL     1      31.320   7.274  49.102  1.00  0.00     0.009 A 
ENDBRANCH  18  20
ENDBRANCH   1  18
TORSDOF 2
ENDMDL
MODEL 9
REMARK VINA RESULT:      -7.1      2.582      7.449
REMARK  2 active torsions:
REMARK  status: ('A' for Active; 'I' for Inactive)
REMARK    1  A    between atoms: C2_2  and  C3_3 
REMARK    2  A    between atoms: C2_2  and  N1_7 
ROOT
HETATM    1  N1  UNL     1      21.313   3.403  49.900  1.00  0.00    -0.334 N 
HETATM    2  C7  UNL     1      20.674   4.703  49.846  1.00  0.00     0.204 A 
HETATM    3  N2  UNL     1      20.970   5.682  50.640  1.00  0.00    -0.280 NA
HETATM    4  C8  UNL     1      21.983   5.564  51.669  1.00  0.00     0.188 A 
HETATM    5  C9  UNL     1      22.602   4.210  51.675  1.00  0.00    -0.018 A 
HETATM    6  C10 UNL     1      22.336   3.197  50.898  1.00  0.00     0.043 A 
HETATM    7  C11 UNL     1      22.641   1.816  50.559  1.00  0.00     0.232 C 
HETATM    8  O1  UNL     1      23.626   1.196  51.352  1.00  0.00    -0.347 OA
HETATM    9  C12 UNL     1      24.634   1.383  52.238  1.00  0.00     0.072 C 
HETATM   10  C13 UNL     1      24.967   2.391  53.016  1.00  0.00     0.038 C 
HETATM   11  C14 UNL     1      26.167   2.234  53.878  1.00  0.00     0.086 C 
HETATM   12  C15 UNL     1      27.246   1.659  53.019  1.00  0.00    -0.024 C 
HETATM   13  C16 UNL     1      26.905   0.642  52.240  1.00  0.00    -0.024 C 
HETATM   14  C17 UNL     1      25.493   0.177  52.298  1.00  0.00     0.093 C 
HETATM   15  N3  UNL     1      24.424   3.665  53.240  1.00  0.00    -0.387 N 
HETATM   16  C18 UNL     1      23.467   4.610  52.793  1.00  0.00     0.157 C 
HETATM   17  H19 UNL     1      24.884   4.140  54.054  1.00  0.00     0.159 HD
ENDROOT
BRANCH   1  18
HETATM   18  C2  UNL     1      20.746   2.577  48.882  1.00  0.00     0.119 C 
HETATM   19  C1  UNL     1      19.238   2.442  49.019  1.00  0.00     0.038 C 
BRANCH  18  20
HETATM   20  C3  UNL     1      21.012   3.091  47.491  1.00  0.00    -0.035 A 
HETATM   21  C4  UNL     1      22.079   3.290  46.694  1.00  0.00     0.009 A 
HETATM   22  C5  UNL     1      21.286   3.794  45.607  1.00  0.00     0.001 A 
HETATM   23  C6  UNL     1      20.227   3.605  46.375  1.00  0.00     0.009 A 
ENDBRANCH  18  20
ENDBRANCH   1  18
TORSDOF 2
ENDMDL
