MODEL 1
REMARK VINA RESULT:      -8.7      0.000      0.000
REMARK  3 active torsions:
REMARK  status: ('A' for Active; 'I' for Inactive)
REMARK    1  A    between atoms: N1_7  and  C7_8 
REMARK    2  A    between atoms: C7_8  and  C8_9 
REMARK    3  A    between atoms: C9_10  and  O1_11 
ROOT
HETATM    1  C1  UNL     1      20.510   5.097  49.750  1.00  0.00     0.049 C 
HETATM    2  C2  UNL     1      21.729   4.733  50.579  1.00  0.00    -0.050 C 
HETATM    3  C3  UNL     1      21.809   3.569  51.184  1.00  0.00     0.007 C 
HETATM    4  C4  UNL     1      22.187   2.399  51.952  1.00  0.00    -0.002 C 
HETATM    5  C5  UNL     1      23.256   2.101  52.692  1.00  0.00    -0.007 C 
HETATM    6  C6  UNL     1      24.499   2.888  53.038  1.00  0.00     0.153 C 
HETATM    7  N1  UNL     1      25.532   2.323  52.239  1.00  0.00    -0.351 N 
HETATM    8  C14 UNL     1      25.557   3.306  51.147  1.00  0.00     0.174 C 
HETATM    9  S1  UNL     1      26.312   3.602  49.746  1.00  0.00    -0.041 SA
HETATM   10  N2  UNL     1      24.846   4.475  50.907  1.00  0.00    -0.332 N 
HETATM   11  C15 UNL     1      24.123   5.668  50.657  1.00  0.00     0.045 A 
HETATM   12  C16 UNL     1      24.976   6.744  50.586  1.00  0.00     0.030 A 
HETATM   13  C17 UNL     1      24.576   8.053  50.386  1.00  0.00     0.002 A 
HETATM   14  C18 UNL     1      23.218   8.153  50.268  1.00  0.00     0.001 A 
HETATM   15  C19 UNL     1      22.338   7.101  50.333  1.00  0.00     0.014 A 
HETATM   16  C20 UNL     1      22.735   5.814  50.529  1.00  0.00    -0.004 A 
HETATM   17  H18 UNL     1      24.320   4.594  51.740  1.00  0.00     0.168 HD
ENDROOT
BRANCH   7  18
HETATM   18  C7  UNL     1      26.484   1.337  51.890  1.00  0.00     0.163 C 
BRANCH  18  19
HETATM   19  C8  UNL     1      27.484   1.072  52.979  1.00  0.00    -0.022 A 
HETATM   20  C9  UNL     1      28.543   1.789  53.341  1.00  0.00     0.070 A 
HETATM   21  C10 UNL     1      29.213   1.130  54.451  1.00  0.00     0.033 A 
HETATM   22  C11 UNL     1      28.545   0.017  54.746  1.00  0.00    -0.015 A 
HETATM   23  C12 UNL     1      27.391  -0.128  53.849  1.00  0.00     0.037 A 
HETATM   24  C13 UNL     1      27.632  -1.324  52.917  1.00  0.00     0.019 C 
BRANCH  20  25
HETATM   25  O1  UNL     1      29.205   2.976  52.980  1.00  0.00    -0.360 OA
HETATM   26  H11 UNL     1      28.967   3.353  52.065  1.00  0.00     0.217 HD
ENDBRANCH  20  25
ENDBRANCH  18  19
ENDBRANCH   7  18
TORSDOF 3
ENDMDL
MODEL 2
REMARK VINA RESULT:      -8.4      2.101      3.562
REMARK  3 active torsions:
REMARK  status: ('A' for Active; 'I' for Inactive)
REMARK    1  A    between atoms: N1_7  and  C7_8 
REMARK    2  A    between atoms: C7_8  and  C8_9 
REMARK    3  A    between atoms: C9_10  and  O1_11 
ROOT
HETATM    1  C1  UNL     1      23.131   6.033  47.902  1.00  0.00     0.049 C 
HETATM    2  C2  UNL     1      23.747   4.825  48.585  1.00  0.00    -0.050 C 
HETATM    3  C3  UNL     1      24.962   4.880  49.083  1.00  0.00     0.007 C 
HETATM    4  C4  UNL     1      26.243   4.629  49.715  1.00  0.00    -0.002 C 
HETATM    5  C5  UNL     1      26.778   3.554  50.296  1.00  0.00    -0.007 C 
HETATM    6  C6  UNL     1      26.254   2.152  50.506  1.00  0.00     0.153 C 
HETATM    7  N1  UNL     1      25.904   2.088  51.884  1.00  0.00    -0.351 N 
HETATM    8  C14 UNL     1      24.454   2.307  51.774  1.00  0.00     0.174 C 
HETATM    9  S1  UNL     1      23.136   2.448  52.702  1.00  0.00    -0.041 SA
HETATM   10  N2  UNL     1      23.603   2.497  50.693  1.00  0.00    -0.332 N 
HETATM   11  C15 UNL     1      22.731   2.690  49.593  1.00  0.00     0.045 A 
HETATM   12  C16 UNL     1      21.785   1.693  49.546  1.00  0.00     0.030 A 
HETATM   13  C17 UNL     1      20.810   1.580  48.571  1.00  0.00     0.002 A 
HETATM   14  C18 UNL     1      20.898   2.586  47.650  1.00  0.00     0.001 A 
HETATM   15  C19 UNL     1      21.828   3.595  47.667  1.00  0.00     0.014 A 
HETATM   16  C20 UNL     1      22.785   3.704  48.628  1.00  0.00    -0.004 A 
HETATM   17  H18 UNL     1      24.196   2.351  49.910  1.00  0.00     0.168 HD
ENDROOT
BRANCH   7  18
HETATM   18  C7  UNL     1      26.174   1.990  53.269  1.00  0.00     0.163 C 
BRANCH  18  19
HETATM   19  C8  UNL     1      27.467   1.289  53.568  1.00  0.00    -0.022 A 
HETATM   20  C9  UNL     1      28.712   1.745  53.475  1.00  0.00     0.070 A 
HETATM   21  C10 UNL     1      29.639   0.696  53.872  1.00  0.00     0.033 A 
HETATM   22  C11 UNL     1      28.937  -0.385  54.200  1.00  0.00    -0.015 A 
HETATM   23  C12 UNL     1      27.501  -0.118  54.042  1.00  0.00     0.037 A 
HETATM   24  C13 UNL     1      26.965  -0.954  52.871  1.00  0.00     0.019 C 
BRANCH  20  25
HETATM   25  O1  UNL     1      29.397   2.919  53.113  1.00  0.00    -0.360 OA
HETATM   26  H11 UNL     1      30.196   3.160  53.696  1.00  0.00     0.217 HD
ENDBRANCH  20  25
ENDBRANCH  18  19
ENDBRANCH   7  18
TORSDOF 3
ENDMDL
MODEL 3
REMARK VINA RESULT:      -8.3      4.172      7.189
REMARK  3 active torsions:
REMARK  status: ('A' for Active; 'I' for Inactive)
REMARK    1  A    between atoms: N1_7  and  C7_8 
REMARK    2  A    between atoms: C7_8  and  C8_9 
REMARK    3  A    between atoms: C9_10  and  O1_11 
ROOT
HETATM    1  C1  UNL     1      26.719   1.638  53.684  1.00  0.00     0.049 C 
HETATM    2  C2  UNL     1      25.435   1.377  52.916  1.00  0.00    -0.050 C 
HETATM    3  C3  UNL     1      24.536   0.535  53.375  1.00  0.00     0.007 C 
HETATM    4  C4  UNL     1      23.382  -0.311  53.608  1.00  0.00    -0.002 C 
HETATM    5  C5  UNL     1      22.267  -0.544  52.913  1.00  0.00    -0.007 C 
HETATM    6  C6  UNL     1      21.776  -0.022  51.582  1.00  0.00     0.153 C 
HETATM    7  N1  UNL     1      20.766   0.927  51.904  1.00  0.00    -0.351 N 
HETATM    8  C14 UNL     1      21.550   2.164  51.778  1.00  0.00     0.174 C 
HETATM    9  S1  UNL     1      21.394   3.766  51.947  1.00  0.00    -0.041 SA
HETATM   10  N2  UNL     1      22.869   2.420  51.428  1.00  0.00    -0.332 N 
HETATM   11  C15 UNL     1      24.214   2.685  51.071  1.00  0.00     0.045 A 
HETATM   12  C16 UNL     1      24.269   3.473  49.944  1.00  0.00     0.030 A 
HETATM   13  C17 UNL     1      25.437   3.879  49.325  1.00  0.00     0.002 A 
HETATM   14  C18 UNL     1      26.542   3.401  49.969  1.00  0.00     0.001 A 
HETATM   15  C19 UNL     1      26.525   2.614  51.094  1.00  0.00     0.014 A 
HETATM   16  C20 UNL     1      25.374   2.217  51.702  1.00  0.00    -0.004 A 
HETATM   17  H18 UNL     1      23.208   1.527  51.157  1.00  0.00     0.168 HD
ENDROOT
BRANCH   7  18
HETATM   18  C7  UNL     1      19.476   1.330  52.321  1.00  0.00     0.163 C 
BRANCH  18  19
HETATM   19  C8  UNL     1      18.506   0.188  52.417  1.00  0.00    -0.022 A 
HETATM   20  C9  UNL     1      18.573  -0.914  53.157  1.00  0.00     0.070 A 
HETATM   21  C10 UNL     1      17.395  -1.732  52.911  1.00  0.00     0.033 A 
HETATM   22  C11 UNL     1      16.628  -1.108  52.020  1.00  0.00    -0.015 A 
HETATM   23  C12 UNL     1      17.251   0.161  51.622  1.00  0.00     0.037 A 
HETATM   24  C13 UNL     1      17.700   0.058  50.158  1.00  0.00     0.019 C 
BRANCH  20  25
HETATM   25  O1  UNL     1      19.429  -1.523  54.093  1.00  0.00    -0.360 OA
HETATM   26  H11 UNL     1      19.184  -2.475  54.359  1.00  0.00     0.217 HD
ENDBRANCH  20  25
ENDBRANCH  18  19
ENDBRANCH   7  18
TORSDOF 3
ENDMDL
MODEL 4
REMARK VINA RESULT:      -8.2      2.662      6.769
REMARK  3 active torsions:
REMARK  status: ('A' for Active; 'I' for Inactive)
REMARK    1  A    between atoms: N1_7  and  C7_8 
REMARK    2  A    between atoms: C7_8  and  C8_9 
REMARK    3  A    between atoms: C9_10  and  O1_11 
ROOT
HETATM    1  C1  UNL     1      22.085  -1.240  53.933  1.00  0.00     0.049 C 
HETATM    2  C2  UNL     1      22.601  -0.200  52.953  1.00  0.00    -0.050 C 
HETATM    3  C3  UNL     1      21.862   0.198  51.942  1.00  0.00     0.007 C 
HETATM    4  C4  UNL     1      21.305   0.827  50.761  1.00  0.00    -0.002 C 
HETATM    5  C5  UNL     1      21.780   1.727  49.898  1.00  0.00    -0.007 C 
HETATM    6  C6  UNL     1      23.110   2.438  49.806  1.00  0.00     0.153 C 
HETATM    7  N1  UNL     1      22.857   3.763  50.260  1.00  0.00    -0.351 N 
HETATM    8  C14 UNL     1      23.339   3.640  51.643  1.00  0.00     0.174 C 
HETATM    9  S1  UNL     1      23.484   4.511  52.999  1.00  0.00    -0.041 SA
HETATM   10  N2  UNL     1      23.910   2.596  52.359  1.00  0.00    -0.332 N 
HETATM   11  C15 UNL     1      24.494   1.534  53.093  1.00  0.00     0.045 A 
HETATM   12  C16 UNL     1      25.755   1.878  53.521  1.00  0.00     0.030 A 
HETATM   13  C17 UNL     1      26.597   1.045  54.235  1.00  0.00     0.002 A 
HETATM   14  C18 UNL     1      26.024  -0.174  54.467  1.00  0.00     0.001 A 
HETATM   15  C19 UNL     1      24.770  -0.550  54.056  1.00  0.00     0.014 A 
HETATM   16  C20 UNL     1      23.943   0.272  53.355  1.00  0.00    -0.004 A 
HETATM   17  H18 UNL     1      24.035   1.892  51.671  1.00  0.00     0.168 HD
ENDROOT
BRANCH   7  18
HETATM   18  C7  UNL     1      22.360   5.082  50.141  1.00  0.00     0.163 C 
BRANCH  18  19
HETATM   19  C8  UNL     1      23.379   6.048  49.610  1.00  0.00    -0.022 A 
HETATM   20  C9  UNL     1      23.929   7.102  50.204  1.00  0.00     0.070 A 
HETATM   21  C10 UNL     1      24.865   7.736  49.288  1.00  0.00     0.033 A 
HETATM   22  C11 UNL     1      24.866   7.053  48.146  1.00  0.00    -0.015 A 
HETATM   23  C12 UNL     1      23.932   5.923  48.237  1.00  0.00     0.037 A 
HETATM   24  C13 UNL     1      22.746   6.182  47.296  1.00  0.00     0.019 C 
BRANCH  20  25
HETATM   25  O1  UNL     1      23.881   7.783  51.434  1.00  0.00    -0.360 OA
HETATM   26  H11 UNL     1      23.105   8.431  51.549  1.00  0.00     0.217 HD
ENDBRANCH  20  25
ENDBRANCH  18  19
ENDBRANCH   7  18
TORSDOF 3
ENDMDL
MODEL 5
REMARK VINA RESULT:      -8.2      3.195      6.823
REMARK  3 active torsions:
REMARK  status: ('A' for Active; 'I' for Inactive)
REMARK    1  A    between atoms: N1_7  and  C7_8 
REMARK    2  A    between atoms: C7_8  and  C8_9 
REMARK    3  A    between atoms: C9_10  and  O1_11 
ROOT
HETATM    1  C1  UNL     1      22.047  -1.578  54.215  1.00  0.00     0.049 C 
HETATM    2  C2  UNL     1      21.919  -0.285  53.429  1.00  0.00    -0.050 C 
HETATM    3  C3  UNL     1      22.934   0.544  53.328  1.00  0.00     0.007 C 
HETATM    4  C4  UNL     1      23.843   1.636  53.038  1.00  0.00    -0.002 C 
HETATM    5  C5  UNL     1      23.710   2.777  52.360  1.00  0.00    -0.007 C 
HETATM    6  C6  UNL     1      22.535   3.393  51.636  1.00  0.00     0.153 C 
HETATM    7  N1  UNL     1      22.806   3.201  50.252  1.00  0.00    -0.351 N 
HETATM    8  C14 UNL     1      21.972   2.015  50.007  1.00  0.00     0.174 C 
HETATM    9  S1  UNL     1      21.578   0.987  48.821  1.00  0.00    -0.041 SA
HETATM   10  N2  UNL     1      21.124   1.269  50.814  1.00  0.00    -0.332 N 
HETATM   11  C15 UNL     1      20.257   0.504  51.634  1.00  0.00     0.045 A 
HETATM   12  C16 UNL     1      18.974   0.533  51.139  1.00  0.00     0.030 A 
HETATM   13  C17 UNL     1      17.889  -0.089  51.731  1.00  0.00     0.002 A 
HETATM   14  C18 UNL     1      18.245  -0.741  52.878  1.00  0.00     0.001 A 
HETATM   15  C19 UNL     1      19.514  -0.791  53.399  1.00  0.00     0.014 A 
HETATM   16  C20 UNL     1      20.580  -0.179  52.814  1.00  0.00    -0.004 A 
HETATM   17  H18 UNL     1      21.105   1.786  51.661  1.00  0.00     0.168 HD
ENDROOT
BRANCH   7  18
HETATM   18  C7  UNL     1      23.458   3.472  49.028  1.00  0.00     0.163 C 
BRANCH  18  19
HETATM   19  C8  UNL     1      24.332   4.692  49.085  1.00  0.00    -0.022 A 
HETATM   20  C9  UNL     1      25.479   4.876  49.731  1.00  0.00     0.070 A 
HETATM   21  C10 UNL     1      25.957   6.228  49.488  1.00  0.00     0.033 A 
HETATM   22  C11 UNL     1      25.086   6.846  48.693  1.00  0.00    -0.015 A 
HETATM   23  C12 UNL     1      23.979   5.940  48.361  1.00  0.00     0.037 A 
HETATM   24  C13 UNL     1      22.698   6.452  49.035  1.00  0.00     0.019 C 
BRANCH  20  25
HETATM   25  O1  UNL     1      26.359   4.169  50.570  1.00  0.00    -0.360 OA
HETATM   26  H11 UNL     1      26.612   3.234  50.256  1.00  0.00     0.217 HD
ENDBRANCH  20  25
ENDBRANCH  18  19
ENDBRANCH   7  18
TORSDOF 3
ENDMDL
MODEL 6
REMARK VINA RESULT:      -8.1      3.057      6.166
REMARK  3 active torsions:
REMARK  status: ('A' for Active; 'I' for Inactive)
REMARK    1  A    between atoms: N1_7  and  C7_8 
REMARK    2  A    between atoms: C7_8  and  C8_9 
REMARK    3  A    between atoms: C9_10  and  O1_11 
ROOT
HETATM    1  C1  UNL     1      19.338   0.210  51.575  1.00  0.00     0.049 C 
HETATM    2  C2  UNL     1      20.653   0.764  51.055  1.00  0.00    -0.050 C 
HETATM    3  C3  UNL     1      20.694   1.476  49.951  1.00  0.00     0.007 C 
HETATM    4  C4  UNL     1      21.061   2.275  48.798  1.00  0.00    -0.002 C 
HETATM    5  C5  UNL     1      22.226   2.739  48.344  1.00  0.00    -0.007 C 
HETATM    6  C6  UNL     1      23.641   2.593  48.853  1.00  0.00     0.153 C 
HETATM    7  N1  UNL     1      23.957   3.849  49.444  1.00  0.00    -0.351 N 
HETATM    8  C14 UNL     1      23.717   3.518  50.856  1.00  0.00     0.174 C 
HETATM    9  S1  UNL     1      23.745   4.200  52.323  1.00  0.00    -0.041 SA
HETATM   10  N2  UNL     1      23.329   2.352  51.504  1.00  0.00    -0.332 N 
HETATM   11  C15 UNL     1      22.934   1.165  52.170  1.00  0.00     0.045 A 
HETATM   12  C16 UNL     1      23.903   0.766  53.061  1.00  0.00     0.030 A 
HETATM   13  C17 UNL     1      23.831  -0.374  53.841  1.00  0.00     0.002 A 
HETATM   14  C18 UNL     1      22.674  -1.065  53.619  1.00  0.00     0.001 A 
HETATM   15  C19 UNL     1      21.687  -0.697  52.739  1.00  0.00     0.014 A 
HETATM   16  C20 UNL     1      21.760   0.426  51.974  1.00  0.00    -0.004 A 
HETATM   17  H18 UNL     1      23.330   1.678  50.775  1.00  0.00     0.168 HD
ENDROOT
BRANCH   7  18
HETATM   18  C7  UNL     1      24.308   5.218  49.424  1.00  0.00     0.163 C 
BRANCH  18  19
HETATM   19  C8  UNL     1      25.729   5.455  49.000  1.00  0.00    -0.022 A 
HETATM   20  C9  UNL     1      26.773   4.635  49.062  1.00  0.00     0.070 A 
HETATM   21  C10 UNL     1      27.948   5.311  48.533  1.00  0.00     0.033 A 
HETATM   22  C11 UNL     1      27.594   6.538  48.157  1.00  0.00    -0.015 A 
HETATM   23  C12 UNL     1      26.163   6.748  48.413  1.00  0.00     0.037 A 
HETATM   24  C13 UNL     1      26.006   7.779  49.540  1.00  0.00     0.019 C 
BRANCH  20  25
HETATM   25  O1  UNL     1      27.084   3.329  49.480  1.00  0.00    -0.360 OA
HETATM   26  H11 UNL     1      27.007   2.607  48.766  1.00  0.00     0.217 HD
ENDBRANCH  20  25
ENDBRANCH  18  19
ENDBRANCH   7  18
TORSDOF 3
ENDMDL
MODEL 7
REMARK VINA RESULT:      -8.1      3.020      6.507
REMARK  3 active torsions:
REMARK  status: ('A' for Active; 'I' for Inactive)
REMARK    1  A    between atoms: N1_7  and  C7_8 
REMARK    2  A    between atoms: C7_8  and  C8_9 
REMARK    3  A    between atoms: C9_10  and  O1_11 
ROOT
HETATM    1  C1  UNL     1      23.551  -0.932  54.142  1.00  0.00     0.049 C 
HETATM    2  C2  UNL     1      23.094   0.330  53.432  1.00  0.00    -0.050 C 
HETATM    3  C3  UNL     1      23.930   1.322  53.219  1.00  0.00     0.007 C 
HETATM    4  C4  UNL     1      24.590   2.557  52.846  1.00  0.00    -0.002 C 
HETATM    5  C5  UNL     1      24.170   3.668  52.237  1.00  0.00    -0.007 C 
HETATM    6  C6  UNL     1      22.815   4.082  51.710  1.00  0.00     0.153 C 
HETATM    7  N1  UNL     1      22.911   3.958  50.296  1.00  0.00    -0.351 N 
HETATM    8  C14 UNL     1      22.261   2.650  50.125  1.00  0.00     0.174 C 
HETATM    9  S1  UNL     1      21.877   1.585  48.969  1.00  0.00    -0.041 SA
HETATM   10  N2  UNL     1      21.677   1.758  51.016  1.00  0.00    -0.332 N 
HETATM   11  C15 UNL     1      21.080   0.845  51.920  1.00  0.00     0.045 A 
HETATM   12  C16 UNL     1      19.753   0.659  51.613  1.00  0.00     0.030 A 
HETATM   13  C17 UNL     1      18.886  -0.147  52.328  1.00  0.00     0.002 A 
HETATM   14  C18 UNL     1      19.509  -0.744  53.387  1.00  0.00     0.001 A 
HETATM   15  C19 UNL     1      20.831  -0.581  53.722  1.00  0.00     0.014 A 
HETATM   16  C20 UNL     1      21.681   0.212  53.016  1.00  0.00    -0.004 A 
HETATM   17  H18 UNL     1      21.695   2.253  51.876  1.00  0.00     0.168 HD
ENDROOT
BRANCH   7  18
HETATM   18  C7  UNL     1      23.323   4.354  49.003  1.00  0.00     0.163 C 
BRANCH  18  19
HETATM   19  C8  UNL     1      24.748   4.826  48.958  1.00  0.00    -0.022 A 
HETATM   20  C9  UNL     1      25.866   4.151  49.204  1.00  0.00     0.070 A 
HETATM   21  C10 UNL     1      27.009   5.035  49.034  1.00  0.00     0.033 A 
HETATM   22  C11 UNL     1      26.561   6.240  48.686  1.00  0.00    -0.015 A 
HETATM   23  C12 UNL     1      25.095   6.226  48.603  1.00  0.00     0.037 A 
HETATM   24  C13 UNL     1      24.524   7.087  49.738  1.00  0.00     0.019 C 
BRANCH  20  25
HETATM   25  O1  UNL     1      26.275   2.858  49.577  1.00  0.00    -0.360 OA
HETATM   26  H11 UNL     1      27.280   2.698  49.582  1.00  0.00     0.217 HD
ENDBRANCH  20  25
ENDBRANCH  18  19
ENDBRANCH   7  18
TORSDOF 3
ENDMDL
MODEL 8
REMARK VINA RESULT:      -8.1      2.892      7.488
REMARK  3 active torsions:
REMARK  status: ('A' for Active; 'I' for Inactive)
REMARK    1  A    between atoms: N1_7  and  C7_8 
REMARK    2  A    between atoms: C7_8  and  C8_9 
REMARK    3  A    between atoms: C9_10  and  O1_11 
ROOT
HETATM    1  C1  UNL     1      26.545  -1.402  52.847  1.00  0.00     0.049 C 
HETATM    2  C2  UNL     1      25.739  -0.127  52.673  1.00  0.00    -0.050 C 
HETATM    3  C3  UNL     1      26.201   0.869  51.950  1.00  0.00     0.007 C 
HETATM    4  C4  UNL     1      26.429   2.110  51.237  1.00  0.00    -0.002 C 
HETATM    5  C5  UNL     1      25.717   3.232  51.109  1.00  0.00    -0.007 C 
HETATM    6  C6  UNL     1      24.385   3.656  51.682  1.00  0.00     0.153 C 
HETATM    7  N1  UNL     1      23.465   3.556  50.601  1.00  0.00    -0.351 N 
HETATM    8  C14 UNL     1      22.864   2.252  50.916  1.00  0.00     0.174 C 
HETATM    9  S1  UNL     1      21.769   1.208  50.343  1.00  0.00    -0.041 SA
HETATM   10  N2  UNL     1      23.056   1.344  51.950  1.00  0.00    -0.332 N 
HETATM   11  C15 UNL     1      23.247   0.415  53.002  1.00  0.00     0.045 A 
HETATM   12  C16 UNL     1      22.080   0.236  53.707  1.00  0.00     0.030 A 
HETATM   13  C17 UNL     1      21.948  -0.583  54.813  1.00  0.00     0.002 A 
HETATM   14  C18 UNL     1      23.126  -1.199  55.129  1.00  0.00     0.001 A 
HETATM   15  C19 UNL     1      24.308  -1.043  54.449  1.00  0.00     0.014 A 
HETATM   16  C20 UNL     1      24.435  -0.237  53.360  1.00  0.00    -0.004 A 
HETATM   17  H18 UNL     1      23.675   1.824  52.559  1.00  0.00     0.168 HD
ENDROOT
BRANCH   7  18
HETATM   18  C7  UNL     1      22.863   3.975  49.392  1.00  0.00     0.163 C 
BRANCH  18  19
HETATM   19  C8  UNL     1      22.905   5.464  49.199  1.00  0.00    -0.022 A 
HETATM   20  C9  UNL     1      22.560   6.431  50.041  1.00  0.00     0.070 A 
HETATM   21  C10 UNL     1      22.775   7.722  49.406  1.00  0.00     0.033 A 
HETATM   22  C11 UNL     1      23.250   7.514  48.180  1.00  0.00    -0.015 A 
HETATM   23  C12 UNL     1      23.379   6.073  47.930  1.00  0.00     0.037 A 
HETATM   24  C13 UNL     1      22.350   5.657  46.870  1.00  0.00     0.019 C 
BRANCH  20  25
HETATM   25  O1  UNL     1      22.054   6.585  51.345  1.00  0.00    -0.360 OA
HETATM   26  H11 UNL     1      21.382   7.340  51.471  1.00  0.00     0.217 HD
ENDBRANCH  20  25
ENDBRANCH  18  19
ENDBRANCH   7  18
TORSDOF 3
ENDMDL
MODEL 9
REMARK VINA RESULT:      -8.1      3.144      7.538
REMARK  3 active torsions:
REMARK  status: ('A' for Active; 'I' for Inactive)
REMARK    1  A    between atoms: N1_7  and  C7_8 
REMARK    2  A    between atoms: C7_8  and  C8_9 
REMARK    3  A    between atoms: C9_10  and  O1_11 
ROOT
HETATM    1  C1  UNL     1      22.442  -1.264  54.596  1.00  0.00     0.049 C 
HETATM    2  C2  UNL     1      22.723  -0.373  53.399  1.00  0.00    -0.050 C 
HETATM    3  C3  UNL     1      21.807  -0.174  52.478  1.00  0.00     0.007 C 
HETATM    4  C4  UNL     1      21.027   0.234  51.326  1.00  0.00    -0.002 C 
HETATM    5  C5  UNL     1      21.295   1.004  50.270  1.00  0.00    -0.007 C 
HETATM    6  C6  UNL     1      22.542   1.748  49.850  1.00  0.00     0.153 C 
HETATM    7  N1  UNL     1      22.274   3.116  50.135  1.00  0.00    -0.351 N 
HETATM    8  C14 UNL     1      22.979   3.236  51.420  1.00  0.00     0.174 C 
HETATM    9  S1  UNL     1      23.278   4.317  52.585  1.00  0.00    -0.041 SA
HETATM   10  N2  UNL     1      23.727   2.345  52.178  1.00  0.00    -0.332 N 
HETATM   11  C15 UNL     1      24.491   1.440  52.955  1.00  0.00     0.045 A 
HETATM   12  C16 UNL     1      25.778   1.901  53.108  1.00  0.00     0.030 A 
HETATM   13  C17 UNL     1      26.778   1.229  53.787  1.00  0.00     0.002 A 
HETATM   14  C18 UNL     1      26.334   0.040  54.293  1.00  0.00     0.001 A 
HETATM   15  C19 UNL     1      25.059  -0.451  54.160  1.00  0.00     0.014 A 
HETATM   16  C20 UNL     1      24.076   0.214  53.492  1.00  0.00    -0.004 A 
HETATM   17  H18 UNL     1      23.788   1.546  51.593  1.00  0.00     0.168 HD
ENDROOT
BRANCH   7  18
HETATM   18  C7  UNL     1      21.676   4.376  49.905  1.00  0.00     0.163 C 
BRANCH  18  19
HETATM   19  C8  UNL     1      20.179   4.347  50.021  1.00  0.00    -0.022 A 
HETATM   20  C9  UNL     1      19.423   4.000  51.057  1.00  0.00     0.070 A 
HETATM   21  C10 UNL     1      18.020   4.131  50.694  1.00  0.00     0.033 A 
HETATM   22  C11 UNL     1      17.949   4.558  49.435  1.00  0.00    -0.015 A 
HETATM   23  C12 UNL     1      19.301   4.736  48.889  1.00  0.00     0.037 A 
HETATM   24  C13 UNL     1      19.543   3.678  47.804  1.00  0.00     0.019 C 
BRANCH  20  25
HETATM   25  O1  UNL     1      19.565   3.548  52.382  1.00  0.00    -0.360 OA
HETATM   26  H11 UNL     1      18.868   2.874  52.694  1.00  0.00     0.217 HD
ENDBRANCH  20  25
ENDBRANCH  18  19
ENDBRANCH   7  18
TORSDOF 3
ENDMDL
