MODEL 1
REMARK VINA RESULT:      -6.4      0.000      0.000
REMARK  7 active torsions:
REMARK  status: ('A' for Active; 'I' for Inactive)
REMARK    1  A    between atoms: C1_2  and  C2_3 
REMARK    2  A    between atoms: C3_5  and  C4_6 
REMARK    3  A    between atoms: C6_8  and  N1_9 
REMARK    4  A    between atoms: N1_9  and  C7_10 
REMARK    5  A    between atoms: C10_15  and  N4_16 
REMARK    6  A    between atoms: N4_16  and  C11_17 
REMARK    7  A    between atoms: C11_17  and  C12_18 
ROOT
HETATM    1  C7  UNL     1      27.259   1.137  52.826  1.00  0.00     0.157 A 
HETATM    2  N2  UNL     1      28.106   2.179  52.728  1.00  0.00    -0.222 NA
HETATM    3  C8  UNL     1      29.018   2.389  53.725  1.00  0.00     0.235 A 
HETATM    4  N3  UNL     1      29.055   1.555  54.783  1.00  0.00    -0.252 NA
HETATM    5  C9  UNL     1      28.194   0.530  54.839  1.00  0.00     0.151 A 
HETATM    6  C10 UNL     1      27.246   0.249  53.880  1.00  0.00     0.092 A 
ENDROOT
BRANCH   1   7
HETATM    7  N1  UNL     1      26.347   0.998  51.742  1.00  0.00    -0.338 N 
HETATM    8  H4  UNL     1      26.257   0.262  51.010  1.00  0.00     0.167 HD
BRANCH   7   9
HETATM    9  C6  UNL     1      25.339   1.979  51.530  1.00  0.00     0.057 A 
HETATM   10  C4  UNL     1      24.029   2.540  51.766  1.00  0.00     0.006 A 
HETATM   11  C5  UNL     1      24.910   3.130  50.914  1.00  0.00     0.018 A 
BRANCH  10  12
HETATM   12  C3  UNL     1      22.720   2.602  52.357  1.00  0.00     0.036 C 
HETATM   13  C2  UNL     1      21.675   1.975  51.837  1.00  0.00     0.041 C 
HETATM   14 CL1  UNL     1      21.882   1.032  50.374  1.00  0.00    -0.086 Cl
BRANCH  13  15
HETATM   15  C1  UNL     1      20.316   2.029  52.437  1.00  0.00     0.273 C 
HETATM   16  F1  UNL     1      20.353   1.522  53.715  1.00  0.00    -0.250 F 
ENDBRANCH  13  15
ENDBRANCH  10  12
ENDBRANCH   7   9
ENDBRANCH   1   7
BRANCH   6  17
HETATM   17  N4  UNL     1      26.355  -0.830  53.957  1.00  0.00    -0.385 N 
HETATM   18  H7  UNL     1      26.596  -1.696  53.412  1.00  0.00     0.159 HD
BRANCH  17  19
HETATM   19  C11 UNL     1      25.145  -0.842  54.714  1.00  0.00     0.126 C 
BRANCH  19  20
HETATM   20  C12 UNL     1      23.900  -0.706  53.925  1.00  0.00     0.030 C 
HETATM   21  C13 UNL     1      22.603  -0.914  53.731  1.00  0.00     0.239 C 
HETATM   22 CL2  UNL     1      21.099  -1.613  54.319  1.00  0.00    -0.255 Cl
ENDBRANCH  19  20
ENDBRANCH  17  19
ENDBRANCH   6  17
TORSDOF 7
ENDMDL
MODEL 2
REMARK VINA RESULT:      -6.3      2.339      4.586
REMARK  7 active torsions:
REMARK  status: ('A' for Active; 'I' for Inactive)
REMARK    1  A    between atoms: C1_2  and  C2_3 
REMARK    2  A    between atoms: C3_5  and  C4_6 
REMARK    3  A    between atoms: C6_8  and  N1_9 
REMARK    4  A    between atoms: N1_9  and  C7_10 
REMARK    5  A    between atoms: C10_15  and  N4_16 
REMARK    6  A    between atoms: N4_16  and  C11_17 
REMARK    7  A    between atoms: C11_17  and  C12_18 
ROOT
HETATM    1  C7  UNL     1      26.842   0.445  53.516  1.00  0.00     0.157 A 
HETATM    2  N2  UNL     1      27.564  -0.253  54.412  1.00  0.00    -0.222 NA
HETATM    3  C8  UNL     1      28.685   0.316  54.949  1.00  0.00     0.235 A 
HETATM    4  N3  UNL     1      29.048   1.559  54.576  1.00  0.00    -0.252 NA
HETATM    5  C9  UNL     1      28.300   2.219  53.682  1.00  0.00     0.151 A 
HETATM    6  C10 UNL     1      27.158   1.719  53.093  1.00  0.00     0.092 A 
ENDROOT
BRANCH   1   7
HETATM    7  N1  UNL     1      25.693  -0.227  53.013  1.00  0.00    -0.338 N 
HETATM    8  H4  UNL     1      25.436  -0.520  52.046  1.00  0.00     0.167 HD
BRANCH   7   9
HETATM    9  C6  UNL     1      24.652  -0.617  53.899  1.00  0.00     0.057 A 
HETATM   10  C4  UNL     1      23.268  -0.899  54.204  1.00  0.00     0.006 A 
HETATM   11  C5  UNL     1      24.239  -1.015  55.149  1.00  0.00     0.018 A 
BRANCH  10  12
HETATM   12  C3  UNL     1      21.865  -1.022  53.917  1.00  0.00     0.036 C 
HETATM   13  C2  UNL     1      21.176  -0.062  53.315  1.00  0.00     0.041 C 
HETATM   14 CL1  UNL     1      21.994   1.417  52.849  1.00  0.00    -0.086 Cl
BRANCH  13  15
HETATM   15  C1  UNL     1      19.726  -0.174  53.011  1.00  0.00     0.273 C 
HETATM   16  F1  UNL     1      19.533  -0.135  51.650  1.00  0.00    -0.250 F 
ENDBRANCH  13  15
ENDBRANCH  10  12
ENDBRANCH   7   9
ENDBRANCH   1   7
BRANCH   6  17
HETATM   17  N4  UNL     1      26.388   2.426  52.161  1.00  0.00    -0.385 N 
HETATM   18  H7  UNL     1      25.639   3.062  52.534  1.00  0.00     0.159 HD
BRANCH  17  19
HETATM   19  C11 UNL     1      26.539   2.346  50.744  1.00  0.00     0.126 C 
BRANCH  19  20
HETATM   20  C12 UNL     1      26.408   3.630  50.018  1.00  0.00     0.030 C 
HETATM   21  C13 UNL     1      26.889   4.598  49.245  1.00  0.00     0.239 C 
HETATM   22 CL2  UNL     1      28.246   5.240  48.329  1.00  0.00    -0.255 Cl
ENDBRANCH  19  20
ENDBRANCH  17  19
ENDBRANCH   6  17
TORSDOF 7
ENDMDL
MODEL 3
REMARK VINA RESULT:      -6.3      1.931      2.075
REMARK  7 active torsions:
REMARK  status: ('A' for Active; 'I' for Inactive)
REMARK    1  A    between atoms: C1_2  and  C2_3 
REMARK    2  A    between atoms: C3_5  and  C4_6 
REMARK    3  A    between atoms: C6_8  and  N1_9 
REMARK    4  A    between atoms: N1_9  and  C7_10 
REMARK    5  A    between atoms: C10_15  and  N4_16 
REMARK    6  A    between atoms: N4_16  and  C11_17 
REMARK    7  A    between atoms: C11_17  and  C12_18 
ROOT
HETATM    1  C7  UNL     1      27.204   1.096  52.837  1.00  0.00     0.157 A 
HETATM    2  N2  UNL     1      28.059   2.130  52.735  1.00  0.00    -0.222 NA
HETATM    3  C8  UNL     1      28.965   2.344  53.735  1.00  0.00     0.235 A 
HETATM    4  N3  UNL     1      28.989   1.522  54.802  1.00  0.00    -0.252 NA
HETATM    5  C9  UNL     1      28.121   0.503  54.863  1.00  0.00     0.151 A 
HETATM    6  C10 UNL     1      27.178   0.218  53.901  1.00  0.00     0.092 A 
ENDROOT
BRANCH   1   7
HETATM    7  N1  UNL     1      26.299   0.951  51.749  1.00  0.00    -0.338 N 
HETATM    8  H4  UNL     1      26.287   0.284  50.948  1.00  0.00     0.167 HD
BRANCH   7   9
HETATM    9  C6  UNL     1      25.175   1.815  51.638  1.00  0.00     0.057 A 
HETATM   10  C4  UNL     1      24.122   2.458  50.885  1.00  0.00     0.006 A 
HETATM   11  C5  UNL     1      24.275   2.678  52.218  1.00  0.00     0.018 A 
BRANCH  10  12
HETATM   12  C3  UNL     1      23.358   2.765  49.707  1.00  0.00     0.036 C 
HETATM   13  C2  UNL     1      22.276   2.081  49.364  1.00  0.00     0.041 C 
HETATM   14 CL1  UNL     1      21.747   0.750  50.376  1.00  0.00    -0.086 Cl
BRANCH  13  15
HETATM   15  C1  UNL     1      21.475   2.385  48.150  1.00  0.00     0.273 C 
HETATM   16  F1  UNL     1      22.288   2.362  47.041  1.00  0.00    -0.250 F 
ENDBRANCH  13  15
ENDBRANCH  10  12
ENDBRANCH   7   9
ENDBRANCH   1   7
BRANCH   6  17
HETATM   17  N4  UNL     1      26.279  -0.854  53.982  1.00  0.00    -0.385 N 
HETATM   18  H7  UNL     1      26.514  -1.725  53.442  1.00  0.00     0.159 HD
BRANCH  17  19
HETATM   19  C11 UNL     1      25.069  -0.853  54.739  1.00  0.00     0.126 C 
BRANCH  19  20
HETATM   20  C12 UNL     1      23.830  -0.643  53.956  1.00  0.00     0.030 C 
HETATM   21  C13 UNL     1      22.534  -0.833  53.732  1.00  0.00     0.239 C 
HETATM   22 CL2  UNL     1      21.027  -1.586  54.238  1.00  0.00    -0.255 Cl
ENDBRANCH  19  20
ENDBRANCH  17  19
ENDBRANCH   6  17
TORSDOF 7
ENDMDL
MODEL 4
REMARK VINA RESULT:      -6.3      3.194      4.001
REMARK  7 active torsions:
REMARK  status: ('A' for Active; 'I' for Inactive)
REMARK    1  A    between atoms: C1_2  and  C2_3 
REMARK    2  A    between atoms: C3_5  and  C4_6 
REMARK    3  A    between atoms: C6_8  and  N1_9 
REMARK    4  A    between atoms: N1_9  and  C7_10 
REMARK    5  A    between atoms: C10_15  and  N4_16 
REMARK    6  A    between atoms: N4_16  and  C11_17 
REMARK    7  A    between atoms: C11_17  and  C12_18 
ROOT
HETATM    1  C7  UNL     1      26.800   1.877  53.852  1.00  0.00     0.157 A 
HETATM    2  N2  UNL     1      27.981   2.514  53.743  1.00  0.00    -0.222 NA
HETATM    3  C8  UNL     1      29.117   1.884  54.169  1.00  0.00     0.235 A 
HETATM    4  N3  UNL     1      29.039   0.643  54.687  1.00  0.00    -0.252 NA
HETATM    5  C9  UNL     1      27.844   0.045  54.776  1.00  0.00     0.151 A 
HETATM    6  C10 UNL     1      26.653   0.608  54.372  1.00  0.00     0.092 A 
ENDROOT
BRANCH   1   7
HETATM    7  N1  UNL     1      25.674   2.610  53.383  1.00  0.00    -0.338 N 
HETATM    8  H4  UNL     1      24.930   3.128  53.895  1.00  0.00     0.167 HD
BRANCH   7   9
HETATM    9  C6  UNL     1      25.429   2.720  51.987  1.00  0.00     0.057 A 
HETATM   10  C4  UNL     1      25.800   3.122  50.649  1.00  0.00     0.006 A 
HETATM   11  C5  UNL     1      24.616   2.502  50.900  1.00  0.00     0.018 A 
BRANCH  10  12
HETATM   12  C3  UNL     1      26.650   3.705  49.648  1.00  0.00     0.036 C 
HETATM   13  C2  UNL     1      26.600   4.992  49.333  1.00  0.00     0.041 C 
HETATM   14 CL1  UNL     1      25.458   6.032  50.162  1.00  0.00    -0.086 Cl
BRANCH  13  15
HETATM   15  C1  UNL     1      27.473   5.609  48.301  1.00  0.00     0.273 C 
HETATM   16  F1  UNL     1      28.707   5.001  48.314  1.00  0.00    -0.250 F 
ENDBRANCH  13  15
ENDBRANCH  10  12
ENDBRANCH   7   9
ENDBRANCH   1   7
BRANCH   6  17
HETATM   17  N4  UNL     1      25.412  -0.035  54.472  1.00  0.00    -0.385 N 
HETATM   18  H7  UNL     1      24.936  -0.024  55.409  1.00  0.00     0.159 HD
BRANCH  17  19
HETATM   19  C11 UNL     1      24.746  -0.703  53.401  1.00  0.00     0.126 C 
BRANCH  19  20
HETATM   20  C12 UNL     1      23.372  -0.231  53.114  1.00  0.00     0.030 C 
HETATM   21  C13 UNL     1      22.131   0.067  53.482  1.00  0.00     0.239 C 
HETATM   22 CL2  UNL     1      20.938   0.160  54.772  1.00  0.00    -0.255 Cl
ENDBRANCH  19  20
ENDBRANCH  17  19
ENDBRANCH   6  17
TORSDOF 7
ENDMDL
MODEL 5
REMARK VINA RESULT:      -6.1      1.770      3.755
REMARK  7 active torsions:
REMARK  status: ('A' for Active; 'I' for Inactive)
REMARK    1  A    between atoms: C1_2  and  C2_3 
REMARK    2  A    between atoms: C3_5  and  C4_6 
REMARK    3  A    between atoms: C6_8  and  N1_9 
REMARK    4  A    between atoms: N1_9  and  C7_10 
REMARK    5  A    between atoms: C10_15  and  N4_16 
REMARK    6  A    between atoms: N4_16  and  C11_17 
REMARK    7  A    between atoms: C11_17  and  C12_18 
ROOT
HETATM    1  C7  UNL     1      26.675   0.373  53.718  1.00  0.00     0.157 A 
HETATM    2  N2  UNL     1      27.587  -0.338  54.407  1.00  0.00    -0.222 NA
HETATM    3  C8  UNL     1      28.737   0.276  54.818  1.00  0.00     0.235 A 
HETATM    4  N3  UNL     1      28.938   1.577  54.530  1.00  0.00    -0.252 NA
HETATM    5  C9  UNL     1      28.004   2.248  53.844  1.00  0.00     0.151 A 
HETATM    6  C10 UNL     1      26.820   1.705  53.393  1.00  0.00     0.092 A 
ENDROOT
BRANCH   1   7
HETATM    7  N1  UNL     1      25.511  -0.350  53.334  1.00  0.00    -0.338 N 
HETATM    8  H4  UNL     1      25.182  -0.676  52.401  1.00  0.00     0.167 HD
BRANCH   7   9
HETATM    9  C6  UNL     1      24.566  -0.753  54.318  1.00  0.00     0.057 A 
HETATM   10  C4  UNL     1      23.217  -1.006  54.770  1.00  0.00     0.006 A 
HETATM   11  C5  UNL     1      24.287  -1.201  55.587  1.00  0.00     0.018 A 
BRANCH  10  12
HETATM   12  C3  UNL     1      21.787  -1.069  54.645  1.00  0.00     0.036 C 
HETATM   13  C2  UNL     1      21.146  -0.611  53.578  1.00  0.00     0.041 C 
HETATM   14 CL1  UNL     1      22.065   0.102  52.267  1.00  0.00    -0.086 Cl
BRANCH  13  15
HETATM   15  C1  UNL     1      19.668  -0.670  53.434  1.00  0.00     0.273 C 
HETATM   16  F1  UNL     1      19.214  -1.910  53.817  1.00  0.00    -0.250 F 
ENDBRANCH  13  15
ENDBRANCH  10  12
ENDBRANCH   7   9
ENDBRANCH   1   7
BRANCH   6  17
HETATM   17  N4  UNL     1      25.854   2.424  52.677  1.00  0.00    -0.385 N 
HETATM   18  H7  UNL     1      26.057   2.635  51.667  1.00  0.00     0.159 HD
BRANCH  17  19
HETATM   19  C11 UNL     1      24.617   2.893  53.213  1.00  0.00     0.126 C 
BRANCH  19  20
HETATM   20  C12 UNL     1      23.665   3.446  52.223  1.00  0.00     0.030 C 
HETATM   21  C13 UNL     1      23.031   3.414  51.056  1.00  0.00     0.239 C 
HETATM   22 CL2  UNL     1      22.762   2.587  49.526  1.00  0.00    -0.255 Cl
ENDBRANCH  19  20
ENDBRANCH  17  19
ENDBRANCH   6  17
TORSDOF 7
ENDMDL
MODEL 6
REMARK VINA RESULT:      -6.1      3.718      5.990
REMARK  7 active torsions:
REMARK  status: ('A' for Active; 'I' for Inactive)
REMARK    1  A    between atoms: C1_2  and  C2_3 
REMARK    2  A    between atoms: C3_5  and  C4_6 
REMARK    3  A    between atoms: C6_8  and  N1_9 
REMARK    4  A    between atoms: N1_9  and  C7_10 
REMARK    5  A    between atoms: C10_15  and  N4_16 
REMARK    6  A    between atoms: N4_16  and  C11_17 
REMARK    7  A    between atoms: C11_17  and  C12_18 
ROOT
HETATM    1  C7  UNL     1      22.770   0.139  53.231  1.00  0.00     0.157 A 
HETATM    2  N2  UNL     1      23.683  -0.552  53.938  1.00  0.00    -0.222 NA
HETATM    3  C8  UNL     1      23.270  -1.304  55.002  1.00  0.00     0.235 A 
HETATM    4  N3  UNL     1      21.962  -1.342  55.325  1.00  0.00    -0.252 NA
HETATM    5  C9  UNL     1      21.086  -0.640  54.594  1.00  0.00     0.151 A 
HETATM    6  C10 UNL     1      21.419   0.142  53.509  1.00  0.00     0.092 A 
ENDROOT
BRANCH   1   7
HETATM    7  N1  UNL     1      23.292   0.891  52.142  1.00  0.00    -0.338 N 
HETATM    8  H4  UNL     1      22.836   1.267  51.285  1.00  0.00     0.167 HD
BRANCH   7   9
HETATM    9  C6  UNL     1      24.668   1.250  52.121  1.00  0.00     0.057 A 
HETATM   10  C4  UNL     1      26.077   0.927  52.139  1.00  0.00     0.006 A 
HETATM   11  C5  UNL     1      25.646   2.215  52.066  1.00  0.00     0.018 A 
BRANCH  10  12
HETATM   12  C3  UNL     1      27.217   0.053  52.188  1.00  0.00     0.036 C 
HETATM   13  C2  UNL     1      27.782  -0.314  53.330  1.00  0.00     0.041 C 
HETATM   14 CL1  UNL     1      27.125   0.283  54.842  1.00  0.00    -0.086 Cl
BRANCH  13  15
HETATM   15  C1  UNL     1      28.961  -1.216  53.398  1.00  0.00     0.273 C 
HETATM   16  F1  UNL     1      30.112  -0.491  53.197  1.00  0.00    -0.250 F 
ENDBRANCH  13  15
ENDBRANCH  10  12
ENDBRANCH   7   9
ENDBRANCH   1   7
BRANCH   6  17
HETATM   17  N4  UNL     1      20.487   0.868  52.756  1.00  0.00    -0.385 N 
HETATM   18  H7  UNL     1      20.379   1.891  52.975  1.00  0.00     0.159 HD
BRANCH  17  19
HETATM   19  C11 UNL     1      19.673   0.327  51.715  1.00  0.00     0.126 C 
BRANCH  19  20
HETATM   20  C12 UNL     1      18.425  -0.330  52.164  1.00  0.00     0.030 C 
HETATM   21  C13 UNL     1      17.766  -1.279  52.819  1.00  0.00     0.239 C 
HETATM   22 CL2  UNL     1      17.835  -2.724  53.820  1.00  0.00    -0.255 Cl
ENDBRANCH  19  20
ENDBRANCH  17  19
ENDBRANCH   6  17
TORSDOF 7
ENDMDL
MODEL 7
REMARK VINA RESULT:      -5.9      4.234      7.207
REMARK  7 active torsions:
REMARK  status: ('A' for Active; 'I' for Inactive)
REMARK    1  A    between atoms: C1_2  and  C2_3 
REMARK    2  A    between atoms: C3_5  and  C4_6 
REMARK    3  A    between atoms: C6_8  and  N1_9 
REMARK    4  A    between atoms: N1_9  and  C7_10 
REMARK    5  A    between atoms: C10_15  and  N4_16 
REMARK    6  A    between atoms: N4_16  and  C11_17 
REMARK    7  A    between atoms: C11_17  and  C12_18 
ROOT
HETATM    1  C7  UNL     1      23.079   4.236  52.312  1.00  0.00     0.157 A 
HETATM    2  N2  UNL     1      22.018   3.408  52.282  1.00  0.00    -0.222 NA
HETATM    3  C8  UNL     1      20.874   3.817  51.656  1.00  0.00     0.235 A 
HETATM    4  N3  UNL     1      20.826   5.034  51.080  1.00  0.00    -0.252 NA
HETATM    5  C9  UNL     1      21.905   5.826  51.132  1.00  0.00     0.151 A 
HETATM    6  C10 UNL     1      23.095   5.492  51.743  1.00  0.00     0.092 A 
ENDROOT
BRANCH   1   7
HETATM    7  N1  UNL     1      24.224   3.725  52.985  1.00  0.00    -0.338 N 
HETATM    8  H4  UNL     1      24.595   3.902  53.942  1.00  0.00     0.167 HD
BRANCH   7   9
HETATM    9  C6  UNL     1      25.081   2.799  52.328  1.00  0.00     0.057 A 
HETATM   10  C4  UNL     1      26.262   1.968  52.266  1.00  0.00     0.006 A 
HETATM   11  C5  UNL     1      25.378   2.021  51.234  1.00  0.00     0.018 A 
BRANCH  10  12
HETATM   12  C3  UNL     1      27.488   1.401  52.756  1.00  0.00     0.036 C 
HETATM   13  C2  UNL     1      27.608   0.113  53.048  1.00  0.00     0.041 C 
HETATM   14 CL1  UNL     1      26.227  -0.947  52.833  1.00  0.00    -0.086 Cl
BRANCH  13  15
HETATM   15  C1  UNL     1      28.868  -0.490  53.555  1.00  0.00     0.273 C 
HETATM   16  F1  UNL     1      29.672   0.494  54.083  1.00  0.00    -0.250 F 
ENDBRANCH  13  15
ENDBRANCH  10  12
ENDBRANCH   7   9
ENDBRANCH   1   7
BRANCH   6  17
HETATM   17  N4  UNL     1      24.214   6.334  51.785  1.00  0.00    -0.385 N 
HETATM   18  H7  UNL     1      24.501   6.710  52.724  1.00  0.00     0.159 HD
BRANCH  17  19
HETATM   19  C11 UNL     1      24.992   6.721  50.653  1.00  0.00     0.126 C 
BRANCH  19  20
HETATM   20  C12 UNL     1      25.491   5.607  49.815  1.00  0.00     0.030 C 
HETATM   21  C13 UNL     1      26.435   5.005  49.100  1.00  0.00     0.239 C 
HETATM   22 CL2  UNL     1      28.079   5.035  48.473  1.00  0.00    -0.255 Cl
ENDBRANCH  19  20
ENDBRANCH  17  19
ENDBRANCH   6  17
TORSDOF 7
ENDMDL
MODEL 8
REMARK VINA RESULT:      -5.9      4.340      7.278
REMARK  7 active torsions:
REMARK  status: ('A' for Active; 'I' for Inactive)
REMARK    1  A    between atoms: C1_2  and  C2_3 
REMARK    2  A    between atoms: C3_5  and  C4_6 
REMARK    3  A    between atoms: C6_8  and  N1_9 
REMARK    4  A    between atoms: N1_9  and  C7_10 
REMARK    5  A    between atoms: C10_15  and  N4_16 
REMARK    6  A    between atoms: N4_16  and  C11_17 
REMARK    7  A    between atoms: C11_17  and  C12_18 
ROOT
HETATM    1  C7  UNL     1      23.711   3.044  51.469  1.00  0.00     0.157 A 
HETATM    2  N2  UNL     1      22.500   2.766  51.986  1.00  0.00    -0.222 NA
HETATM    3  C8  UNL     1      21.655   3.797  52.289  1.00  0.00     0.235 A 
HETATM    4  N3  UNL     1      22.045   5.068  52.066  1.00  0.00    -0.252 NA
HETATM    5  C9  UNL     1      23.258   5.299  51.548  1.00  0.00     0.151 A 
HETATM    6  C10 UNL     1      24.169   4.320  51.216  1.00  0.00     0.092 A 
ENDROOT
BRANCH   1   7
HETATM    7  N1  UNL     1      24.520   1.908  51.185  1.00  0.00    -0.338 N 
HETATM    8  H4  UNL     1      24.872   1.523  50.283  1.00  0.00     0.167 HD
BRANCH   7   9
HETATM    9  C6  UNL     1      24.988   1.085  52.245  1.00  0.00     0.057 A 
HETATM   10  C4  UNL     1      26.020   0.336  52.926  1.00  0.00     0.006 A 
HETATM   11  C5  UNL     1      24.754   0.404  53.416  1.00  0.00     0.018 A 
BRANCH  10  12
HETATM   12  C3  UNL     1      27.345  -0.188  53.116  1.00  0.00     0.036 C 
HETATM   13  C2  UNL     1      28.379   0.586  53.416  1.00  0.00     0.041 C 
HETATM   14 CL1  UNL     1      28.135   2.314  53.587  1.00  0.00    -0.086 Cl
BRANCH  13  15
HETATM   15  C1  UNL     1      29.754   0.060  53.616  1.00  0.00     0.273 C 
HETATM   16  F1  UNL     1      29.891  -1.141  52.960  1.00  0.00    -0.250 F 
ENDBRANCH  13  15
ENDBRANCH  10  12
ENDBRANCH   7   9
ENDBRANCH   1   7
BRANCH   6  17
HETATM   17  N4  UNL     1      25.434   4.582  50.673  1.00  0.00    -0.385 N 
HETATM   18  H7  UNL     1      26.249   4.608  51.336  1.00  0.00     0.159 HD
BRANCH  17  19
HETATM   19  C11 UNL     1      25.700   4.818  49.291  1.00  0.00     0.126 C 
BRANCH  19  20
HETATM   20  C12 UNL     1      27.117   4.679  48.885  1.00  0.00     0.030 C 
HETATM   21  C13 UNL     1      28.272   5.177  48.457  1.00  0.00     0.239 C 
HETATM   22 CL2  UNL     1      29.192   6.589  47.953  1.00  0.00    -0.255 Cl
ENDBRANCH  19  20
ENDBRANCH  17  19
ENDBRANCH   6  17
TORSDOF 7
ENDMDL
MODEL 9
REMARK VINA RESULT:      -5.9      4.316      5.854
REMARK  7 active torsions:
REMARK  status: ('A' for Active; 'I' for Inactive)
REMARK    1  A    between atoms: C1_2  and  C2_3 
REMARK    2  A    between atoms: C3_5  and  C4_6 
REMARK    3  A    between atoms: C6_8  and  N1_9 
REMARK    4  A    between atoms: N1_9  and  C7_10 
REMARK    5  A    between atoms: C10_15  and  N4_16 
REMARK    6  A    between atoms: N4_16  and  C11_17 
REMARK    7  A    between atoms: C11_17  and  C12_18 
ROOT
HETATM    1  C7  UNL     1      24.836   2.139  52.551  1.00  0.00     0.157 A 
HETATM    2  N2  UNL     1      23.550   1.852  52.826  1.00  0.00    -0.222 NA
HETATM    3  C8  UNL     1      23.225   0.591  53.243  1.00  0.00     0.235 A 
HETATM    4  N3  UNL     1      24.191  -0.339  53.373  1.00  0.00    -0.252 NA
HETATM    5  C9  UNL     1      25.459  -0.010  53.090  1.00  0.00     0.151 A 
HETATM    6  C10 UNL     1      25.870   1.234  52.664  1.00  0.00     0.092 A 
ENDROOT
BRANCH   1   7
HETATM    7  N1  UNL     1      25.077   3.475  52.125  1.00  0.00    -0.338 N 
HETATM    8  H4  UNL     1      25.340   4.330  52.660  1.00  0.00     0.167 HD
BRANCH   7   9
HETATM    9  C6  UNL     1      24.972   3.813  50.748  1.00  0.00     0.057 A 
HETATM   10  C4  UNL     1      25.151   4.714  49.632  1.00  0.00     0.006 A 
HETATM   11  C5  UNL     1      24.601   3.481  49.466  1.00  0.00     0.018 A 
BRANCH  10  12
HETATM   12  C3  UNL     1      25.551   5.936  48.991  1.00  0.00     0.036 C 
HETATM   13  C2  UNL     1      26.763   6.110  48.484  1.00  0.00     0.041 C 
HETATM   14 CL1  UNL     1      27.932   4.808  48.594  1.00  0.00    -0.086 Cl
BRANCH  13  15
HETATM   15  C1  UNL     1      27.191   7.367  47.818  1.00  0.00     0.273 C 
HETATM   16  F1  UNL     1      28.419   7.183  47.226  1.00  0.00    -0.250 F 
ENDBRANCH  13  15
ENDBRANCH  10  12
ENDBRANCH   7   9
ENDBRANCH   1   7
BRANCH   6  17
HETATM   17  N4  UNL     1      27.202   1.559  52.375  1.00  0.00    -0.385 N 
HETATM   18  H7  UNL     1      27.502   1.519  51.368  1.00  0.00     0.159 HD
BRANCH  17  19
HETATM   19  C11 UNL     1      28.182   1.938  53.340  1.00  0.00     0.126 C 
BRANCH  19  20
HETATM   20  C12 UNL     1      29.188   0.902  53.665  1.00  0.00     0.030 C 
HETATM   21  C13 UNL     1      29.614  -0.356  53.689  1.00  0.00     0.239 C 
HETATM   22 CL2  UNL     1      29.298  -2.046  53.313  1.00  0.00    -0.255 Cl
ENDBRANCH  19  20
ENDBRANCH  17  19
ENDBRANCH   6  17
TORSDOF 7
ENDMDL
