MODEL 1
REMARK VINA RESULT:      -8.1      0.000      0.000
REMARK  4 active torsions:
REMARK  status: ('A' for Active; 'I' for Inactive)
REMARK    1  A    between atoms: O1_2  and  C2_3 
REMARK    2  A    between atoms: C2_3  and  C3_4 
REMARK    3  A    between atoms: C3_4  and  O2_5 
REMARK    4  A    between atoms: O2_5  and  C4_6 
ROOT
HETATM    1  C4  UNL     1      23.299   1.051  51.926  1.00  0.00     0.085 C 
HETATM    2  C5  UNL     1      22.562   1.132  50.826  1.00  0.00     0.056 C 
HETATM    3  C6  UNL     1      22.027   1.705  49.641  1.00  0.00     0.141 C 
HETATM    4  N1  UNL     1      21.491   2.134  48.562  1.00  0.00    -0.186 NA
HETATM    5  N2  UNL     1      21.743   3.378  47.994  1.00  0.00    -0.262 N 
HETATM    6  C7  UNL     1      22.426   4.299  48.825  1.00  0.00     0.131 C 
HETATM    7  C8  UNL     1      22.126   5.266  49.668  1.00  0.00     0.050 C 
HETATM    8  C9  UNL     1      21.342   5.849  50.728  1.00  0.00     0.035 C 
HETATM    9  C10 UNL     1      21.692   5.358  51.913  1.00  0.00     0.092 C 
HETATM   10  N3  UNL     1      22.676   4.398  52.185  1.00  0.00    -0.335 N 
HETATM   11  C11 UNL     1      23.645   3.457  52.454  1.00  0.00     0.256 C 
HETATM   12  O3  UNL     1      24.101   4.506  52.961  1.00  0.00    -0.270 OA
HETATM   13  C12 UNL     1      24.181   2.093  52.386  1.00  0.00     0.161 C 
HETATM   14  C13 UNL     1      24.575   1.800  53.844  1.00  0.00     0.050 C 
HETATM   15  C14 UNL     1      26.047   1.476  53.808  1.00  0.00     0.023 C 
HETATM   16  C15 UNL     1      26.166   1.019  52.361  1.00  0.00     0.122 C 
HETATM   17  N4  UNL     1      25.491   2.158  51.712  1.00  0.00    -0.353 N 
HETATM   18  C16 UNL     1      26.403   2.795  50.766  1.00  0.00     0.215 A 
HETATM   19  O4  UNL     1      25.340   3.347  50.669  1.00  0.00    -0.343 OA
HETATM   20  C17 UNL     1      26.623   3.801  49.752  1.00  0.00     0.192 A 
HETATM   21  C18 UNL     1      26.137   4.810  48.996  1.00  0.00     0.057 C 
HETATM   22  C19 UNL     1      24.750   5.105  49.228  1.00  0.00     0.138 C 
HETATM   23  N5  UNL     1      23.847   4.081  48.667  1.00  0.00    -0.364 N 
HETATM   24  C20 UNL     1      24.175   6.372  48.698  1.00  0.00     0.074 C 
HETATM   25 CL1  UNL     1      24.728   7.432  47.416  1.00  0.00    -0.083 Cl
HETATM   26  C21 UNL     1      23.110   6.381  49.557  1.00  0.00     0.150 C 
HETATM   27  F1  UNL     1      23.467   7.595  50.010  1.00  0.00    -0.203 F 
HETATM   28  H10 UNL     1      21.376   3.408  47.028  1.00  0.00     0.191 HD
HETATM   29  H13 UNL     1      22.064   3.664  51.757  1.00  0.00     0.168 HD
HETATM   30  H23 UNL     1      24.331   3.273  48.191  1.00  0.00     0.162 HD
ENDROOT
BRANCH   1  31
HETATM   31  O2  UNL     1      23.128  -0.159  52.594  1.00  0.00    -0.350 OA
BRANCH  31  32
HETATM   32  C3  UNL     1      21.821  -0.499  53.016  1.00  0.00     0.201 C 
BRANCH  32  33
HETATM   33  C2  UNL     1      21.612  -0.420  54.490  1.00  0.00     0.193 C 
BRANCH  33  34
HETATM   34  O1  UNL     1      22.081  -1.517  55.177  1.00  0.00    -0.394 OA
HETATM   35  C1  UNL     1      23.362  -1.417  55.664  1.00  0.00     0.201 C 
ENDBRANCH  33  34
ENDBRANCH  32  33
ENDBRANCH  31  32
ENDBRANCH   1  31
TORSDOF 4
ENDMDL
MODEL 2
REMARK VINA RESULT:      -7.7      2.280      2.933
REMARK  4 active torsions:
REMARK  status: ('A' for Active; 'I' for Inactive)
REMARK    1  A    between atoms: O1_2  and  C2_3 
REMARK    2  A    between atoms: C2_3  and  C3_4 
REMARK    3  A    between atoms: C3_4  and  O2_5 
REMARK    4  A    between atoms: O2_5  and  C4_6 
ROOT
HETATM    1  C4  UNL     1      20.522   0.753  51.196  1.00  0.00     0.085 C 
HETATM    2  C5  UNL     1      20.603   1.010  49.897  1.00  0.00     0.056 C 
HETATM    3  C6  UNL     1      21.072   1.627  48.705  1.00  0.00     0.141 C 
HETATM    4  N1  UNL     1      21.425   2.122  47.580  1.00  0.00    -0.186 NA
HETATM    5  N2  UNL     1      22.404   3.096  47.419  1.00  0.00    -0.262 N 
HETATM    6  C7  UNL     1      22.818   3.746  48.607  1.00  0.00     0.131 C 
HETATM    7  C8  UNL     1      22.511   4.832  49.286  1.00  0.00     0.050 C 
HETATM    8  C9  UNL     1      21.578   5.785  49.833  1.00  0.00     0.035 C 
HETATM    9  C10 UNL     1      21.002   5.318  50.938  1.00  0.00     0.092 C 
HETATM   10  N3  UNL     1      21.215   4.077  51.554  1.00  0.00    -0.335 N 
HETATM   11  C11 UNL     1      21.425   2.859  52.163  1.00  0.00     0.256 C 
HETATM   12  O3  UNL     1      21.896   3.684  52.978  1.00  0.00    -0.270 OA
HETATM   13  C12 UNL     1      21.332   1.397  52.198  1.00  0.00     0.161 C 
HETATM   14  C13 UNL     1      20.719   1.119  53.582  1.00  0.00     0.050 C 
HETATM   15  C14 UNL     1      21.708   0.232  54.293  1.00  0.00     0.023 C 
HETATM   16  C15 UNL     1      22.406  -0.379  53.086  1.00  0.00     0.122 C 
HETATM   17  N4  UNL     1      22.699   0.862  52.347  1.00  0.00    -0.353 N 
HETATM   18  C16 UNL     1      24.139   0.982  52.136  1.00  0.00     0.215 A 
HETATM   19  O4  UNL     1      23.615   1.900  51.566  1.00  0.00    -0.343 OA
HETATM   20  C17 UNL     1      25.244   1.707  51.553  1.00  0.00     0.192 A 
HETATM   21  C18 UNL     1      25.685   2.744  50.806  1.00  0.00     0.057 C 
HETATM   22  C19 UNL     1      24.640   3.591  50.300  1.00  0.00     0.138 C 
HETATM   23  N5  UNL     1      23.876   2.963  49.204  1.00  0.00    -0.364 N 
HETATM   24  C20 UNL     1      24.992   4.921  49.731  1.00  0.00     0.074 C 
HETATM   25 CL1  UNL     1      26.511   5.535  49.110  1.00  0.00    -0.083 Cl
HETATM   26  C21 UNL     1      23.737   5.443  49.879  1.00  0.00     0.150 C 
HETATM   27  F1  UNL     1      24.226   6.452  50.619  1.00  0.00    -0.203 F 
HETATM   28  H10 UNL     1      22.668   3.173  46.422  1.00  0.00     0.191 HD
HETATM   29  H13 UNL     1      20.707   3.611  50.766  1.00  0.00     0.168 HD
HETATM   30  H23 UNL     1      24.182   1.985  48.952  1.00  0.00     0.162 HD
ENDROOT
BRANCH   1  31
HETATM   31  O2  UNL     1      19.562  -0.212  51.489  1.00  0.00    -0.350 OA
BRANCH  31  32
HETATM   32  C3  UNL     1      18.216   0.076  51.160  1.00  0.00     0.201 C 
BRANCH  32  33
HETATM   33  C2  UNL     1      17.225  -0.388  52.171  1.00  0.00     0.193 C 
BRANCH  33  34
HETATM   34  O1  UNL     1      17.794  -0.907  53.312  1.00  0.00    -0.394 OA
HETATM   35  C1  UNL     1      17.708  -2.270  53.459  1.00  0.00     0.201 C 
ENDBRANCH  33  34
ENDBRANCH  32  33
ENDBRANCH  31  32
ENDBRANCH   1  31
TORSDOF 4
ENDMDL
MODEL 3
REMARK VINA RESULT:      -7.4      3.498      7.066
REMARK  4 active torsions:
REMARK  status: ('A' for Active; 'I' for Inactive)
REMARK    1  A    between atoms: O1_2  and  C2_3 
REMARK    2  A    between atoms: C2_3  and  C3_4 
REMARK    3  A    between atoms: C3_4  and  O2_5 
REMARK    4  A    between atoms: O2_5  and  C4_6 
ROOT
HETATM    1  C4  UNL     1      25.378   6.821  48.970  1.00  0.00     0.085 C 
HETATM    2  C5  UNL     1      26.137   5.780  49.289  1.00  0.00     0.056 C 
HETATM    3  C6  UNL     1      26.449   4.474  49.752  1.00  0.00     0.141 C 
HETATM    4  N1  UNL     1      26.831   3.320  50.150  1.00  0.00    -0.186 NA
HETATM    5  N2  UNL     1      25.980   2.323  50.615  1.00  0.00    -0.262 N 
HETATM    6  C7  UNL     1      24.656   2.739  50.904  1.00  0.00     0.131 C 
HETATM    7  C8  UNL     1      23.969   3.161  51.946  1.00  0.00     0.050 C 
HETATM    8  C9  UNL     1      23.809   3.934  53.152  1.00  0.00     0.035 C 
HETATM    9  C10 UNL     1      23.567   5.213  52.877  1.00  0.00     0.092 C 
HETATM   10  N3  UNL     1      23.469   5.812  51.614  1.00  0.00    -0.335 N 
HETATM   11  C11 UNL     1      23.368   6.403  50.374  1.00  0.00     0.256 C 
HETATM   12  O3  UNL     1      22.206   6.473  50.831  1.00  0.00    -0.270 OA
HETATM   13  C12 UNL     1      23.944   6.845  49.100  1.00  0.00     0.161 C 
HETATM   14  C13 UNL     1      23.461   8.301  48.985  1.00  0.00     0.050 C 
HETATM   15  C14 UNL     1      22.687   8.371  47.693  1.00  0.00     0.023 C 
HETATM   16  C15 UNL     1      23.325   7.200  46.958  1.00  0.00     0.122 C 
HETATM   17  N4  UNL     1      23.198   6.179  48.015  1.00  0.00    -0.353 N 
HETATM   18  C16 UNL     1      22.415   5.052  47.518  1.00  0.00     0.215 A 
HETATM   19  O4  UNL     1      22.794   4.768  48.622  1.00  0.00    -0.343 OA
HETATM   20  C17 UNL     1      21.873   3.732  47.744  1.00  0.00     0.192 A 
HETATM   21  C18 UNL     1      21.736   2.658  48.554  1.00  0.00     0.057 C 
HETATM   22  C19 UNL     1      22.416   2.781  49.814  1.00  0.00     0.138 C 
HETATM   23  N5  UNL     1      23.881   2.656  49.687  1.00  0.00    -0.364 N 
HETATM   24  C20 UNL     1      22.102   1.821  50.908  1.00  0.00     0.074 C 
HETATM   25 CL1  UNL     1      21.372   0.228  50.860  1.00  0.00    -0.083 Cl
HETATM   26  C21 UNL     1      22.577   2.627  51.906  1.00  0.00     0.150 C 
HETATM   27  F1  UNL     1      21.386   2.586  52.527  1.00  0.00    -0.203 F 
HETATM   28  H10 UNL     1      26.482   1.421  50.664  1.00  0.00     0.191 HD
HETATM   29  H13 UNL     1      24.502   5.699  51.491  1.00  0.00     0.168 HD
HETATM   30  H23 UNL     1      24.232   2.512  48.702  1.00  0.00     0.162 HD
ENDROOT
BRANCH   1  31
HETATM   31  O2  UNL     1      26.123   7.897  48.493  1.00  0.00    -0.350 OA
BRANCH  31  32
HETATM   32  C3  UNL     1      27.358   8.175  49.125  1.00  0.00     0.201 C 
BRANCH  32  33
HETATM   33  C2  UNL     1      27.289   9.240  50.165  1.00  0.00     0.193 C 
BRANCH  33  34
HETATM   34  O1  UNL     1      27.090  10.503  49.656  1.00  0.00    -0.394 OA
HETATM   35  C1  UNL     1      28.090  10.988  48.847  1.00  0.00     0.201 C 
ENDBRANCH  33  34
ENDBRANCH  32  33
ENDBRANCH  31  32
ENDBRANCH   1  31
TORSDOF 4
ENDMDL
MODEL 4
REMARK VINA RESULT:      -7.4      2.644      4.954
REMARK  4 active torsions:
REMARK  status: ('A' for Active; 'I' for Inactive)
REMARK    1  A    between atoms: O1_2  and  C2_3 
REMARK    2  A    between atoms: C2_3  and  C3_4 
REMARK    3  A    between atoms: C3_4  and  O2_5 
REMARK    4  A    between atoms: O2_5  and  C4_6 
ROOT
HETATM    1  C4  UNL     1      23.618   2.303  52.714  1.00  0.00     0.085 C 
HETATM    2  C5  UNL     1      23.727   3.615  52.546  1.00  0.00     0.056 C 
HETATM    3  C6  UNL     1      23.427   4.903  52.026  1.00  0.00     0.141 C 
HETATM    4  N1  UNL     1      23.234   6.100  51.618  1.00  0.00    -0.186 NA
HETATM    5  N2  UNL     1      22.266   6.473  50.693  1.00  0.00    -0.262 N 
HETATM    6  C7  UNL     1      21.660   5.407  49.982  1.00  0.00     0.131 C 
HETATM    7  C8  UNL     1      21.832   4.768  48.844  1.00  0.00     0.050 C 
HETATM    8  C9  UNL     1      22.647   4.157  47.824  1.00  0.00     0.035 C 
HETATM    9  C10 UNL     1      23.061   2.948  48.197  1.00  0.00     0.092 C 
HETATM   10  N3  UNL     1      22.791   2.286  49.402  1.00  0.00    -0.335 N 
HETATM   11  C11 UNL     1      22.523   1.631  50.584  1.00  0.00     0.256 C 
HETATM   12  O3  UNL     1      21.914   0.955  49.726  1.00  0.00    -0.270 OA
HETATM   13  C12 UNL     1      22.649   1.480  52.037  1.00  0.00     0.161 C 
HETATM   14  C13 UNL     1      23.054   0.004  52.200  1.00  0.00     0.050 C 
HETATM   15  C14 UNL     1      21.992  -0.612  53.076  1.00  0.00     0.023 C 
HETATM   16  C15 UNL     1      21.500   0.639  53.789  1.00  0.00     0.122 C 
HETATM   17  N4  UNL     1      21.290   1.499  52.610  1.00  0.00    -0.353 N 
HETATM   18  C16 UNL     1      19.896   1.929  52.558  1.00  0.00     0.215 A 
HETATM   19  O4  UNL     1      20.475   2.479  51.660  1.00  0.00    -0.343 OA
HETATM   20  C17 UNL     1      18.872   2.720  51.913  1.00  0.00     0.192 A 
HETATM   21  C18 UNL     1      18.521   3.595  50.944  1.00  0.00     0.057 C 
HETATM   22  C19 UNL     1      19.608   3.998  50.094  1.00  0.00     0.138 C 
HETATM   23  N5  UNL     1      20.545   4.921  50.764  1.00  0.00    -0.364 N 
HETATM   24  C20 UNL     1      19.311   4.704  48.817  1.00  0.00     0.074 C 
HETATM   25 CL1  UNL     1      17.887   5.586  48.302  1.00  0.00    -0.083 Cl
HETATM   26  C21 UNL     1      20.516   4.409  48.242  1.00  0.00     0.150 C 
HETATM   27  F1  UNL     1      19.893   3.822  47.205  1.00  0.00    -0.203 F 
HETATM   28  H10 UNL     1      22.153   7.501  50.691  1.00  0.00     0.191 HD
HETATM   29  H13 UNL     1      23.424   2.955  49.899  1.00  0.00     0.168 HD
HETATM   30  H23 UNL     1      20.307   5.147  51.767  1.00  0.00     0.162 HD
ENDROOT
BRANCH   1  31
HETATM   31  O2  UNL     1      24.548   1.804  53.622  1.00  0.00    -0.350 OA
BRANCH  31  32
HETATM   32  C3  UNL     1      25.893   2.221  53.484  1.00  0.00     0.201 C 
BRANCH  32  33
HETATM   33  C2  UNL     1      26.611   1.605  52.333  1.00  0.00     0.193 C 
BRANCH  33  34
HETATM   34  O1  UNL     1      27.225   2.520  51.507  1.00  0.00    -0.394 OA
HETATM   35  C1  UNL     1      26.508   2.902  50.398  1.00  0.00     0.201 C 
ENDBRANCH  33  34
ENDBRANCH  32  33
ENDBRANCH  31  32
ENDBRANCH   1  31
TORSDOF 4
ENDMDL
MODEL 5
REMARK VINA RESULT:      -7.4      3.637      5.953
REMARK  4 active torsions:
REMARK  status: ('A' for Active; 'I' for Inactive)
REMARK    1  A    between atoms: O1_2  and  C2_3 
REMARK    2  A    between atoms: C2_3  and  C3_4 
REMARK    3  A    between atoms: C3_4  and  O2_5 
REMARK    4  A    between atoms: O2_5  and  C4_6 
ROOT
HETATM    1  C4  UNL     1      19.283   2.334  49.307  1.00  0.00     0.085 C 
HETATM    2  C5  UNL     1      20.403   2.511  48.617  1.00  0.00     0.056 C 
HETATM    3  C6  UNL     1      21.795   2.688  48.393  1.00  0.00     0.141 C 
HETATM    4  N1  UNL     1      23.027   2.851  48.090  1.00  0.00    -0.186 NA
HETATM    5  N2  UNL     1      24.066   2.912  49.011  1.00  0.00    -0.262 N 
HETATM    6  C7  UNL     1      23.673   3.070  50.363  1.00  0.00     0.131 C 
HETATM    7  C8  UNL     1      23.482   4.054  51.218  1.00  0.00     0.050 C 
HETATM    8  C9  UNL     1      23.013   5.369  51.580  1.00  0.00     0.035 C 
HETATM    9  C10 UNL     1      21.696   5.377  51.767  1.00  0.00     0.092 C 
HETATM   10  N3  UNL     1      20.809   4.299  51.645  1.00  0.00    -0.335 N 
HETATM   11  C11 UNL     1      19.935   3.240  51.530  1.00  0.00     0.256 C 
HETATM   12  O3  UNL     1      19.924   3.502  52.753  1.00  0.00    -0.270 OA
HETATM   13  C12 UNL     1      19.227   2.226  50.742  1.00  0.00     0.161 C 
HETATM   14  C13 UNL     1      17.765   2.390  51.194  1.00  0.00     0.050 C 
HETATM   15  C14 UNL     1      17.355   1.044  51.734  1.00  0.00     0.023 C 
HETATM   16  C15 UNL     1      18.343   0.163  50.983  1.00  0.00     0.122 C 
HETATM   17  N4  UNL     1      19.580   0.903  51.292  1.00  0.00    -0.353 N 
HETATM   18  C16 UNL     1      20.520   0.024  51.982  1.00  0.00     0.215 A 
HETATM   19  O4  UNL     1      21.076   1.074  51.800  1.00  0.00    -0.343 OA
HETATM   20  C17 UNL     1      21.830  -0.170  52.560  1.00  0.00     0.192 A 
HETATM   21  C18 UNL     1      23.059   0.320  52.837  1.00  0.00     0.057 C 
HETATM   22  C19 UNL     1      23.272   1.667  52.383  1.00  0.00     0.138 C 
HETATM   23  N5  UNL     1      23.428   1.758  50.918  1.00  0.00    -0.364 N 
HETATM   24  C20 UNL     1      24.450   2.427  52.884  1.00  0.00     0.074 C 
HETATM   25 CL1  UNL     1      25.951   1.872  53.599  1.00  0.00    -0.083 Cl
HETATM   26  C21 UNL     1      23.928   3.655  52.584  1.00  0.00     0.150 C 
HETATM   27  F1  UNL     1      24.063   4.042  53.864  1.00  0.00    -0.203 F 
HETATM   28  H10 UNL     1      24.976   2.823  48.528  1.00  0.00     0.191 HD
HETATM   29  H13 UNL     1      20.935   4.325  50.606  1.00  0.00     0.168 HD
HETATM   30  H23 UNL     1      23.347   0.840  50.404  1.00  0.00     0.162 HD
ENDROOT
BRANCH   1  31
HETATM   31  O2  UNL     1      18.159   2.263  48.488  1.00  0.00    -0.350 OA
BRANCH  31  32
HETATM   32  C3  UNL     1      17.941   3.322  47.575  1.00  0.00     0.201 C 
BRANCH  32  33
HETATM   33  C2  UNL     1      17.289   4.521  48.172  1.00  0.00     0.193 C 
BRANCH  33  34
HETATM   34  O1  UNL     1      17.994   5.689  47.986  1.00  0.00    -0.394 OA
HETATM   35  C1  UNL     1      18.975   5.951  48.912  1.00  0.00     0.201 C 
ENDBRANCH  33  34
ENDBRANCH  32  33
ENDBRANCH  31  32
ENDBRANCH   1  31
TORSDOF 4
ENDMDL
MODEL 6
REMARK VINA RESULT:      -7.1      3.408      6.634
REMARK  4 active torsions:
REMARK  status: ('A' for Active; 'I' for Inactive)
REMARK    1  A    between atoms: O1_2  and  C2_3 
REMARK    2  A    between atoms: C2_3  and  C3_4 
REMARK    3  A    between atoms: C3_4  and  O2_5 
REMARK    4  A    between atoms: O2_5  and  C4_6 
ROOT
HETATM    1  C4  UNL     1      22.610   5.505  48.938  1.00  0.00     0.085 C 
HETATM    2  C5  UNL     1      22.708   4.348  48.297  1.00  0.00     0.056 C 
HETATM    3  C6  UNL     1      22.524   2.960  48.054  1.00  0.00     0.141 C 
HETATM    4  N1  UNL     1      22.412   1.723  47.747  1.00  0.00    -0.186 NA
HETATM    5  N2  UNL     1      21.754   0.774  48.520  1.00  0.00    -0.262 N 
HETATM    6  C7  UNL     1      21.438   1.177  49.841  1.00  0.00     0.131 C 
HETATM    7  C8  UNL     1      21.973   1.100  51.042  1.00  0.00     0.050 C 
HETATM    8  C9  UNL     1      23.084   1.154  51.960  1.00  0.00     0.035 C 
HETATM    9  C10 UNL     1      23.418   2.411  52.240  1.00  0.00     0.092 C 
HETATM   10  N3  UNL     1      22.825   3.583  51.750  1.00  0.00    -0.335 N 
HETATM   11  C11 UNL     1      22.241   4.736  51.274  1.00  0.00     0.256 C 
HETATM   12  O3  UNL     1      21.949   4.737  52.491  1.00  0.00    -0.270 OA
HETATM   13  C12 UNL     1      21.928   5.678  50.195  1.00  0.00     0.161 C 
HETATM   14  C13 UNL     1      22.327   7.039  50.792  1.00  0.00     0.050 C 
HETATM   15  C14 UNL     1      21.078   7.882  50.749  1.00  0.00     0.023 C 
HETATM   16  C15 UNL     1      20.340   7.176  49.620  1.00  0.00     0.122 C 
HETATM   17  N4  UNL     1      20.459   5.790  50.108  1.00  0.00    -0.353 N 
HETATM   18  C16 UNL     1      19.129   5.216  50.286  1.00  0.00     0.215 A 
HETATM   19  O4  UNL     1      19.929   4.349  50.516  1.00  0.00    -0.343 OA
HETATM   20  C17 UNL     1      18.315   4.069  50.619  1.00  0.00     0.192 A 
HETATM   21  C18 UNL     1      18.236   2.767  50.974  1.00  0.00     0.057 C 
HETATM   22  C19 UNL     1      19.511   2.117  51.112  1.00  0.00     0.138 C 
HETATM   23  N5  UNL     1      20.161   1.853  49.812  1.00  0.00    -0.364 N 
HETATM   24  C20 UNL     1      19.584   0.791  51.786  1.00  0.00     0.074 C 
HETATM   25 CL1  UNL     1      18.346  -0.415  52.077  1.00  0.00    -0.083 Cl
HETATM   26  C21 UNL     1      20.917   0.884  52.073  1.00  0.00     0.150 C 
HETATM   27  F1  UNL     1      20.664   0.711  53.381  1.00  0.00    -0.203 F 
HETATM   28  H10 UNL     1      21.602  -0.089  47.971  1.00  0.00     0.191 HD
HETATM   29  H13 UNL     1      23.248   3.393  50.812  1.00  0.00     0.168 HD
HETATM   30  H23 UNL     1      19.621   2.187  48.969  1.00  0.00     0.162 HD
ENDROOT
BRANCH   1  31
HETATM   31  O2  UNL     1      23.242   6.545  48.259  1.00  0.00    -0.350 OA
BRANCH  31  32
HETATM   32  C3  UNL     1      24.613   6.389  47.947  1.00  0.00     0.201 C 
BRANCH  32  33
HETATM   33  C2  UNL     1      25.533   6.584  49.104  1.00  0.00     0.193 C 
BRANCH  33  34
HETATM   34  O1  UNL     1      26.566   5.676  49.153  1.00  0.00    -0.394 OA
HETATM   35  C1  UNL     1      26.223   4.398  49.522  1.00  0.00     0.201 C 
ENDBRANCH  33  34
ENDBRANCH  32  33
ENDBRANCH  31  32
ENDBRANCH   1  31
TORSDOF 4
ENDMDL
MODEL 7
REMARK VINA RESULT:      -7.1      3.207      4.041
REMARK  4 active torsions:
REMARK  status: ('A' for Active; 'I' for Inactive)
REMARK    1  A    between atoms: O1_2  and  C2_3 
REMARK    2  A    between atoms: C2_3  and  C3_4 
REMARK    3  A    between atoms: C3_4  and  O2_5 
REMARK    4  A    between atoms: O2_5  and  C4_6 
ROOT
HETATM    1  C4  UNL     1      21.369   1.268  52.641  1.00  0.00     0.085 C 
HETATM    2  C5  UNL     1      20.314   0.583  52.217  1.00  0.00     0.056 C 
HETATM    3  C6  UNL     1      19.207   0.252  51.390  1.00  0.00     0.141 C 
HETATM    4  N1  UNL     1      18.195  -0.127  50.707  1.00  0.00    -0.186 NA
HETATM    5  N2  UNL     1      17.715   0.523  49.576  1.00  0.00    -0.262 N 
HETATM    6  C7  UNL     1      18.234   1.823  49.355  1.00  0.00     0.131 C 
HETATM    7  C8  UNL     1      17.908   3.068  49.636  1.00  0.00     0.050 C 
HETATM    8  C9  UNL     1      17.401   4.098  50.509  1.00  0.00     0.035 C 
HETATM    9  C10 UNL     1      18.320   4.475  51.394  1.00  0.00     0.092 C 
HETATM   10  N3  UNL     1      19.626   3.987  51.532  1.00  0.00    -0.335 N 
HETATM   11  C11 UNL     1      20.912   3.511  51.667  1.00  0.00     0.256 C 
HETATM   12  O3  UNL     1      21.071   4.689  51.277  1.00  0.00    -0.270 OA
HETATM   13  C12 UNL     1      21.873   2.454  51.998  1.00  0.00     0.161 C 
HETATM   14  C13 UNL     1      22.851   3.159  52.956  1.00  0.00     0.050 C 
HETATM   15  C14 UNL     1      24.209   3.029  52.315  1.00  0.00     0.023 C 
HETATM   16  C15 UNL     1      23.963   1.794  51.459  1.00  0.00     0.122 C 
HETATM   17  N4  UNL     1      22.712   2.221  50.807  1.00  0.00    -0.353 N 
HETATM   18  C16 UNL     1      22.890   2.230  49.358  1.00  0.00     0.215 A 
HETATM   19  O4  UNL     1      21.740   2.497  49.581  1.00  0.00    -0.343 OA
HETATM   20  C17 UNL     1      22.315   2.417  48.046  1.00  0.00     0.192 A 
HETATM   21  C18 UNL     1      21.235   2.695  47.282  1.00  0.00     0.057 C 
HETATM   22  C19 UNL     1      20.031   2.932  48.030  1.00  0.00     0.138 C 
HETATM   23  N5  UNL     1      19.464   1.696  48.605  1.00  0.00    -0.364 N 
HETATM   24  C20 UNL     1      18.856   3.542  47.348  1.00  0.00     0.074 C 
HETATM   25 CL1  UNL     1      18.444   3.640  45.647  1.00  0.00    -0.083 Cl
HETATM   26  C21 UNL     1      18.264   3.971  48.504  1.00  0.00     0.150 C 
HETATM   27  F1  UNL     1      18.255   5.235  48.048  1.00  0.00    -0.203 F 
HETATM   28  H10 UNL     1      17.042  -0.082  49.076  1.00  0.00     0.191 HD
HETATM   29  H13 UNL     1      19.240   3.089  51.908  1.00  0.00     0.168 HD
HETATM   30  H23 UNL     1      20.017   0.818  48.408  1.00  0.00     0.162 HD
ENDROOT
BRANCH   1  31
HETATM   31  O2  UNL     1      21.939   0.714  53.784  1.00  0.00    -0.350 OA
BRANCH  31  32
HETATM   32  C3  UNL     1      21.220  -0.306  54.451  1.00  0.00     0.201 C 
BRANCH  32  33
HETATM   33  C2  UNL     1      21.969  -1.586  54.602  1.00  0.00     0.193 C 
BRANCH  33  34
HETATM   34  O1  UNL     1      22.765  -1.636  55.724  1.00  0.00    -0.394 OA
HETATM   35  C1  UNL     1      24.097  -1.362  55.527  1.00  0.00     0.201 C 
ENDBRANCH  33  34
ENDBRANCH  32  33
ENDBRANCH  31  32
ENDBRANCH   1  31
TORSDOF 4
ENDMDL
MODEL 8
REMARK VINA RESULT:      -7.0      7.041     10.715
REMARK  4 active torsions:
REMARK  status: ('A' for Active; 'I' for Inactive)
REMARK    1  A    between atoms: O1_2  and  C2_3 
REMARK    2  A    between atoms: C2_3  and  C3_4 
REMARK    3  A    between atoms: C3_4  and  O2_5 
REMARK    4  A    between atoms: O2_5  and  C4_6 
ROOT
HETATM    1  C4  UNL     1      32.644   7.921  47.477  1.00  0.00     0.085 C 
HETATM    2  C5  UNL     1      32.198   8.720  48.438  1.00  0.00     0.056 C 
HETATM    3  C6  UNL     1      31.249   9.380  49.264  1.00  0.00     0.141 C 
HETATM    4  N1  UNL     1      30.475  10.019  50.057  1.00  0.00    -0.186 NA
HETATM    5  N2  UNL     1      29.087   9.945  50.036  1.00  0.00    -0.262 N 
HETATM    6  C7  UNL     1      28.527   9.331  48.888  1.00  0.00     0.131 C 
HETATM    7  C8  UNL     1      28.058   9.698  47.713  1.00  0.00     0.050 C 
HETATM    8  C9  UNL     1      28.087  10.488  46.508  1.00  0.00     0.035 C 
HETATM    9  C10 UNL     1      28.987  10.021  45.646  1.00  0.00     0.092 C 
HETATM   10  N3  UNL     1      29.836   8.919  45.810  1.00  0.00    -0.335 N 
HETATM   11  C11 UNL     1      30.669   7.833  45.967  1.00  0.00     0.256 C 
HETATM   12  O3  UNL     1      29.886   7.477  45.058  1.00  0.00    -0.270 OA
HETATM   13  C12 UNL     1      31.792   7.145  46.612  1.00  0.00     0.161 C 
HETATM   14  C13 UNL     1      32.625   6.643  45.419  1.00  0.00     0.050 C 
HETATM   15  C14 UNL     1      32.710   5.147  45.586  1.00  0.00     0.023 C 
HETATM   16  C15 UNL     1      32.489   5.052  47.089  1.00  0.00     0.122 C 
HETATM   17  N4  UNL     1      31.279   5.889  47.189  1.00  0.00    -0.353 N 
HETATM   18  C16 UNL     1      30.189   5.109  47.768  1.00  0.00     0.215 A 
HETATM   19  O4  UNL     1      29.790   6.233  47.623  1.00  0.00    -0.343 OA
HETATM   20  C17 UNL     1      28.828   5.062  48.252  1.00  0.00     0.192 A 
HETATM   21  C18 UNL     1      27.664   5.702  48.504  1.00  0.00     0.057 C 
HETATM   22  C19 UNL     1      27.678   7.100  48.172  1.00  0.00     0.138 C 
HETATM   23  N5  UNL     1      28.472   7.906  49.121  1.00  0.00    -0.364 N 
HETATM   24  C20 UNL     1      26.391   7.847  48.109  1.00  0.00     0.074 C 
HETATM   25 CL1  UNL     1      24.826   7.491  48.811  1.00  0.00    -0.083 Cl
HETATM   26  C21 UNL     1      26.885   8.859  47.333  1.00  0.00     0.150 C 
HETATM   27  F1  UNL     1      25.945   8.624  46.402  1.00  0.00    -0.203 F 
HETATM   28  H10 UNL     1      28.695  10.363  50.897  1.00  0.00     0.191 HD
HETATM   29  H13 UNL     1      30.390   9.462  46.512  1.00  0.00     0.168 HD
HETATM   30  H23 UNL     1      28.932   7.356  49.896  1.00  0.00     0.162 HD
ENDROOT
BRANCH   1  31
HETATM   31  O2  UNL     1      34.034   7.914  47.392  1.00  0.00    -0.350 OA
BRANCH  31  32
HETATM   32  C3  UNL     1      34.687   9.151  47.178  1.00  0.00     0.201 C 
BRANCH  32  33
HETATM   33  C2  UNL     1      34.745   9.575  45.750  1.00  0.00     0.193 C 
BRANCH  33  34
HETATM   34  O1  UNL     1      33.830  10.549  45.422  1.00  0.00    -0.394 OA
HETATM   35  C1  UNL     1      33.002  10.262  44.363  1.00  0.00     0.201 C 
ENDBRANCH  33  34
ENDBRANCH  32  33
ENDBRANCH  31  32
ENDBRANCH   1  31
TORSDOF 4
ENDMDL
MODEL 9
REMARK VINA RESULT:      -6.9      6.379      9.469
REMARK  4 active torsions:
REMARK  status: ('A' for Active; 'I' for Inactive)
REMARK    1  A    between atoms: O1_2  and  C2_3 
REMARK    2  A    between atoms: C2_3  and  C3_4 
REMARK    3  A    between atoms: C3_4  and  O2_5 
REMARK    4  A    between atoms: O2_5  and  C4_6 
ROOT
HETATM    1  C4  UNL     1      25.656   9.429  47.196  1.00  0.00     0.085 C 
HETATM    2  C5  UNL     1      26.506   9.514  46.181  1.00  0.00     0.056 C 
HETATM    3  C6  UNL     1      27.727   9.355  45.471  1.00  0.00     0.141 C 
HETATM    4  N1  UNL     1      28.779   9.258  44.751  1.00  0.00    -0.186 NA
HETATM    5  N2  UNL     1      29.977   8.692  45.174  1.00  0.00    -0.262 N 
HETATM    6  C7  UNL     1      30.085   8.467  46.569  1.00  0.00     0.131 C 
HETATM    7  C8  UNL     1      30.550   9.096  47.628  1.00  0.00     0.050 C 
HETATM    8  C9  UNL     1      30.760  10.273  48.435  1.00  0.00     0.035 C 
HETATM    9  C10 UNL     1      29.666  10.588  49.124  1.00  0.00     0.092 C 
HETATM   10  N3  UNL     1      28.433   9.922  49.121  1.00  0.00    -0.335 N 
HETATM   11  C11 UNL     1      27.221   9.267  49.123  1.00  0.00     0.256 C 
HETATM   12  O3  UNL     1      27.666   9.071  50.276  1.00  0.00    -0.270 OA
HETATM   13  C12 UNL     1      25.978   8.842  48.472  1.00  0.00     0.161 C 
HETATM   14  C13 UNL     1      24.895   9.243  49.489  1.00  0.00     0.050 C 
HETATM   15  C14 UNL     1      24.164   7.969  49.826  1.00  0.00     0.023 C 
HETATM   16  C15 UNL     1      24.466   7.168  48.567  1.00  0.00     0.122 C 
HETATM   17  N4  UNL     1      25.926   7.368  48.522  1.00  0.00    -0.353 N 
HETATM   18  C16 UNL     1      26.601   6.074  48.564  1.00  0.00     0.215 A 
HETATM   19  O4  UNL     1      27.446   6.916  48.421  1.00  0.00    -0.343 OA
HETATM   20  C17 UNL     1      27.836   5.325  48.517  1.00  0.00     0.192 A 
HETATM   21  C18 UNL     1      29.181   5.315  48.389  1.00  0.00     0.057 C 
HETATM   22  C19 UNL     1      29.765   6.616  48.207  1.00  0.00     0.138 C 
HETATM   23  N5  UNL     1      29.515   7.171  46.862  1.00  0.00    -0.364 N 
HETATM   24  C20 UNL     1      31.237   6.783  48.359  1.00  0.00     0.074 C 
HETATM   25 CL1  UNL     1      32.536   5.609  48.277  1.00  0.00    -0.083 Cl
HETATM   26  C21 UNL     1      31.176   8.131  48.578  1.00  0.00     0.150 C 
HETATM   27  F1  UNL     1      31.814   7.985  49.751  1.00  0.00    -0.203 F 
HETATM   28  H10 UNL     1      30.597   8.526  44.364  1.00  0.00     0.191 HD
HETATM   29  H13 UNL     1      28.254  10.277  48.153  1.00  0.00     0.168 HD
HETATM   30  H23 UNL     1      28.937   6.557  46.227  1.00  0.00     0.162 HD
ENDROOT
BRANCH   1  31
HETATM   31  O2  UNL     1      24.410   9.974  46.895  1.00  0.00    -0.350 OA
BRANCH  31  32
HETATM   32  C3  UNL     1      24.373  11.300  46.402  1.00  0.00     0.201 C 
BRANCH  32  33
HETATM   33  C2  UNL     1      24.034  12.327  47.427  1.00  0.00     0.193 C 
BRANCH  33  34
HETATM   34  O1  UNL     1      25.101  12.708  48.208  1.00  0.00    -0.394 OA
HETATM   35  C1  UNL     1      25.742  13.862  47.825  1.00  0.00     0.201 C 
ENDBRANCH  33  34
ENDBRANCH  32  33
ENDBRANCH  31  32
ENDBRANCH   1  31
TORSDOF 4
ENDMDL
