MODEL 1
REMARK VINA RESULT:      -7.9      0.000      0.000
REMARK  5 active torsions:
REMARK  status: ('A' for Active; 'I' for Inactive)
REMARK    1  A    between atoms: N1_1  and  C1_2 
REMARK    2  A    between atoms: C2_3  and  O1_4 
REMARK    3  A    between atoms: C2_3  and  C9_11 
REMARK    4  A    between atoms: O1_4  and  C3_5 
REMARK    5  A    between atoms: C14_17  and  O3_18 
ROOT
HETATM    1  C1  UNL     1      24.631  -0.953  54.843  1.00  0.00     0.139 C 
HETATM    2  C2  UNL     1      25.075  -0.722  53.632  1.00  0.00     0.133 C 
ENDROOT
BRANCH   2   3
HETATM    3  O1  UNL     1      23.915  -0.211  53.063  1.00  0.00    -0.334 OA
BRANCH   3   4
HETATM    4  C3  UNL     1      23.693   1.078  52.672  1.00  0.00     0.070 A 
HETATM    5  C4  UNL     1      22.818   1.141  51.581  1.00  0.00     0.037 A 
HETATM    6  C5  UNL     1      22.456   2.367  51.023  1.00  0.00     0.003 A 
HETATM    7  C6  UNL     1      22.962   3.558  51.546  1.00  0.00     0.000 A 
HETATM    8  C7  UNL     1      23.827   3.480  52.627  1.00  0.00     0.003 A 
HETATM    9  C8  UNL     1      24.184   2.261  53.176  1.00  0.00     0.037 A 
ENDBRANCH   3   4
ENDBRANCH   2   3
BRANCH   2  10
HETATM   10  C9  UNL     1      26.015  -0.646  52.453  1.00  0.00     0.086 C 
HETATM   11  C10 UNL     1      26.520  -2.048  52.223  1.00  0.00     0.188 C 
HETATM   12  O2  UNL     1      27.400  -2.174  53.352  1.00  0.00    -0.350 OA
HETATM   13  C11 UNL     1      28.121  -0.964  53.438  1.00  0.00     0.075 A 
HETATM   14  C12 UNL     1      29.369  -0.562  53.909  1.00  0.00     0.040 A 
HETATM   15  C16 UNL     1      27.293   0.024  52.885  1.00  0.00    -0.013 A 
HETATM   16  C13 UNL     1      29.758   0.759  53.828  1.00  0.00     0.039 A 
HETATM   17  C14 UNL     1      28.937   1.728  53.281  1.00  0.00     0.066 A 
HETATM   18  C15 UNL     1      27.678   1.347  52.801  1.00  0.00     0.047 A 
BRANCH  17  19
HETATM   19  O3  UNL     1      29.361   3.043  53.216  1.00  0.00    -0.361 OA
HETATM   20  H14 UNL     1      30.016   3.468  53.851  1.00  0.00     0.217 HD
ENDBRANCH  17  19
ENDBRANCH   2  10
BRANCH   1  21
HETATM   21  N1  UNL     1      25.067  -1.449  56.075  1.00  0.00    -0.421 N 
HETATM   22  H1  UNL     1      25.387  -1.807  56.969  1.00  0.00     0.150 HD
HETATM   23  H2  UNL     1      24.266  -2.058  56.421  1.00  0.00     0.150 HD
ENDBRANCH   1  21
TORSDOF 5
ENDMDL
MODEL 2
REMARK VINA RESULT:      -7.7      2.386      3.649
REMARK  5 active torsions:
REMARK  status: ('A' for Active; 'I' for Inactive)
REMARK    1  A    between atoms: N1_1  and  C1_2 
REMARK    2  A    between atoms: C2_3  and  O1_4 
REMARK    3  A    between atoms: C2_3  and  C9_11 
REMARK    4  A    between atoms: O1_4  and  C3_5 
REMARK    5  A    between atoms: C14_17  and  O3_18 
ROOT
HETATM    1  C1  UNL     1      25.897   2.484  51.148  1.00  0.00     0.139 C 
HETATM    2  C2  UNL     1      25.716   1.678  52.165  1.00  0.00     0.133 C 
ENDROOT
BRANCH   2   3
HETATM    3  O1  UNL     1      24.598   0.991  51.710  1.00  0.00    -0.334 OA
BRANCH   3   4
HETATM    4  C3  UNL     1      23.490   0.655  52.435  1.00  0.00     0.070 A 
HETATM    5  C4  UNL     1      22.483   1.619  52.311  1.00  0.00     0.037 A 
HETATM    6  C5  UNL     1      21.264   1.472  52.971  1.00  0.00     0.003 A 
HETATM    7  C6  UNL     1      21.026   0.353  53.772  1.00  0.00     0.000 A 
HETATM    8  C7  UNL     1      22.032  -0.594  53.885  1.00  0.00     0.003 A 
HETATM    9  C8  UNL     1      23.241  -0.441  53.227  1.00  0.00     0.037 A 
ENDBRANCH   3   4
ENDBRANCH   2   3
BRANCH   2  10
HETATM   10  C9  UNL     1      25.923   1.007  53.502  1.00  0.00     0.086 C 
HETATM   11  C10 UNL     1      26.506   2.055  54.416  1.00  0.00     0.188 C 
HETATM   12  O2  UNL     1      27.833   2.141  53.868  1.00  0.00    -0.350 OA
HETATM   13  C11 UNL     1      28.259   0.815  53.637  1.00  0.00     0.075 A 
HETATM   14  C12 UNL     1      29.475   0.138  53.593  1.00  0.00     0.040 A 
HETATM   15  C16 UNL     1      27.096   0.066  53.403  1.00  0.00    -0.013 A 
HETATM   16  C13 UNL     1      29.517  -1.215  53.328  1.00  0.00     0.039 A 
HETATM   17  C14 UNL     1      28.366  -1.948  53.099  1.00  0.00     0.066 A 
HETATM   18  C15 UNL     1      27.132  -1.288  53.138  1.00  0.00     0.047 A 
BRANCH  17  19
HETATM   19  O3  UNL     1      28.446  -3.303  52.837  1.00  0.00    -0.361 OA
HETATM   20  H14 UNL     1      28.456  -4.025  53.539  1.00  0.00     0.217 HD
ENDBRANCH  17  19
ENDBRANCH   2  10
BRANCH   1  21
HETATM   21  N1  UNL     1      26.750   3.503  50.719  1.00  0.00    -0.421 N 
HETATM   22  H1  UNL     1      27.368   4.247  50.409  1.00  0.00     0.150 HD
HETATM   23  H2  UNL     1      27.319   3.068  49.931  1.00  0.00     0.150 HD
ENDBRANCH   1  21
TORSDOF 5
ENDMDL
MODEL 3
REMARK VINA RESULT:      -7.4      2.432      5.979
REMARK  5 active torsions:
REMARK  status: ('A' for Active; 'I' for Inactive)
REMARK    1  A    between atoms: N1_1  and  C1_2 
REMARK    2  A    between atoms: C2_3  and  O1_4 
REMARK    3  A    between atoms: C2_3  and  C9_11 
REMARK    4  A    between atoms: O1_4  and  C3_5 
REMARK    5  A    between atoms: C14_17  and  O3_18 
ROOT
HETATM    1  C1  UNL     1      24.516   3.395  52.521  1.00  0.00     0.139 C 
HETATM    2  C2  UNL     1      24.308   2.197  52.032  1.00  0.00     0.133 C 
ENDROOT
BRANCH   2   3
HETATM    3  O1  UNL     1      25.584   1.926  51.555  1.00  0.00    -0.334 OA
BRANCH   3   4
HETATM    4  C3  UNL     1      26.544   1.171  52.166  1.00  0.00     0.070 A 
HETATM    5  C4  UNL     1      27.525   1.971  52.763  1.00  0.00     0.037 A 
HETATM    6  C5  UNL     1      28.600   1.400  53.443  1.00  0.00     0.003 A 
HETATM    7  C6  UNL     1      28.716   0.013  53.541  1.00  0.00     0.000 A 
HETATM    8  C7  UNL     1      27.737  -0.768  52.945  1.00  0.00     0.003 A 
HETATM    9  C8  UNL     1      26.672  -0.195  52.271  1.00  0.00     0.037 A 
ENDBRANCH   3   4
ENDBRANCH   2   3
BRANCH   2  10
HETATM   10  C9  UNL     1      23.596   0.923  51.648  1.00  0.00     0.086 C 
HETATM   11  C10 UNL     1      22.388   1.338  50.846  1.00  0.00     0.188 C 
HETATM   12  O2  UNL     1      21.574   1.879  51.899  1.00  0.00    -0.350 OA
HETATM   13  C11 UNL     1      21.665   0.976  52.981  1.00  0.00     0.075 A 
HETATM   14  C12 UNL     1      20.858   0.597  54.052  1.00  0.00     0.040 A 
HETATM   15  C16 UNL     1      22.916   0.353  52.865  1.00  0.00    -0.013 A 
HETATM   16  C13 UNL     1      21.287  -0.355  54.952  1.00  0.00     0.039 A 
HETATM   17  C14 UNL     1      22.522  -0.967  54.831  1.00  0.00     0.066 A 
HETATM   18  C15 UNL     1      23.350  -0.601  53.764  1.00  0.00     0.047 A 
BRANCH  17  19
HETATM   19  O3  UNL     1      22.920  -1.918  55.753  1.00  0.00    -0.361 OA
HETATM   20  H14 UNL     1      23.596  -2.643  55.576  1.00  0.00     0.217 HD
ENDBRANCH  17  19
ENDBRANCH   2  10
BRANCH   1  21
HETATM   21  N1  UNL     1      23.837   4.425  53.178  1.00  0.00    -0.421 N 
HETATM   22  H1  UNL     1      23.343   5.174  53.652  1.00  0.00     0.150 HD
HETATM   23  H2  UNL     1      24.020   4.254  54.213  1.00  0.00     0.150 HD
ENDBRANCH   1  21
TORSDOF 5
ENDMDL
MODEL 4
REMARK VINA RESULT:      -7.1      4.762      6.455
REMARK  5 active torsions:
REMARK  status: ('A' for Active; 'I' for Inactive)
REMARK    1  A    between atoms: N1_1  and  C1_2 
REMARK    2  A    between atoms: C2_3  and  O1_4 
REMARK    3  A    between atoms: C2_3  and  C9_11 
REMARK    4  A    between atoms: O1_4  and  C3_5 
REMARK    5  A    between atoms: C14_17  and  O3_18 
ROOT
HETATM    1  C1  UNL     1      24.799   6.436  50.671  1.00  0.00     0.139 C 
HETATM    2  C2  UNL     1      24.908   5.262  50.097  1.00  0.00     0.133 C 
ENDROOT
BRANCH   2   3
HETATM    3  O1  UNL     1      25.378   5.663  48.853  1.00  0.00    -0.334 OA
BRANCH   3   4
HETATM    4  C3  UNL     1      26.679   5.872  48.496  1.00  0.00     0.070 A 
HETATM    5  C4  UNL     1      26.853   7.125  47.897  1.00  0.00     0.037 A 
HETATM    6  C5  UNL     1      28.109   7.540  47.457  1.00  0.00     0.003 A 
HETATM    7  C6  UNL     1      29.220   6.709  47.607  1.00  0.00     0.000 A 
HETATM    8  C7  UNL     1      29.033   5.471  48.203  1.00  0.00     0.003 A 
HETATM    9  C8  UNL     1      27.783   5.064  48.637  1.00  0.00     0.037 A 
ENDBRANCH   3   4
ENDBRANCH   2   3
BRANCH   2  10
HETATM   10  C9  UNL     1      24.859   3.766  49.902  1.00  0.00     0.086 C 
HETATM   11  C10 UNL     1      23.419   3.361  50.091  1.00  0.00     0.188 C 
HETATM   12  O2  UNL     1      23.309   3.522  51.516  1.00  0.00    -0.350 OA
HETATM   13  C11 UNL     1      24.479   2.964  52.075  1.00  0.00     0.075 A 
HETATM   14  C12 UNL     1      24.835   2.362  53.279  1.00  0.00     0.040 A 
HETATM   15  C16 UNL     1      25.479   3.093  51.099  1.00  0.00    -0.013 A 
HETATM   16  C13 UNL     1      26.124   1.917  53.488  1.00  0.00     0.039 A 
HETATM   17  C14 UNL     1      27.104   2.047  52.521  1.00  0.00     0.066 A 
HETATM   18  C15 UNL     1      26.769   2.649  51.303  1.00  0.00     0.047 A 
BRANCH  17  19
HETATM   19  O3  UNL     1      28.387   1.589  52.765  1.00  0.00    -0.361 OA
HETATM   20  H14 UNL     1      29.225   2.130  52.634  1.00  0.00     0.217 HD
ENDBRANCH  17  19
ENDBRANCH   2  10
BRANCH   1  21
HETATM   21  N1  UNL     1      24.417   7.012  51.885  1.00  0.00    -0.421 N 
HETATM   22  H1  UNL     1      24.144   7.432  52.768  1.00  0.00     0.150 HD
HETATM   23  H2  UNL     1      23.425   6.664  52.050  1.00  0.00     0.150 HD
ENDBRANCH   1  21
TORSDOF 5
ENDMDL
MODEL 5
REMARK VINA RESULT:      -7.0      3.602      4.780
REMARK  5 active torsions:
REMARK  status: ('A' for Active; 'I' for Inactive)
REMARK    1  A    between atoms: N1_1  and  C1_2 
REMARK    2  A    between atoms: C2_3  and  O1_4 
REMARK    3  A    between atoms: C2_3  and  C9_11 
REMARK    4  A    between atoms: O1_4  and  C3_5 
REMARK    5  A    between atoms: C14_17  and  O3_18 
ROOT
HETATM    1  C1  UNL     1      23.944   4.775  52.045  1.00  0.00     0.139 C 
HETATM    2  C2  UNL     1      24.316   3.694  51.403  1.00  0.00     0.133 C 
ENDROOT
BRANCH   2   3
HETATM    3  O1  UNL     1      24.383   4.211  50.115  1.00  0.00    -0.334 OA
BRANCH   3   4
HETATM    4  C3  UNL     1      25.479   4.749  49.504  1.00  0.00     0.070 A 
HETATM    5  C4  UNL     1      25.230   6.051  49.055  1.00  0.00     0.037 A 
HETATM    6  C5  UNL     1      26.219   6.785  48.401  1.00  0.00     0.003 A 
HETATM    7  C6  UNL     1      27.481   6.231  48.182  1.00  0.00     0.000 A 
HETATM    8  C7  UNL     1      27.713   4.940  48.633  1.00  0.00     0.003 A 
HETATM    9  C8  UNL     1      26.728   4.216  49.281  1.00  0.00     0.037 A 
ENDBRANCH   3   4
ENDBRANCH   2   3
BRANCH   2  10
HETATM   10  C9  UNL     1      24.718   2.262  51.144  1.00  0.00     0.086 C 
HETATM   11  C10 UNL     1      23.570   1.408  51.619  1.00  0.00     0.188 C 
HETATM   12  O2  UNL     1      23.731   1.556  53.040  1.00  0.00    -0.350 OA
HETATM   13  C11 UNL     1      25.112   1.429  53.302  1.00  0.00     0.075 A 
HETATM   14  C12 UNL     1      25.904   1.007  54.368  1.00  0.00     0.040 A 
HETATM   15  C16 UNL     1      25.772   1.860  52.142  1.00  0.00    -0.013 A 
HETATM   16  C13 UNL     1      27.279   1.018  54.270  1.00  0.00     0.039 A 
HETATM   17  C14 UNL     1      27.923   1.443  53.122  1.00  0.00     0.066 A 
HETATM   18  C15 UNL     1      27.148   1.872  52.038  1.00  0.00     0.047 A 
BRANCH  17  19
HETATM   19  O3  UNL     1      29.305   1.441  53.059  1.00  0.00    -0.361 OA
HETATM   20  H14 UNL     1      29.843   1.171  52.251  1.00  0.00     0.217 HD
ENDBRANCH  17  19
ENDBRANCH   2  10
BRANCH   1  21
HETATM   21  N1  UNL     1      23.636   5.210  53.336  1.00  0.00    -0.421 N 
HETATM   22  H1  UNL     1      23.416   5.527  54.275  1.00  0.00     0.150 HD
HETATM   23  H2  UNL     1      22.628   4.905  53.492  1.00  0.00     0.150 HD
ENDBRANCH   1  21
TORSDOF 5
ENDMDL
MODEL 6
REMARK VINA RESULT:      -6.9      3.730      5.845
REMARK  5 active torsions:
REMARK  status: ('A' for Active; 'I' for Inactive)
REMARK    1  A    between atoms: N1_1  and  C1_2 
REMARK    2  A    between atoms: C2_3  and  O1_4 
REMARK    3  A    between atoms: C2_3  and  C9_11 
REMARK    4  A    between atoms: O1_4  and  C3_5 
REMARK    5  A    between atoms: C14_17  and  O3_18 
ROOT
HETATM    1  C1  UNL     1      23.883   4.875  51.838  1.00  0.00     0.139 C 
HETATM    2  C2  UNL     1      23.959   3.877  50.991  1.00  0.00     0.133 C 
ENDROOT
BRANCH   2   3
HETATM    3  O1  UNL     1      24.203   4.591  49.825  1.00  0.00    -0.334 OA
BRANCH   3   4
HETATM    4  C3  UNL     1      25.420   4.956  49.326  1.00  0.00     0.070 A 
HETATM    5  C4  UNL     1      25.388   6.246  48.784  1.00  0.00     0.037 A 
HETATM    6  C5  UNL     1      26.529   6.815  48.219  1.00  0.00     0.003 A 
HETATM    7  C6  UNL     1      27.730   6.104  48.186  1.00  0.00     0.000 A 
HETATM    8  C7  UNL     1      27.747   4.828  48.728  1.00  0.00     0.003 A 
HETATM    9  C8  UNL     1      26.611   4.268  49.286  1.00  0.00     0.037 A 
ENDBRANCH   3   4
ENDBRANCH   2   3
BRANCH   2  10
HETATM   10  C9  UNL     1      23.958   2.467  50.453  1.00  0.00     0.086 C 
HETATM   11  C10 UNL     1      22.574   2.224  49.903  1.00  0.00     0.188 C 
HETATM   12  O2  UNL     1      21.841   2.120  51.135  1.00  0.00    -0.350 OA
HETATM   13  C11 UNL     1      22.617   1.315  51.997  1.00  0.00     0.075 A 
HETATM   14  C12 UNL     1      22.375   0.450  53.062  1.00  0.00     0.040 A 
HETATM   15  C16 UNL     1      23.952   1.500  51.608  1.00  0.00    -0.013 A 
HETATM   16  C13 UNL     1      23.418  -0.192  53.696  1.00  0.00     0.039 A 
HETATM   17  C14 UNL     1      24.732  -0.006  53.306  1.00  0.00     0.066 A 
HETATM   18  C15 UNL     1      24.999   0.859  52.239  1.00  0.00     0.047 A 
BRANCH  17  19
HETATM   19  O3  UNL     1      25.753  -0.667  53.965  1.00  0.00    -0.361 OA
HETATM   20  H14 UNL     1      26.324  -1.391  53.561  1.00  0.00     0.217 HD
ENDBRANCH  17  19
ENDBRANCH   2  10
BRANCH   1  21
HETATM   21  N1  UNL     1      23.670   5.123  53.196  1.00  0.00    -0.421 N 
HETATM   22  H1  UNL     1      23.517   5.307  54.183  1.00  0.00     0.150 HD
HETATM   23  H2  UNL     1      23.423   4.174  53.610  1.00  0.00     0.150 HD
ENDBRANCH   1  21
TORSDOF 5
ENDMDL
MODEL 7
REMARK VINA RESULT:      -6.8      3.590      5.471
REMARK  5 active torsions:
REMARK  status: ('A' for Active; 'I' for Inactive)
REMARK    1  A    between atoms: N1_1  and  C1_2 
REMARK    2  A    between atoms: C2_3  and  O1_4 
REMARK    3  A    between atoms: C2_3  and  C9_11 
REMARK    4  A    between atoms: O1_4  and  C3_5 
REMARK    5  A    between atoms: C14_17  and  O3_18 
ROOT
HETATM    1  C1  UNL     1      21.330   3.360  52.068  1.00  0.00     0.139 C 
HETATM    2  C2  UNL     1      22.050   2.284  51.863  1.00  0.00     0.133 C 
ENDROOT
BRANCH   2   3
HETATM    3  O1  UNL     1      23.309   2.802  52.141  1.00  0.00    -0.334 OA
BRANCH   3   4
HETATM    4  C3  UNL     1      24.284   3.115  51.237  1.00  0.00     0.070 A 
HETATM    5  C4  UNL     1      25.509   2.532  51.580  1.00  0.00     0.037 A 
HETATM    6  C5  UNL     1      26.641   2.725  50.790  1.00  0.00     0.003 A 
HETATM    7  C6  UNL     1      26.571   3.507  49.635  1.00  0.00     0.000 A 
HETATM    8  C7  UNL     1      25.350   4.077  49.307  1.00  0.00     0.003 A 
HETATM    9  C8  UNL     1      24.230   3.883  50.097  1.00  0.00     0.037 A 
ENDBRANCH   3   4
ENDBRANCH   2   3
BRANCH   2  10
HETATM   10  C9  UNL     1      22.410   0.857  51.527  1.00  0.00     0.086 C 
HETATM   11  C10 UNL     1      21.129   0.189  51.093  1.00  0.00     0.188 C 
HETATM   12  O2  UNL     1      20.470   0.083  52.366  1.00  0.00    -0.350 OA
HETATM   13  C11 UNL     1      21.445  -0.358  53.287  1.00  0.00     0.075 A 
HETATM   14  C12 UNL     1      21.456  -1.089  54.474  1.00  0.00     0.040 A 
HETATM   15  C16 UNL     1      22.677   0.103  52.803  1.00  0.00    -0.013 A 
HETATM   16  C13 UNL     1      22.642  -1.340  55.132  1.00  0.00     0.039 A 
HETATM   17  C14 UNL     1      23.854  -0.883  54.648  1.00  0.00     0.066 A 
HETATM   18  C15 UNL     1      23.866  -0.146  53.458  1.00  0.00     0.047 A 
BRANCH  17  19
HETATM   19  O3  UNL     1      25.024  -1.154  55.335  1.00  0.00    -0.361 OA
HETATM   20  H14 UNL     1      25.118  -1.850  56.057  1.00  0.00     0.217 HD
ENDBRANCH  17  19
ENDBRANCH   2  10
BRANCH   1  21
HETATM   21  N1  UNL     1      20.001   3.791  52.033  1.00  0.00    -0.421 N 
HETATM   22  H1  UNL     1      19.036   4.102  52.005  1.00  0.00     0.150 HD
HETATM   23  H2  UNL     1      19.904   4.438  52.872  1.00  0.00     0.150 HD
ENDBRANCH   1  21
TORSDOF 5
ENDMDL
MODEL 8
REMARK VINA RESULT:      -6.6      7.391     10.185
REMARK  5 active torsions:
REMARK  status: ('A' for Active; 'I' for Inactive)
REMARK    1  A    between atoms: N1_1  and  C1_2 
REMARK    2  A    between atoms: C2_3  and  O1_4 
REMARK    3  A    between atoms: C2_3  and  C9_11 
REMARK    4  A    between atoms: O1_4  and  C3_5 
REMARK    5  A    between atoms: C14_17  and  O3_18 
ROOT
HETATM    1  C1  UNL     1      31.567   7.001  49.627  1.00  0.00     0.139 C 
HETATM    2  C2  UNL     1      30.913   6.360  48.689  1.00  0.00     0.133 C 
ENDROOT
BRANCH   2   3
HETATM    3  O1  UNL     1      31.563   5.135  48.759  1.00  0.00    -0.334 OA
BRANCH   3   4
HETATM    4  C3  UNL     1      32.581   4.701  47.960  1.00  0.00     0.070 A 
HETATM    5  C4  UNL     1      32.430   3.351  47.623  1.00  0.00     0.037 A 
HETATM    6  C5  UNL     1      33.363   2.707  46.811  1.00  0.00     0.003 A 
HETATM    7  C6  UNL     1      34.470   3.401  46.319  1.00  0.00     0.000 A 
HETATM    8  C7  UNL     1      34.606   4.738  46.661  1.00  0.00     0.003 A 
HETATM    9  C8  UNL     1      33.677   5.372  47.468  1.00  0.00     0.037 A 
ENDBRANCH   3   4
ENDBRANCH   2   3
BRANCH   2  10
HETATM   10  C9  UNL     1      29.919   6.080  47.588  1.00  0.00     0.086 C 
HETATM   11  C10 UNL     1      29.697   7.390  46.874  1.00  0.00     0.188 C 
HETATM   12  O2  UNL     1      28.919   8.077  47.868  1.00  0.00    -0.350 OA
HETATM   13  C11 UNL     1      27.973   7.147  48.350  1.00  0.00     0.075 A 
HETATM   14  C12 UNL     1      26.695   7.200  48.902  1.00  0.00     0.040 A 
HETATM   15  C16 UNL     1      28.555   5.881  48.195  1.00  0.00    -0.013 A 
HETATM   16  C13 UNL     1      26.042   6.044  49.275  1.00  0.00     0.039 A 
HETATM   17  C14 UNL     1      26.621   4.798  49.117  1.00  0.00     0.066 A 
HETATM   18  C15 UNL     1      27.905   4.721  48.566  1.00  0.00     0.047 A 
BRANCH  17  19
HETATM   19  O3  UNL     1      25.937   3.659  49.502  1.00  0.00    -0.361 OA
HETATM   20  H14 UNL     1      26.332   2.904  50.038  1.00  0.00     0.217 HD
ENDBRANCH  17  19
ENDBRANCH   2  10
BRANCH   1  21
HETATM   21  N1  UNL     1      31.612   8.251  50.249  1.00  0.00    -0.421 N 
HETATM   22  H1  UNL     1      31.642   9.161  50.699  1.00  0.00     0.150 HD
HETATM   23  H2  UNL     1      32.513   8.240  50.816  1.00  0.00     0.150 HD
ENDBRANCH   1  21
TORSDOF 5
ENDMDL
MODEL 9
REMARK VINA RESULT:      -6.6      2.695      6.391
REMARK  5 active torsions:
REMARK  status: ('A' for Active; 'I' for Inactive)
REMARK    1  A    between atoms: N1_1  and  C1_2 
REMARK    2  A    between atoms: C2_3  and  O1_4 
REMARK    3  A    between atoms: C2_3  and  C9_11 
REMARK    4  A    between atoms: O1_4  and  C3_5 
REMARK    5  A    between atoms: C14_17  and  O3_18 
ROOT
HETATM    1  C1  UNL     1      26.564   2.452  51.324  1.00  0.00     0.139 C 
HETATM    2  C2  UNL     1      25.722   2.404  52.327  1.00  0.00     0.133 C 
ENDROOT
BRANCH   2   3
HETATM    3  O1  UNL     1      26.585   1.963  53.322  1.00  0.00    -0.334 OA
BRANCH   3   4
HETATM    4  C3  UNL     1      27.361   0.840  53.295  1.00  0.00     0.070 A 
HETATM    5  C4  UNL     1      28.686   1.122  53.646  1.00  0.00     0.037 A 
HETATM    6  C5  UNL     1      29.649   0.114  53.682  1.00  0.00     0.003 A 
HETATM    7  C6  UNL     1      29.304  -1.202  53.368  1.00  0.00     0.000 A 
HETATM    8  C7  UNL     1      27.988  -1.467  53.023  1.00  0.00     0.003 A 
HETATM    9  C8  UNL     1      27.037  -0.462  52.988  1.00  0.00     0.037 A 
ENDBRANCH   3   4
ENDBRANCH   2   3
BRANCH   2  10
HETATM   10  C9  UNL     1      24.436   2.515  53.110  1.00  0.00     0.086 C 
HETATM   11  C10 UNL     1      23.758   1.172  53.003  1.00  0.00     0.188 C 
HETATM   12  O2  UNL     1      23.329   1.228  51.632  1.00  0.00    -0.350 OA
HETATM   13  C11 UNL     1      22.797   2.519  51.430  1.00  0.00     0.075 A 
HETATM   14  C12 UNL     1      21.839   3.099  50.601  1.00  0.00     0.040 A 
HETATM   15  C16 UNL     1      23.460   3.361  52.335  1.00  0.00    -0.013 A 
HETATM   16  C13 UNL     1      21.566   4.449  50.681  1.00  0.00     0.039 A 
HETATM   17  C14 UNL     1      22.223   5.273  51.577  1.00  0.00     0.066 A 
HETATM   18  C15 UNL     1      23.190   4.712  52.419  1.00  0.00     0.047 A 
BRANCH  17  19
HETATM   19  O3  UNL     1      21.923   6.622  51.629  1.00  0.00    -0.361 OA
HETATM   20  H14 UNL     1      21.255   7.039  52.257  1.00  0.00     0.217 HD
ENDBRANCH  17  19
ENDBRANCH   2  10
BRANCH   1  21
HETATM   21  N1  UNL     1      26.604   2.772  49.964  1.00  0.00    -0.421 N 
HETATM   22  H1  UNL     1      26.633   3.008  48.978  1.00  0.00     0.150 HD
HETATM   23  H2  UNL     1      26.802   1.848  49.474  1.00  0.00     0.150 HD
ENDBRANCH   1  21
TORSDOF 5
ENDMDL
