MODEL 1
REMARK VINA RESULT:      -6.6      0.000      0.000
REMARK  9 active torsions:
REMARK  status: ('A' for Active; 'I' for Inactive)
REMARK    1  A    between atoms: C2_2  and  C3_3 
REMARK    2  A    between atoms: C3_3  and  N1_4 
REMARK    3  A    between atoms: N1_4  and  C4_5 
REMARK    4  A    between atoms: C4_5  and  C5_6 
REMARK    5  A    between atoms: C6_8  and  N2_9 
REMARK    6  A    between atoms: C9_12  and  O1_13 
REMARK    7  A    between atoms: O1_13  and  C10_14 
REMARK    8  A    between atoms: C10_14  and  C11_15 
REMARK    9  A    between atoms: C11_15  and  N3_16 
ROOT
HETATM    1  N2  UNL     1      24.818   0.653  52.606  1.00  0.00    -0.264 NA
HETATM    2  C7  UNL     1      24.131   1.532  52.002  1.00  0.00     0.037 C 
HETATM    3  C8  UNL     1      24.795   2.441  51.106  1.00  0.00     0.059 C 
HETATM    4  C9  UNL     1      24.776   3.382  50.173  1.00  0.00     0.052 C 
HETATM    5  C12 UNL     1      25.561   4.282  49.326  1.00  0.00     0.043 C 
HETATM    6  C13 UNL     1      27.068   4.003  49.345  1.00  0.00     0.017 C 
HETATM    7  C14 UNL     1      25.292   5.720  49.595  1.00  0.00     0.006 A 
HETATM    8  C15 UNL     1      24.737   6.664  50.377  1.00  0.00     0.001 A 
HETATM    9  C16 UNL     1      24.087   5.817  51.504  1.00  0.00    -0.035 A 
HETATM   10  O2  UNL     1      24.727   6.053  50.392  1.00  0.00     0.000 OA
HETATM   11  C17 UNL     1      23.418   5.004  52.694  1.00  0.00     0.034 C 
HETATM   12  C18 UNL     1      23.143   3.708  52.380  1.00  0.00     0.001 C 
HETATM   13  C19 UNL     1      22.969   2.344  51.688  1.00  0.00     0.064 C 
ENDROOT
BRANCH   1  14
HETATM   14  C6  UNL     1      24.331  -0.294  53.498  1.00  0.00     0.138 C 
HETATM   15  C5  UNL     1      25.048  -0.474  54.593  1.00  0.00     0.057 C 
HETATM   16 CL1  UNL     1      24.537  -1.644  55.801  1.00  0.00    -0.086 Cl
BRANCH  15  17
HETATM   17  C4  UNL     1      26.302   0.264  54.894  1.00  0.00     0.322 C 
BRANCH  17  18
HETATM   18  N1  UNL     1      27.390  -0.492  54.301  1.00  0.00     0.091 N 
HETATM   19  H6  UNL     1      27.397  -1.484  54.596  1.00  0.00     0.316 HD
BRANCH  18  20
HETATM   20  C3  UNL     1      28.671   0.076  54.606  1.00  0.00     0.296 C 
BRANCH  20  21
HETATM   21  C2  UNL     1      29.614  -0.327  53.546  1.00  0.00    -0.008 C 
HETATM   22  C1  UNL     1      29.452  -1.641  53.460  1.00  0.00     0.008 C 
ENDBRANCH  20  21
ENDBRANCH  18  20
ENDBRANCH  17  18
ENDBRANCH  15  17
ENDBRANCH   1  14
BRANCH   4  23
HETATM   23  O1  UNL     1      23.458   3.684  49.811  1.00  0.00    -0.353 OA
BRANCH  23  24
HETATM   24  C10 UNL     1      22.843   3.474  48.592  1.00  0.00     0.205 C 
BRANCH  24  25
HETATM   25  C11 UNL     1      21.992   4.655  48.205  1.00  0.00     0.293 C 
BRANCH  25  26
HETATM   26  N3  UNL     1      21.554   5.453  49.307  1.00  0.00     0.080 N 
HETATM   27  H15 UNL     1      22.319   6.014  49.692  1.00  0.00     0.312 HD
HETATM   28  H16 UNL     1      20.678   5.992  49.114  1.00  0.00     0.312 HD
ENDBRANCH  25  26
ENDBRANCH  24  25
ENDBRANCH  23  24
ENDBRANCH   4  23
TORSDOF 9
ENDMDL
MODEL 2
REMARK VINA RESULT:      -6.4      6.633      8.905
REMARK  9 active torsions:
REMARK  status: ('A' for Active; 'I' for Inactive)
REMARK    1  A    between atoms: C2_2  and  C3_3 
REMARK    2  A    between atoms: C3_3  and  N1_4 
REMARK    3  A    between atoms: N1_4  and  C4_5 
REMARK    4  A    between atoms: C4_5  and  C5_6 
REMARK    5  A    between atoms: C6_8  and  N2_9 
REMARK    6  A    between atoms: C9_12  and  O1_13 
REMARK    7  A    between atoms: O1_13  and  C10_14 
REMARK    8  A    between atoms: C10_14  and  C11_15 
REMARK    9  A    between atoms: C11_15  and  N3_16 
ROOT
HETATM    1  N2  UNL     1      28.747   5.165  48.375  1.00  0.00    -0.264 NA
HETATM    2  C7  UNL     1      29.774   5.658  47.814  1.00  0.00     0.037 C 
HETATM    3  C8  UNL     1      30.962   4.853  47.708  1.00  0.00     0.059 C 
HETATM    4  C9  UNL     1      32.180   4.628  47.237  1.00  0.00     0.052 C 
HETATM    5  C12 UNL     1      33.344   3.740  47.228  1.00  0.00     0.043 C 
HETATM    6  C13 UNL     1      33.107   2.391  47.915  1.00  0.00     0.017 C 
HETATM    7  C14 UNL     1      34.576   4.385  47.754  1.00  0.00     0.006 A 
HETATM    8  C15 UNL     1      35.154   5.416  48.398  1.00  0.00     0.001 A 
HETATM    9  C16 UNL     1      33.939   6.328  48.718  1.00  0.00    -0.035 A 
HETATM   10  O2  UNL     1      34.581   5.309  48.216  1.00  0.00     0.000 OA
HETATM   11  C17 UNL     1      32.731   7.292  49.089  1.00  0.00     0.034 C 
HETATM   12  C18 UNL     1      31.637   7.123  48.296  1.00  0.00     0.001 C 
HETATM   13  C19 UNL     1      30.622   6.679  47.228  1.00  0.00     0.064 C 
ENDROOT
BRANCH   1  14
HETATM   14  C6  UNL     1      27.529   5.807  48.556  1.00  0.00     0.138 C 
HETATM   15  C5  UNL     1      26.549   5.058  49.029  1.00  0.00     0.057 C 
HETATM   16 CL1  UNL     1      24.958   5.754  49.304  1.00  0.00    -0.086 Cl
BRANCH  15  17
HETATM   17  C4  UNL     1      26.693   3.617  49.359  1.00  0.00     0.322 C 
BRANCH  17  18
HETATM   18  N1  UNL     1      26.888   3.529  50.795  1.00  0.00     0.091 N 
HETATM   19  H6  UNL     1      27.859   3.280  51.054  1.00  0.00     0.316 HD
BRANCH  18  20
HETATM   20  C3  UNL     1      26.004   2.577  51.402  1.00  0.00     0.296 C 
BRANCH  20  21
HETATM   21  C2  UNL     1      26.747   1.878  52.468  1.00  0.00    -0.008 C 
HETATM   22  C1  UNL     1      26.005   2.072  53.551  1.00  0.00     0.008 C 
ENDBRANCH  20  21
ENDBRANCH  18  20
ENDBRANCH  17  18
ENDBRANCH  15  17
ENDBRANCH   1  14
BRANCH   4  23
HETATM   23  O1  UNL     1      32.569   5.660  46.375  1.00  0.00    -0.353 OA
BRANCH  23  24
HETATM   24  C10 UNL     1      32.814   5.586  45.018  1.00  0.00     0.205 C 
BRANCH  24  25
HETATM   25  C11 UNL     1      33.878   6.569  44.605  1.00  0.00     0.293 C 
BRANCH  25  26
HETATM   26  N3  UNL     1      34.287   7.465  45.641  1.00  0.00     0.080 N 
HETATM   27  H15 UNL     1      33.904   7.188  46.549  1.00  0.00     0.312 HD
HETATM   28  H16 UNL     1      35.315   7.659  45.647  1.00  0.00     0.312 HD
ENDBRANCH  25  26
ENDBRANCH  24  25
ENDBRANCH  23  24
ENDBRANCH   4  23
TORSDOF 9
ENDMDL
MODEL 3
REMARK VINA RESULT:      -6.3      2.182      4.284
REMARK  9 active torsions:
REMARK  status: ('A' for Active; 'I' for Inactive)
REMARK    1  A    between atoms: C2_2  and  C3_3 
REMARK    2  A    between atoms: C3_3  and  N1_4 
REMARK    3  A    between atoms: N1_4  and  C4_5 
REMARK    4  A    between atoms: C4_5  and  C5_6 
REMARK    5  A    between atoms: C6_8  and  N2_9 
REMARK    6  A    between atoms: C9_12  and  O1_13 
REMARK    7  A    between atoms: O1_13  and  C10_14 
REMARK    8  A    between atoms: C10_14  and  C11_15 
REMARK    9  A    between atoms: C11_15  and  N3_16 
ROOT
HETATM    1  N2  UNL     1      25.419   1.630  52.213  1.00  0.00    -0.264 NA
HETATM    2  C7  UNL     1      24.853   2.572  51.577  1.00  0.00     0.037 C 
HETATM    3  C8  UNL     1      23.436   2.764  51.734  1.00  0.00     0.059 C 
HETATM    4  C9  UNL     1      22.327   3.467  51.555  1.00  0.00     0.052 C 
HETATM    5  C12 UNL     1      20.878   3.539  51.751  1.00  0.00     0.043 C 
HETATM    6  C13 UNL     1      20.317   2.450  52.672  1.00  0.00     0.017 C 
HETATM    7  C14 UNL     1      20.116   3.587  50.475  1.00  0.00     0.006 A 
HETATM    8  C15 UNL     1      20.100   3.459  49.135  1.00  0.00     0.001 A 
HETATM    9  C16 UNL     1      21.576   3.095  48.821  1.00  0.00    -0.035 A 
HETATM   10  O2  UNL     1      20.549   3.435  49.549  1.00  0.00     0.000 OA
HETATM   11  C17 UNL     1      23.069   2.702  48.441  1.00  0.00     0.034 C 
HETATM   12  C18 UNL     1      23.984   3.075  49.377  1.00  0.00     0.001 C 
HETATM   13  C19 UNL     1      24.716   3.642  50.607  1.00  0.00     0.064 C 
ENDROOT
BRANCH   1  14
HETATM   14  C6  UNL     1      26.771   1.314  52.171  1.00  0.00     0.138 C 
HETATM   15  C5  UNL     1      27.257   0.726  53.250  1.00  0.00     0.057 C 
HETATM   16 CL1  UNL     1      28.955   0.274  53.321  1.00  0.00    -0.086 Cl
BRANCH  15  17
HETATM   17  C4  UNL     1      26.449   0.405  54.454  1.00  0.00     0.322 C 
BRANCH  17  18
HETATM   18  N1  UNL     1      25.794  -0.865  54.197  1.00  0.00     0.091 N 
HETATM   19  H6  UNL     1      25.772  -1.110  53.192  1.00  0.00     0.316 HD
BRANCH  18  20
HETATM   20  C3  UNL     1      24.449  -0.888  54.694  1.00  0.00     0.296 C 
BRANCH  20  21
HETATM   21  C2  UNL     1      23.534  -0.792  53.541  1.00  0.00    -0.008 C 
HETATM   22  C1  UNL     1      22.410  -0.322  54.066  1.00  0.00     0.008 C 
ENDBRANCH  20  21
ENDBRANCH  18  20
ENDBRANCH  17  18
ENDBRANCH  15  17
ENDBRANCH   1  14
BRANCH   4  23
HETATM   23  O1  UNL     1      22.611   4.665  50.889  1.00  0.00    -0.353 OA
BRANCH  23  24
HETATM   24  C10 UNL     1      22.307   5.952  51.290  1.00  0.00     0.205 C 
BRANCH  24  25
HETATM   25  C11 UNL     1      23.416   6.907  50.931  1.00  0.00     0.293 C 
BRANCH  25  26
HETATM   26  N3  UNL     1      24.434   7.029  51.927  1.00  0.00     0.080 N 
HETATM   27  H15 UNL     1      25.078   6.234  51.905  1.00  0.00     0.312 HD
HETATM   28  H16 UNL     1      24.902   7.965  51.938  1.00  0.00     0.312 HD
ENDBRANCH  25  26
ENDBRANCH  24  25
ENDBRANCH  23  24
ENDBRANCH   4  23
TORSDOF 9
ENDMDL
MODEL 4
REMARK VINA RESULT:      -6.2      2.771      4.068
REMARK  9 active torsions:
REMARK  status: ('A' for Active; 'I' for Inactive)
REMARK    1  A    between atoms: C2_2  and  C3_3 
REMARK    2  A    between atoms: C3_3  and  N1_4 
REMARK    3  A    between atoms: N1_4  and  C4_5 
REMARK    4  A    between atoms: C4_5  and  C5_6 
REMARK    5  A    between atoms: C6_8  and  N2_9 
REMARK    6  A    between atoms: C9_12  and  O1_13 
REMARK    7  A    between atoms: O1_13  and  C10_14 
REMARK    8  A    between atoms: C10_14  and  C11_15 
REMARK    9  A    between atoms: C11_15  and  N3_16 
ROOT
HETATM    1  N2  UNL     1      26.351   2.133  51.690  1.00  0.00    -0.264 NA
HETATM    2  C7  UNL     1      25.150   2.187  52.096  1.00  0.00     0.037 C 
HETATM    3  C8  UNL     1      24.085   2.114  51.131  1.00  0.00     0.059 C 
HETATM    4  C9  UNL     1      22.805   1.992  50.815  1.00  0.00     0.052 C 
HETATM    5  C12 UNL     1      21.805   1.958  49.744  1.00  0.00     0.043 C 
HETATM    6  C13 UNL     1      22.403   1.882  48.335  1.00  0.00     0.017 C 
HETATM    7  C14 UNL     1      20.815   3.063  49.833  1.00  0.00     0.006 A 
HETATM    8  C15 UNL     1      20.437   4.233  50.380  1.00  0.00     0.001 A 
HETATM    9  C16 UNL     1      21.598   4.525  51.368  1.00  0.00    -0.035 A 
HETATM   10  O2  UNL     1      20.905   3.856  50.488  1.00  0.00     0.000 OA
HETATM   11  C17 UNL     1      22.768   4.885  52.382  1.00  0.00     0.034 C 
HETATM   12  C18 UNL     1      23.489   3.804  52.787  1.00  0.00     0.001 C 
HETATM   13  C19 UNL     1      24.057   2.394  53.029  1.00  0.00     0.064 C 
ENDROOT
BRANCH   1  14
HETATM   14  C6  UNL     1      27.486   2.189  52.489  1.00  0.00     0.138 C 
HETATM   15  C5  UNL     1      27.898   1.036  52.984  1.00  0.00     0.057 C 
HETATM   16 CL1  UNL     1      29.325   0.974  54.009  1.00  0.00    -0.086 Cl
BRANCH  15  17
HETATM   17  C4  UNL     1      27.223  -0.263  52.731  1.00  0.00     0.322 C 
BRANCH  17  18
HETATM   18  N1  UNL     1      27.030  -0.898  54.022  1.00  0.00     0.091 N 
HETATM   19  H6  UNL     1      26.787  -1.901  53.944  1.00  0.00     0.316 HD
BRANCH  18  20
HETATM   20  C3  UNL     1      26.011  -0.248  54.795  1.00  0.00     0.296 C 
BRANCH  20  21
HETATM   21  C2  UNL     1      24.705  -0.796  54.382  1.00  0.00    -0.008 C 
HETATM   22  C1  UNL     1      24.159  -1.206  55.520  1.00  0.00     0.008 C 
ENDBRANCH  20  21
ENDBRANCH  18  20
ENDBRANCH  17  18
ENDBRANCH  15  17
ENDBRANCH   1  14
BRANCH   4  23
HETATM   23  O1  UNL     1      22.029   1.830  51.968  1.00  0.00    -0.353 OA
BRANCH  23  24
HETATM   24  C10 UNL     1      21.229   0.757  52.309  1.00  0.00     0.205 C 
BRANCH  24  25
HETATM   25  C11 UNL     1      20.495   1.017  53.600  1.00  0.00     0.293 C 
BRANCH  25  26
HETATM   26  N3  UNL     1      20.783   0.081  54.641  1.00  0.00     0.080 N 
HETATM   27  H15 UNL     1      21.448   0.465  55.317  1.00  0.00     0.312 HD
HETATM   28  H16 UNL     1      19.929  -0.348  55.069  1.00  0.00     0.312 HD
ENDBRANCH  25  26
ENDBRANCH  24  25
ENDBRANCH  23  24
ENDBRANCH   4  23
TORSDOF 9
ENDMDL
MODEL 5
REMARK VINA RESULT:      -6.2      1.638      1.869
REMARK  9 active torsions:
REMARK  status: ('A' for Active; 'I' for Inactive)
REMARK    1  A    between atoms: C2_2  and  C3_3 
REMARK    2  A    between atoms: C3_3  and  N1_4 
REMARK    3  A    between atoms: N1_4  and  C4_5 
REMARK    4  A    between atoms: C4_5  and  C5_6 
REMARK    5  A    between atoms: C6_8  and  N2_9 
REMARK    6  A    between atoms: C9_12  and  O1_13 
REMARK    7  A    between atoms: O1_13  and  C10_14 
REMARK    8  A    between atoms: C10_14  and  C11_15 
REMARK    9  A    between atoms: C11_15  and  N3_16 
ROOT
HETATM    1  N2  UNL     1      23.220   0.787  51.965  1.00  0.00    -0.264 NA
HETATM    2  C7  UNL     1      22.880   1.862  51.382  1.00  0.00     0.037 C 
HETATM    3  C8  UNL     1      23.887   2.637  50.709  1.00  0.00     0.059 C 
HETATM    4  C9  UNL     1      24.255   3.624  49.906  1.00  0.00     0.052 C 
HETATM    5  C12 UNL     1      25.367   4.357  49.296  1.00  0.00     0.043 C 
HETATM    6  C13 UNL     1      26.735   3.695  49.495  1.00  0.00     0.017 C 
HETATM    7  C14 UNL     1      25.416   5.787  49.698  1.00  0.00     0.006 A 
HETATM    8  C15 UNL     1      24.983   6.775  50.503  1.00  0.00     0.001 A 
HETATM    9  C16 UNL     1      23.966   6.037  51.414  1.00  0.00    -0.035 A 
HETATM   10  O2  UNL     1      24.822   6.189  50.442  1.00  0.00     0.000 OA
HETATM   11  C17 UNL     1      22.928   5.329  52.387  1.00  0.00     0.034 C 
HETATM   12  C18 UNL     1      22.403   4.180  51.881  1.00  0.00     0.001 C 
HETATM   13  C19 UNL     1      22.021   2.970  51.008  1.00  0.00     0.064 C 
ENDROOT
BRANCH   1  14
HETATM   14  C6  UNL     1      22.374  -0.071  52.655  1.00  0.00     0.138 C 
HETATM   15  C5  UNL     1      22.893  -0.657  53.720  1.00  0.00     0.057 C 
HETATM   16 CL1  UNL     1      21.923  -1.765  54.680  1.00  0.00    -0.086 Cl
BRANCH  15  17
HETATM   17  C4  UNL     1      24.287  -0.444  54.186  1.00  0.00     0.322 C 
BRANCH  17  18
HETATM   18  N1  UNL     1      25.162  -1.002  53.172  1.00  0.00     0.091 N 
HETATM   19  H6  UNL     1      25.246  -2.032  53.236  1.00  0.00     0.316 HD
BRANCH  18  20
HETATM   20  C3  UNL     1      26.481  -0.441  53.228  1.00  0.00     0.296 C 
BRANCH  20  21
HETATM   21  C2  UNL     1      26.720   0.292  51.970  1.00  0.00    -0.008 C 
HETATM   22  C1  UNL     1      27.110   1.494  52.373  1.00  0.00     0.008 C 
ENDBRANCH  20  21
ENDBRANCH  18  20
ENDBRANCH  17  18
ENDBRANCH  15  17
ENDBRANCH   1  14
BRANCH   4  23
HETATM   23  O1  UNL     1      23.132   4.288  49.399  1.00  0.00    -0.353 OA
BRANCH  23  24
HETATM   24  C10 UNL     1      22.718   4.375  48.084  1.00  0.00     0.205 C 
BRANCH  24  25
HETATM   25  C11 UNL     1      22.236   5.765  47.760  1.00  0.00     0.293 C 
BRANCH  25  26
HETATM   26  N3  UNL     1      22.306   6.105  46.373  1.00  0.00     0.080 N 
HETATM   27  H15 UNL     1      23.262   6.345  46.094  1.00  0.00     0.312 HD
HETATM   28  H16 UNL     1      21.834   5.414  45.746  1.00  0.00     0.312 HD
ENDBRANCH  25  26
ENDBRANCH  24  25
ENDBRANCH  23  24
ENDBRANCH   4  23
TORSDOF 9
ENDMDL
MODEL 6
REMARK VINA RESULT:      -6.0      7.716      9.528
REMARK  9 active torsions:
REMARK  status: ('A' for Active; 'I' for Inactive)
REMARK    1  A    between atoms: C2_2  and  C3_3 
REMARK    2  A    between atoms: C3_3  and  N1_4 
REMARK    3  A    between atoms: N1_4  and  C4_5 
REMARK    4  A    between atoms: C4_5  and  C5_6 
REMARK    5  A    between atoms: C6_8  and  N2_9 
REMARK    6  A    between atoms: C9_12  and  O1_13 
REMARK    7  A    between atoms: O1_13  and  C10_14 
REMARK    8  A    between atoms: C10_14  and  C11_15 
REMARK    9  A    between atoms: C11_15  and  N3_16 
ROOT
HETATM    1  N2  UNL     1      33.079   8.062  47.788  1.00  0.00    -0.264 NA
HETATM    2  C7  UNL     1      31.961   8.332  48.325  1.00  0.00     0.037 C 
HETATM    3  C8  UNL     1      30.800   8.467  47.486  1.00  0.00     0.059 C 
HETATM    4  C9  UNL     1      29.492   8.587  47.316  1.00  0.00     0.052 C 
HETATM    5  C12 UNL     1      28.390   8.749  46.364  1.00  0.00     0.043 C 
HETATM    6  C13 UNL     1      28.802   8.580  44.897  1.00  0.00     0.017 C 
HETATM    7  C14 UNL     1      27.636  10.016  46.552  1.00  0.00     0.006 A 
HETATM    8  C15 UNL     1      27.544  11.230  47.127  1.00  0.00     0.001 A 
HETATM    9  C16 UNL     1      28.842  11.292  47.976  1.00  0.00    -0.035 A 
HETATM   10  O2  UNL     1      27.944  10.772  47.186  1.00  0.00     0.000 OA
HETATM   11  C17 UNL     1      30.164  11.420  48.849  1.00  0.00     0.034 C 
HETATM   12  C18 UNL     1      30.714  10.220  49.182  1.00  0.00     0.001 C 
HETATM   13  C19 UNL     1      31.036   8.727  49.372  1.00  0.00     0.064 C 
ENDROOT
BRANCH   1  14
HETATM   14  C6  UNL     1      34.286   7.900  48.454  1.00  0.00     0.138 C 
HETATM   15  C5  UNL     1      34.809   6.687  48.409  1.00  0.00     0.057 C 
HETATM   16 CL1  UNL     1      36.337   6.353  49.213  1.00  0.00    -0.086 Cl
BRANCH  15  17
HETATM   17  C4  UNL     1      34.181   5.540  47.705  1.00  0.00     0.322 C 
BRANCH  17  18
HETATM   18  N1  UNL     1      33.140   5.027  48.576  1.00  0.00     0.091 N 
HETATM   19  H6  UNL     1      33.493   4.337  49.262  1.00  0.00     0.316 HD
BRANCH  18  20
HETATM   20  C3  UNL     1      32.070   4.420  47.839  1.00  0.00     0.296 C 
BRANCH  20  21
HETATM   21  C2  UNL     1      32.654   3.727  46.675  1.00  0.00    -0.008 C 
HETATM   22  C1  UNL     1      31.825   2.713  46.461  1.00  0.00     0.008 C 
ENDBRANCH  20  21
ENDBRANCH  18  20
ENDBRANCH  17  18
ENDBRANCH  15  17
ENDBRANCH   1  14
BRANCH   4  23
HETATM   23  O1  UNL     1      28.833   8.557  48.550  1.00  0.00    -0.353 OA
BRANCH  23  24
HETATM   24  C10 UNL     1      27.742   7.791  48.913  1.00  0.00     0.205 C 
BRANCH  24  25
HETATM   25  C11 UNL     1      26.870   8.525  49.899  1.00  0.00     0.293 C 
BRANCH  25  26
HETATM   26  N3  UNL     1      27.589   9.294  50.864  1.00  0.00     0.080 N 
HETATM   27  H15 UNL     1      27.045   9.423  51.722  1.00  0.00     0.312 HD
HETATM   28  H16 UNL     1      28.570   8.964  51.020  1.00  0.00     0.312 HD
ENDBRANCH  25  26
ENDBRANCH  24  25
ENDBRANCH  23  24
ENDBRANCH   4  23
TORSDOF 9
ENDMDL
MODEL 7
REMARK VINA RESULT:      -6.0      7.310     10.404
REMARK  9 active torsions:
REMARK  status: ('A' for Active; 'I' for Inactive)
REMARK    1  A    between atoms: C2_2  and  C3_3 
REMARK    2  A    between atoms: C3_3  and  N1_4 
REMARK    3  A    between atoms: N1_4  and  C4_5 
REMARK    4  A    between atoms: C4_5  and  C5_6 
REMARK    5  A    between atoms: C6_8  and  N2_9 
REMARK    6  A    between atoms: C9_12  and  O1_13 
REMARK    7  A    between atoms: O1_13  and  C10_14 
REMARK    8  A    between atoms: C10_14  and  C11_15 
REMARK    9  A    between atoms: C11_15  and  N3_16 
ROOT
HETATM    1  N2  UNL     1      28.591   6.516  47.701  1.00  0.00    -0.264 NA
HETATM    2  C7  UNL     1      29.826   6.280  47.872  1.00  0.00     0.037 C 
HETATM    3  C8  UNL     1      30.772   6.793  46.917  1.00  0.00     0.059 C 
HETATM    4  C9  UNL     1      32.011   7.048  46.525  1.00  0.00     0.052 C 
HETATM    5  C12 UNL     1      32.877   7.576  45.468  1.00  0.00     0.043 C 
HETATM    6  C13 UNL     1      32.124   8.297  44.345  1.00  0.00     0.017 C 
HETATM    7  C14 UNL     1      33.802   6.556  44.906  1.00  0.00     0.006 A 
HETATM    8  C15 UNL     1      34.169   5.266  44.798  1.00  0.00     0.001 A 
HETATM    9  C16 UNL     1      33.117   4.548  45.685  1.00  0.00    -0.035 A 
HETATM   10  O2  UNL     1      33.741   5.550  45.129  1.00  0.00     0.000 OA
HETATM   11  C17 UNL     1      32.055   3.758  46.565  1.00  0.00     0.034 C 
HETATM   12  C18 UNL     1      31.455   4.527  47.514  1.00  0.00     0.001 C 
HETATM   13  C19 UNL     1      31.006   5.664  48.451  1.00  0.00     0.064 C 
ENDROOT
BRANCH   1  14
HETATM   14  C6  UNL     1      27.557   6.095  48.527  1.00  0.00     0.138 C 
HETATM   15  C5  UNL     1      26.846   7.054  49.092  1.00  0.00     0.057 C 
HETATM   16 CL1  UNL     1      25.507   6.651  50.158  1.00  0.00    -0.086 Cl
BRANCH  15  17
HETATM   17  C4  UNL     1      27.099   8.504  48.887  1.00  0.00     0.322 C 
BRANCH  17  18
HETATM   18  N1  UNL     1      28.217   8.862  49.740  1.00  0.00     0.091 N 
HETATM   19  H6  UNL     1      27.920   9.182  50.678  1.00  0.00     0.316 HD
BRANCH  18  20
HETATM   20  C3  UNL     1      29.035   9.885  49.155  1.00  0.00     0.296 C 
BRANCH  20  21
HETATM   21  C2  UNL     1      30.446   9.559  49.439  1.00  0.00    -0.008 C 
HETATM   22  C1  UNL     1      31.111  10.147  48.453  1.00  0.00     0.008 C 
ENDBRANCH  20  21
ENDBRANCH  18  20
ENDBRANCH  17  18
ENDBRANCH  15  17
ENDBRANCH   1  14
BRANCH   4  23
HETATM   23  O1  UNL     1      32.926   6.657  47.509  1.00  0.00    -0.353 OA
BRANCH  23  24
HETATM   24  C10 UNL     1      33.761   7.461  48.261  1.00  0.00     0.205 C 
BRANCH  24  25
HETATM   25  C11 UNL     1      35.094   6.796  48.487  1.00  0.00     0.293 C 
BRANCH  25  26
HETATM   26  N3  UNL     1      36.202   7.698  48.539  1.00  0.00     0.080 N 
HETATM   27  H15 UNL     1      36.433   7.952  49.504  1.00  0.00     0.312 HD
HETATM   28  H16 UNL     1      37.021   7.393  47.965  1.00  0.00     0.312 HD
ENDBRANCH  25  26
ENDBRANCH  24  25
ENDBRANCH  23  24
ENDBRANCH   4  23
TORSDOF 9
ENDMDL
MODEL 8
REMARK VINA RESULT:      -5.8      4.359      5.751
REMARK  9 active torsions:
REMARK  status: ('A' for Active; 'I' for Inactive)
REMARK    1  A    between atoms: C2_2  and  C3_3 
REMARK    2  A    between atoms: C3_3  and  N1_4 
REMARK    3  A    between atoms: N1_4  and  C4_5 
REMARK    4  A    between atoms: C4_5  and  C5_6 
REMARK    5  A    between atoms: C6_8  and  N2_9 
REMARK    6  A    between atoms: C9_12  and  O1_13 
REMARK    7  A    between atoms: O1_13  and  C10_14 
REMARK    8  A    between atoms: C10_14  and  C11_15 
REMARK    9  A    between atoms: C11_15  and  N3_16 
ROOT
HETATM    1  N2  UNL     1      26.560   4.322  49.288  1.00  0.00    -0.264 NA
HETATM    2  C7  UNL     1      26.659   5.471  48.756  1.00  0.00     0.037 C 
HETATM    3  C8  UNL     1      27.968   5.997  48.476  1.00  0.00     0.059 C 
HETATM    4  C9  UNL     1      28.769   6.893  47.919  1.00  0.00     0.052 C 
HETATM    5  C12 UNL     1      30.148   7.349  47.723  1.00  0.00     0.043 C 
HETATM    6  C13 UNL     1      31.209   6.359  48.215  1.00  0.00     0.017 C 
HETATM    7  C14 UNL     1      30.400   8.704  48.279  1.00  0.00     0.006 A 
HETATM    8  C15 UNL     1      29.986   9.735  49.040  1.00  0.00     0.001 A 
HETATM    9  C16 UNL     1      28.606   9.238  49.548  1.00  0.00    -0.035 A 
HETATM   10  O2  UNL     1      29.722   9.211  48.871  1.00  0.00     0.000 OA
HETATM   11  C17 UNL     1      27.196   8.772  50.115  1.00  0.00     0.034 C 
HETATM   12  C18 UNL     1      26.596   7.812  49.359  1.00  0.00     0.001 C 
HETATM   13  C19 UNL     1      26.223   6.773  48.287  1.00  0.00     0.064 C 
ENDROOT
BRANCH   1  14
HETATM   14  C6  UNL     1      25.377   3.675  49.619  1.00  0.00     0.138 C 
HETATM   15  C5  UNL     1      25.449   2.830  50.633  1.00  0.00     0.057 C 
HETATM   16 CL1  UNL     1      24.018   1.949  51.151  1.00  0.00    -0.086 Cl
BRANCH  15  17
HETATM   17  C4  UNL     1      26.692   2.556  51.397  1.00  0.00     0.322 C 
BRANCH  17  18
HETATM   18  N1  UNL     1      26.745   1.123  51.620  1.00  0.00     0.091 N 
HETATM   19  H6  UNL     1      25.837   0.656  51.448  1.00  0.00     0.316 HD
BRANCH  18  20
HETATM   20  C3  UNL     1      27.172   0.798  52.950  1.00  0.00     0.296 C 
BRANCH  20  21
HETATM   21  C2  UNL     1      27.642  -0.600  52.951  1.00  0.00    -0.008 C 
HETATM   22  C1  UNL     1      26.575  -1.293  52.575  1.00  0.00     0.008 C 
ENDBRANCH  20  21
ENDBRANCH  18  20
ENDBRANCH  17  18
ENDBRANCH  15  17
ENDBRANCH   1  14
BRANCH   4  23
HETATM   23  O1  UNL     1      28.025   7.836  47.201  1.00  0.00    -0.353 OA
BRANCH  23  24
HETATM   24  C10 UNL     1      28.171   8.204  45.877  1.00  0.00     0.205 C 
BRANCH  24  25
HETATM   25  C11 UNL     1      27.500   9.525  45.606  1.00  0.00     0.293 C 
BRANCH  25  26
HETATM   26  N3  UNL     1      28.110  10.641  46.257  1.00  0.00     0.080 N 
HETATM   27  H15 UNL     1      28.237  10.468  47.258  1.00  0.00     0.312 HD
HETATM   28  H16 UNL     1      28.964  10.999  45.769  1.00  0.00     0.312 HD
ENDBRANCH  25  26
ENDBRANCH  24  25
ENDBRANCH  23  24
ENDBRANCH   4  23
TORSDOF 9
ENDMDL
MODEL 9
REMARK VINA RESULT:      -5.8      8.252     11.211
REMARK  9 active torsions:
REMARK  status: ('A' for Active; 'I' for Inactive)
REMARK    1  A    between atoms: C2_2  and  C3_3 
REMARK    2  A    between atoms: C3_3  and  N1_4 
REMARK    3  A    between atoms: N1_4  and  C4_5 
REMARK    4  A    between atoms: C4_5  and  C5_6 
REMARK    5  A    between atoms: C6_8  and  N2_9 
REMARK    6  A    between atoms: C9_12  and  O1_13 
REMARK    7  A    between atoms: O1_13  and  C10_14 
REMARK    8  A    between atoms: C10_14  and  C11_15 
REMARK    9  A    between atoms: C11_15  and  N3_16 
ROOT
HETATM    1  N2  UNL     1      31.050   8.283  48.192  1.00  0.00    -0.264 NA
HETATM    2  C7  UNL     1      32.023   7.853  47.500  1.00  0.00     0.037 C 
HETATM    3  C8  UNL     1      32.058   6.461  47.139  1.00  0.00     0.059 C 
HETATM    4  C9  UNL     1      32.565   5.446  46.455  1.00  0.00     0.052 C 
HETATM    5  C12 UNL     1      32.524   4.006  46.188  1.00  0.00     0.043 C 
HETATM    6  C13 UNL     1      31.321   3.290  46.812  1.00  0.00     0.017 C 
HETATM    7  C14 UNL     1      33.788   3.309  46.541  1.00  0.00     0.006 A 
HETATM    8  C15 UNL     1      34.990   3.335  47.146  1.00  0.00     0.001 A 
HETATM    9  C16 UNL     1      35.036   4.773  47.728  1.00  0.00    -0.035 A 
HETATM   10  O2  UNL     1      34.561   3.760  47.057  1.00  0.00     0.000 OA
HETATM   11  C17 UNL     1      35.129   6.227  48.363  1.00  0.00     0.034 C 
HETATM   12  C18 UNL     1      34.320   7.139  47.757  1.00  0.00     0.001 C 
HETATM   13  C19 UNL     1      33.320   7.877  46.849  1.00  0.00     0.064 C 
ENDROOT
BRANCH   1  14
HETATM   14  C6  UNL     1      30.868   9.592  48.620  1.00  0.00     0.138 C 
HETATM   15  C5  UNL     1      29.625  10.039  48.590  1.00  0.00     0.057 C 
HETATM   16 CL1  UNL     1      29.264  11.680  49.108  1.00  0.00    -0.086 Cl
BRANCH  15  17
HETATM   17  C4  UNL     1      28.465   9.231  48.135  1.00  0.00     0.322 C 
BRANCH  17  18
HETATM   18  N1  UNL     1      28.268   8.182  49.118  1.00  0.00     0.091 N 
HETATM   19  H6  UNL     1      29.159   7.788  49.468  1.00  0.00     0.316 HD
BRANCH  18  20
HETATM   20  C3  UNL     1      27.471   7.105  48.606  1.00  0.00     0.296 C 
BRANCH  20  21
HETATM   21  C2  UNL     1      28.380   6.014  48.207  1.00  0.00    -0.008 C 
HETATM   22  C1  UNL     1      27.765   4.917  48.631  1.00  0.00     0.008 C 
ENDBRANCH  20  21
ENDBRANCH  18  20
ENDBRANCH  17  18
ENDBRANCH  15  17
ENDBRANCH   1  14
BRANCH   4  23
HETATM   23  O1  UNL     1      33.590   5.888  45.612  1.00  0.00    -0.353 OA
BRANCH  23  24
HETATM   24  C10 UNL     1      33.573   5.991  44.234  1.00  0.00     0.205 C 
BRANCH  24  25
HETATM   25  C11 UNL     1      34.763   5.296  43.624  1.00  0.00     0.293 C 
BRANCH  25  26
HETATM   26  N3  UNL     1      35.018   5.649  42.262  1.00  0.00     0.080 N 
HETATM   27  H15 UNL     1      34.499   6.489  41.989  1.00  0.00     0.312 HD
HETATM   28  H16 UNL     1      36.034   5.671  42.016  1.00  0.00     0.312 HD
ENDBRANCH  25  26
ENDBRANCH  24  25
ENDBRANCH  23  24
ENDBRANCH   4  23
TORSDOF 9
ENDMDL
