MODEL 1
REMARK VINA RESULT:      -9.3      0.000      0.000
REMARK  2 active torsions:
REMARK  status: ('A' for Active; 'I' for Inactive)
REMARK    1  A    between atoms: N1_1  and  C1_2 
REMARK    2  A    between atoms: C2_3  and  C3_4 
ROOT
HETATM    1  C3  UNL     1      25.461   2.317  51.673  1.00  0.00    -0.045 C 
HETATM    2  C4  UNL     1      25.303   2.910  50.510  1.00  0.00    -0.012 C 
HETATM    3  C5  UNL     1      24.874   3.707  49.430  1.00  0.00     0.035 C 
HETATM    4  C6  UNL     1      23.675   3.182  48.653  1.00  0.00     0.159 C 
HETATM    5  N2  UNL     1      22.514   3.732  49.383  1.00  0.00    -0.276 NA
HETATM    6  C7  UNL     1      22.942   4.670  50.143  1.00  0.00     0.095 C 
HETATM    7  C8  UNL     1      24.309   5.101  49.757  1.00  0.00     0.088 C 
HETATM    8  N3  UNL     1      21.851   4.878  51.089  1.00  0.00    -0.374 N 
HETATM    9  C9  UNL     1      21.800   4.280  52.429  1.00  0.00     0.167 C 
HETATM   10  C10 UNL     1      21.981   2.896  52.541  1.00  0.00     0.007 A 
HETATM   11  S1  UNL     1      20.655   1.570  52.654  1.00  0.00    -0.104 SA
HETATM   12  C11 UNL     1      21.814   0.183  52.760  1.00  0.00     0.051 A 
HETATM   13  C12 UNL     1      23.044   0.784  52.705  1.00  0.00     0.015 A 
HETATM   14  C13 UNL     1      23.153   2.136  52.596  1.00  0.00    -0.039 A 
HETATM   15  C14 UNL     1      24.400   2.946  52.508  1.00  0.00     0.078 C 
HETATM   16  H9  UNL     1      21.055   5.516  50.759  1.00  0.00     0.161 HD
ENDROOT
BRANCH   1  17
HETATM   17  C2  UNL     1      26.384   1.313  52.193  1.00  0.00    -0.001 A 
HETATM   18  C1  UNL     1      27.542   1.499  52.849  1.00  0.00     0.073 A 
HETATM   19  C18 UNL     1      28.350   0.470  53.324  1.00  0.00     0.132 A 
HETATM   20  C17 UNL     1      27.920  -0.813  53.099  1.00  0.00     0.107 A 
HETATM   21  O1  UNL     1      29.546   0.403  54.007  1.00  0.00    -0.321 OA
HETATM   22  C16 UNL     1      26.750  -1.016  52.435  1.00  0.00     0.041 A 
HETATM   23  O2  UNL     1      28.876  -1.674  53.656  1.00  0.00    -0.323 OA
HETATM   24  C15 UNL     1      26.000   0.016  51.991  1.00  0.00     0.017 A 
HETATM   25  C19 UNL     1      30.039  -0.918  53.933  1.00  0.00     0.352 C 
BRANCH  18  26
HETATM   26  N1  UNL     1      28.039   2.776  53.116  1.00  0.00    -0.396 N 
HETATM   27  H1  UNL     1      27.318   3.421  52.673  1.00  0.00     0.156 HD
HETATM   28  H2  UNL     1      28.919   2.574  53.646  1.00  0.00     0.156 HD
ENDBRANCH  18  26
ENDBRANCH   1  17
TORSDOF 2
ENDMDL
MODEL 2
REMARK VINA RESULT:      -8.6      2.378      4.096
REMARK  2 active torsions:
REMARK  status: ('A' for Active; 'I' for Inactive)
REMARK    1  A    between atoms: N1_1  and  C1_2 
REMARK    2  A    between atoms: C2_3  and  C3_4 
ROOT
HETATM    1  C3  UNL     1      24.273   0.057  53.169  1.00  0.00    -0.045 C 
HETATM    2  C4  UNL     1      23.293  -0.491  53.855  1.00  0.00    -0.012 C 
HETATM    3  C5  UNL     1      22.049  -0.955  54.328  1.00  0.00     0.035 C 
HETATM    4  C6  UNL     1      21.194   0.068  55.062  1.00  0.00     0.159 C 
HETATM    5  N2  UNL     1      20.422   0.720  53.984  1.00  0.00    -0.276 NA
HETATM    6  C7  UNL     1      20.509  -0.019  52.943  1.00  0.00     0.095 C 
HETATM    7  C8  UNL     1      21.004  -1.377  53.280  1.00  0.00     0.088 C 
HETATM    8  N3  UNL     1      20.081   0.856  51.856  1.00  0.00    -0.374 N 
HETATM    9  C9  UNL     1      21.002   1.599  50.988  1.00  0.00     0.167 C 
HETATM   10  C10 UNL     1      21.982   2.395  51.594  1.00  0.00     0.007 A 
HETATM   11  S1  UNL     1      21.912   4.241  51.932  1.00  0.00    -0.104 SA
HETATM   12  C11 UNL     1      23.550   4.334  52.699  1.00  0.00     0.051 A 
HETATM   13  C12 UNL     1      24.003   3.042  52.647  1.00  0.00     0.015 A 
HETATM   14  C13 UNL     1      23.239   2.058  52.100  1.00  0.00    -0.039 A 
HETATM   15  C14 UNL     1      23.568   0.610  51.978  1.00  0.00     0.078 C 
HETATM   16  H9  UNL     1      19.023   0.937  51.705  1.00  0.00     0.161 HD
ENDROOT
BRANCH   1  17
HETATM   17  C2  UNL     1      25.715   0.167  53.356  1.00  0.00    -0.001 A 
HETATM   18  C1  UNL     1      26.673  -0.718  53.032  1.00  0.00     0.073 A 
HETATM   19  C18 UNL     1      28.035  -0.514  53.236  1.00  0.00     0.132 A 
HETATM   20  C17 UNL     1      28.406   0.677  53.806  1.00  0.00     0.107 A 
HETATM   21  O1  UNL     1      29.179  -1.245  52.997  1.00  0.00    -0.321 OA
HETATM   22  C16 UNL     1      27.447   1.583  54.140  1.00  0.00     0.041 A 
HETATM   23  O2  UNL     1      29.804   0.666  53.915  1.00  0.00    -0.323 OA
HETATM   24  C15 UNL     1      26.136   1.338  53.923  1.00  0.00     0.017 A 
HETATM   25  C19 UNL     1      30.250  -0.660  53.707  1.00  0.00     0.352 C 
BRANCH  18  26
HETATM   26  N1  UNL     1      26.369  -1.949  52.447  1.00  0.00    -0.396 N 
HETATM   27  H1  UNL     1      27.230  -2.540  52.649  1.00  0.00     0.156 HD
HETATM   28  H2  UNL     1      25.414  -1.785  52.051  1.00  0.00     0.156 HD
ENDBRANCH  18  26
ENDBRANCH   1  17
TORSDOF 2
ENDMDL
MODEL 3
REMARK VINA RESULT:      -8.4      2.224      3.660
REMARK  2 active torsions:
REMARK  status: ('A' for Active; 'I' for Inactive)
REMARK    1  A    between atoms: N1_1  and  C1_2 
REMARK    2  A    between atoms: C2_3  and  C3_4 
ROOT
HETATM    1  C3  UNL     1      23.545   1.138  51.902  1.00  0.00    -0.045 C 
HETATM    2  C4  UNL     1      22.387   0.627  52.260  1.00  0.00    -0.012 C 
HETATM    3  C5  UNL     1      21.027   0.278  52.383  1.00  0.00     0.035 C 
HETATM    4  C6  UNL     1      20.156   1.261  53.151  1.00  0.00     0.159 C 
HETATM    5  N2  UNL     1      19.708   2.217  52.117  1.00  0.00    -0.276 NA
HETATM    6  C7  UNL     1      19.930   1.685  50.974  1.00  0.00     0.095 C 
HETATM    7  C8  UNL     1      20.188   0.227  51.094  1.00  0.00     0.088 C 
HETATM    8  N3  UNL     1      19.843   2.806  50.044  1.00  0.00    -0.374 N 
HETATM    9  C9  UNL     1      21.005   3.550  49.544  1.00  0.00     0.167 C 
HETATM   10  C10 UNL     1      21.917   4.057  50.477  1.00  0.00     0.007 A 
HETATM   11  S1  UNL     1      21.983   5.793  51.190  1.00  0.00    -0.104 SA
HETATM   12  C11 UNL     1      23.421   5.486  52.247  1.00  0.00     0.051 A 
HETATM   13  C12 UNL     1      23.728   4.173  52.001  1.00  0.00     0.015 A 
HETATM   14  C13 UNL     1      22.992   3.440  51.122  1.00  0.00    -0.039 A 
HETATM   15  C14 UNL     1      23.176   2.009  50.751  1.00  0.00     0.078 C 
HETATM   16  H9  UNL     1      18.857   3.075  49.721  1.00  0.00     0.161 HD
ENDROOT
BRANCH   1  17
HETATM   17  C2  UNL     1      24.918   0.989  52.371  1.00  0.00    -0.001 A 
HETATM   18  C1  UNL     1      25.376   0.270  53.411  1.00  0.00     0.073 A 
HETATM   19  C18 UNL     1      26.716   0.175  53.772  1.00  0.00     0.132 A 
HETATM   20  C17 UNL     1      27.618   0.867  53.003  1.00  0.00     0.107 A 
HETATM   21  O1  UNL     1      27.417  -0.477  54.764  1.00  0.00    -0.321 OA
HETATM   22  C16 UNL     1      27.169   1.599  51.948  1.00  0.00     0.041 A 
HETATM   23  O2  UNL     1      28.890   0.629  53.543  1.00  0.00    -0.323 OA
HETATM   24  C15 UNL     1      25.855   1.662  51.637  1.00  0.00     0.017 A 
HETATM   25  C19 UNL     1      28.723   0.056  54.825  1.00  0.00     0.352 C 
BRANCH  18  26
HETATM   26  N1  UNL     1      24.516  -0.460  54.234  1.00  0.00    -0.396 N 
HETATM   27  H1  UNL     1      25.125  -0.710  55.070  1.00  0.00     0.156 HD
HETATM   28  H2  UNL     1      23.622  -0.460  53.690  1.00  0.00     0.156 HD
ENDBRANCH  18  26
ENDBRANCH   1  17
TORSDOF 2
ENDMDL
MODEL 4
REMARK VINA RESULT:      -8.1      2.202      3.218
REMARK  2 active torsions:
REMARK  status: ('A' for Active; 'I' for Inactive)
REMARK    1  A    between atoms: N1_1  and  C1_2 
REMARK    2  A    between atoms: C2_3  and  C3_4 
ROOT
HETATM    1  C3  UNL     1      23.661   1.313  51.378  1.00  0.00    -0.045 C 
HETATM    2  C4  UNL     1      22.458   0.866  51.088  1.00  0.00    -0.012 C 
HETATM    3  C5  UNL     1      21.172   0.654  50.553  1.00  0.00     0.035 C 
HETATM    4  C6  UNL     1      20.063   1.524  51.126  1.00  0.00     0.159 C 
HETATM    5  N2  UNL     1      20.097   2.739  50.285  1.00  0.00    -0.276 NA
HETATM    6  C7  UNL     1      20.779   2.465  49.236  1.00  0.00     0.095 C 
HETATM    7  C8  UNL     1      20.955   1.000  49.069  1.00  0.00     0.088 C 
HETATM    8  N3  UNL     1      21.097   3.774  48.675  1.00  0.00    -0.374 N 
HETATM    9  C9  UNL     1      22.366   4.477  48.902  1.00  0.00     0.167 C 
HETATM   10  C10 UNL     1      22.801   4.647  50.222  1.00  0.00     0.007 A 
HETATM   11  S1  UNL     1      22.568   6.152  51.322  1.00  0.00    -0.104 SA
HETATM   12  C11 UNL     1      23.425   5.446  52.753  1.00  0.00     0.051 A 
HETATM   13  C12 UNL     1      23.800   4.200  52.323  1.00  0.00     0.015 A 
HETATM   14  C13 UNL     1      23.501   3.780  51.064  1.00  0.00    -0.039 A 
HETATM   15  C14 UNL     1      23.817   2.463  50.444  1.00  0.00     0.078 C 
HETATM   16  H9  UNL     1      20.341   4.221  48.061  1.00  0.00     0.161 HD
ENDROOT
BRANCH   1  17
HETATM   17  C2  UNL     1      24.707   0.903  52.308  1.00  0.00    -0.001 A 
HETATM   18  C1  UNL     1      26.024   1.168  52.260  1.00  0.00     0.073 A 
HETATM   19  C18 UNL     1      26.947   0.745  53.212  1.00  0.00     0.132 A 
HETATM   20  C17 UNL     1      26.463   0.009  54.264  1.00  0.00     0.107 A 
HETATM   21  O1  UNL     1      28.308   0.884  53.382  1.00  0.00    -0.321 OA
HETATM   22  C16 UNL     1      25.132  -0.268  54.325  1.00  0.00     0.041 A 
HETATM   23  O2  UNL     1      27.554  -0.304  55.086  1.00  0.00    -0.323 OA
HETATM   24  C15 UNL     1      24.274   0.165  53.375  1.00  0.00     0.017 A 
HETATM   25  C19 UNL     1      28.740  -0.033  54.365  1.00  0.00     0.352 C 
BRANCH  18  26
HETATM   26  N1  UNL     1      26.586   1.914  51.221  1.00  0.00    -0.396 N 
HETATM   27  H1  UNL     1      26.631   2.899  51.619  1.00  0.00     0.156 HD
HETATM   28  H2  UNL     1      26.734   1.193  50.477  1.00  0.00     0.156 HD
ENDBRANCH  18  26
ENDBRANCH   1  17
TORSDOF 2
ENDMDL
MODEL 5
REMARK VINA RESULT:      -8.0      4.566      6.359
REMARK  2 active torsions:
REMARK  status: ('A' for Active; 'I' for Inactive)
REMARK    1  A    between atoms: N1_1  and  C1_2 
REMARK    2  A    between atoms: C2_3  and  C3_4 
ROOT
HETATM    1  C3  UNL     1      24.384   4.352  50.268  1.00  0.00    -0.045 C 
HETATM    2  C4  UNL     1      23.779   3.952  51.366  1.00  0.00    -0.012 C 
HETATM    3  C5  UNL     1      23.013   3.270  52.333  1.00  0.00     0.035 C 
HETATM    4  C6  UNL     1      21.522   3.573  52.333  1.00  0.00     0.159 C 
HETATM    5  N2  UNL     1      20.966   2.606  51.364  1.00  0.00    -0.276 NA
HETATM    6  C7  UNL     1      21.852   1.704  51.164  1.00  0.00     0.095 C 
HETATM    7  C8  UNL     1      22.909   1.740  52.206  1.00  0.00     0.088 C 
HETATM    8  N3  UNL     1      21.407   1.041  49.943  1.00  0.00    -0.374 N 
HETATM    9  C9  UNL     1      21.917   1.358  48.603  1.00  0.00     0.167 C 
HETATM   10  C10 UNL     1      21.906   2.696  48.191  1.00  0.00     0.007 A 
HETATM   11  S1  UNL     1      20.610   3.564  47.146  1.00  0.00    -0.104 SA
HETATM   12  C11 UNL     1      21.436   5.176  47.160  1.00  0.00     0.051 A 
HETATM   13  C12 UNL     1      22.562   4.955  47.908  1.00  0.00     0.015 A 
HETATM   14  C13 UNL     1      22.819   3.726  48.433  1.00  0.00    -0.039 A 
HETATM   15  C14 UNL     1      23.977   3.319  49.276  1.00  0.00     0.078 C 
HETATM   16  H9  UNL     1      20.665   0.278  50.064  1.00  0.00     0.161 HD
ENDROOT
BRANCH   1  17
HETATM   17  C2  UNL     1      25.269   5.463  49.935  1.00  0.00    -0.001 A 
HETATM   18  C1  UNL     1      25.292   6.702  50.456  1.00  0.00     0.073 A 
HETATM   19  C18 UNL     1      26.193   7.695  50.083  1.00  0.00     0.132 A 
HETATM   20  C17 UNL     1      27.112   7.371  49.117  1.00  0.00     0.107 A 
HETATM   21  O1  UNL     1      26.415   9.004  50.457  1.00  0.00    -0.321 OA
HETATM   22  C16 UNL     1      27.099   6.121  48.580  1.00  0.00     0.041 A 
HETATM   23  O2  UNL     1      27.905   8.506  48.902  1.00  0.00    -0.323 OA
HETATM   24  C15 UNL     1      26.203   5.189  48.975  1.00  0.00     0.017 A 
HETATM   25  C19 UNL     1      27.262   9.612  49.505  1.00  0.00     0.352 C 
BRANCH  18  26
HETATM   26  N1  UNL     1      24.389   7.101  51.444  1.00  0.00    -0.396 N 
HETATM   27  H1  UNL     1      24.012   8.026  51.076  1.00  0.00     0.156 HD
HETATM   28  H2  UNL     1      24.453   6.323  52.141  1.00  0.00     0.156 HD
ENDBRANCH  18  26
ENDBRANCH   1  17
TORSDOF 2
ENDMDL
MODEL 6
REMARK VINA RESULT:      -7.8      2.030      2.691
REMARK  2 active torsions:
REMARK  status: ('A' for Active; 'I' for Inactive)
REMARK    1  A    between atoms: N1_1  and  C1_2 
REMARK    2  A    between atoms: C2_3  and  C3_4 
ROOT
HETATM    1  C3  UNL     1      23.799   3.359  51.670  1.00  0.00    -0.045 C 
HETATM    2  C4  UNL     1      24.180   4.538  51.225  1.00  0.00    -0.012 C 
HETATM    3  C5  UNL     1      24.244   5.847  50.708  1.00  0.00     0.035 C 
HETATM    4  C6  UNL     1      24.153   5.967  49.194  1.00  0.00     0.159 C 
HETATM    5  N2  UNL     1      22.701   6.049  48.933  1.00  0.00    -0.276 NA
HETATM    6  C7  UNL     1      22.122   6.319  50.042  1.00  0.00     0.095 C 
HETATM    7  C8  UNL     1      23.091   6.805  51.057  1.00  0.00     0.088 C 
HETATM    8  N3  UNL     1      20.722   5.993  49.793  1.00  0.00    -0.374 N 
HETATM    9  C9  UNL     1      20.095   4.720  50.169  1.00  0.00     0.167 C 
HETATM   10  C10 UNL     1      20.715   3.533  49.759  1.00  0.00     0.007 A 
HETATM   11  S1  UNL     1      20.313   2.491  48.249  1.00  0.00    -0.104 SA
HETATM   12  C11 UNL     1      21.585   1.241  48.564  1.00  0.00     0.051 A 
HETATM   13  C12 UNL     1      22.186   1.676  49.717  1.00  0.00     0.015 A 
HETATM   14  C13 UNL     1      21.769   2.816  50.331  1.00  0.00    -0.039 A 
HETATM   15  C14 UNL     1      22.315   3.435  51.571  1.00  0.00     0.078 C 
HETATM   16  H9  UNL     1      20.140   6.753  49.310  1.00  0.00     0.161 HD
ENDROOT
BRANCH   1  17
HETATM   17  C2  UNL     1      24.498   2.186  52.184  1.00  0.00    -0.001 A 
HETATM   18  C1  UNL     1      25.806   1.886  52.104  1.00  0.00     0.073 A 
HETATM   19  C18 UNL     1      26.385   0.742  52.645  1.00  0.00     0.132 A 
HETATM   20  C17 UNL     1      25.551  -0.127  53.302  1.00  0.00     0.107 A 
HETATM   21  O1  UNL     1      27.662   0.225  52.696  1.00  0.00    -0.321 OA
HETATM   22  C16 UNL     1      24.224   0.164  53.390  1.00  0.00     0.041 A 
HETATM   23  O2  UNL     1      26.339  -1.192  53.758  1.00  0.00    -0.323 OA
HETATM   24  C15 UNL     1      23.707   1.288  52.847  1.00  0.00     0.017 A 
HETATM   25  C19 UNL     1      27.590  -1.126  53.101  1.00  0.00     0.352 C 
BRANCH  18  26
HETATM   26  N1  UNL     1      26.713   2.725  51.453  1.00  0.00    -0.396 N 
HETATM   27  H1  UNL     1      27.661   2.344  51.751  1.00  0.00     0.156 HD
HETATM   28  H2  UNL     1      26.086   3.384  50.936  1.00  0.00     0.156 HD
ENDBRANCH  18  26
ENDBRANCH   1  17
TORSDOF 2
ENDMDL
MODEL 7
REMARK VINA RESULT:      -7.6      4.233      5.841
REMARK  2 active torsions:
REMARK  status: ('A' for Active; 'I' for Inactive)
REMARK    1  A    between atoms: N1_1  and  C1_2 
REMARK    2  A    between atoms: C2_3  and  C3_4 
ROOT
HETATM    1  C3  UNL     1      24.033   3.894  49.945  1.00  0.00    -0.045 C 
HETATM    2  C4  UNL     1      23.375   3.891  51.085  1.00  0.00    -0.012 C 
HETATM    3  C5  UNL     1      22.488   3.634  52.149  1.00  0.00     0.035 C 
HETATM    4  C6  UNL     1      21.120   4.291  52.046  1.00  0.00     0.159 C 
HETATM    5  N2  UNL     1      20.317   3.315  51.281  1.00  0.00    -0.276 NA
HETATM    6  C7  UNL     1      20.946   2.199  51.294  1.00  0.00     0.095 C 
HETATM    7  C8  UNL     1      22.004   2.185  52.336  1.00  0.00     0.088 C 
HETATM    8  N3  UNL     1      20.319   1.432  50.223  1.00  0.00    -0.374 N 
HETATM    9  C9  UNL     1      20.859   1.330  48.862  1.00  0.00     0.167 C 
HETATM   10  C10 UNL     1      21.170   2.515  48.185  1.00  0.00     0.007 A 
HETATM   11  S1  UNL     1      20.105   3.445  46.949  1.00  0.00    -0.104 SA
HETATM   12  C11 UNL     1      21.305   4.769  46.655  1.00  0.00     0.051 A 
HETATM   13  C12 UNL     1      22.360   4.433  47.463  1.00  0.00     0.015 A 
HETATM   14  C13 UNL     1      22.316   3.314  48.235  1.00  0.00    -0.039 A 
HETATM   15  C14 UNL     1      23.358   2.813  49.174  1.00  0.00     0.078 C 
HETATM   16  H9  UNL     1      19.414   0.918  50.478  1.00  0.00     0.161 HD
ENDROOT
BRANCH   1  17
HETATM   17  C2  UNL     1      25.158   4.658  49.416  1.00  0.00    -0.001 A 
HETATM   18  C1  UNL     1      26.424   4.255  49.214  1.00  0.00     0.073 A 
HETATM   19  C18 UNL     1      27.430   5.059  48.684  1.00  0.00     0.132 A 
HETATM   20  C17 UNL     1      27.088   6.345  48.351  1.00  0.00     0.107 A 
HETATM   21  O1  UNL     1      28.765   4.884  48.388  1.00  0.00    -0.321 OA
HETATM   22  C16 UNL     1      25.810   6.766  48.551  1.00  0.00     0.041 A 
HETATM   23  O2  UNL     1      28.240   6.961  47.844  1.00  0.00    -0.323 OA
HETATM   24  C15 UNL     1      24.867   5.948  49.070  1.00  0.00     0.017 A 
HETATM   25  C19 UNL     1      29.352   6.150  48.170  1.00  0.00     0.352 C 
BRANCH  18  26
HETATM   26  N1  UNL     1      26.843   2.960  49.528  1.00  0.00    -0.396 N 
HETATM   27  H1  UNL     1      27.086   2.542  48.581  1.00  0.00     0.156 HD
HETATM   28  H2  UNL     1      26.746   2.934  50.570  1.00  0.00     0.156 HD
ENDBRANCH  18  26
ENDBRANCH   1  17
TORSDOF 2
ENDMDL
MODEL 8
REMARK VINA RESULT:      -7.6      4.180      6.024
REMARK  2 active torsions:
REMARK  status: ('A' for Active; 'I' for Inactive)
REMARK    1  A    between atoms: N1_1  and  C1_2 
REMARK    2  A    between atoms: C2_3  and  C3_4 
ROOT
HETATM    1  C3  UNL     1      20.118   0.259  51.568  1.00  0.00    -0.045 C 
HETATM    2  C4  UNL     1      18.825   0.017  51.601  1.00  0.00    -0.012 C 
HETATM    3  C5  UNL     1      17.445  -0.067  51.335  1.00  0.00     0.035 C 
HETATM    4  C6  UNL     1      16.620   1.155  51.711  1.00  0.00     0.159 C 
HETATM    5  N2  UNL     1      16.692   2.012  50.509  1.00  0.00    -0.276 NA
HETATM    6  C7  UNL     1      17.110   1.287  49.540  1.00  0.00     0.095 C 
HETATM    7  C8  UNL     1      17.010  -0.159  49.861  1.00  0.00     0.088 C 
HETATM    8  N3  UNL     1      17.525   2.257  48.532  1.00  0.00    -0.374 N 
HETATM    9  C9  UNL     1      18.911   2.704  48.345  1.00  0.00     0.167 C 
HETATM   10  C10 UNL     1      19.609   3.176  49.463  1.00  0.00     0.007 A 
HETATM   11  S1  UNL     1      19.837   4.959  50.006  1.00  0.00    -0.104 SA
HETATM   12  C11 UNL     1      20.822   4.564  51.473  1.00  0.00     0.051 A 
HETATM   13  C12 UNL     1      20.902   3.196  51.449  1.00  0.00     0.015 A 
HETATM   14  C13 UNL     1      20.305   2.482  50.457  1.00  0.00    -0.039 A 
HETATM   15  C14 UNL     1      20.279   1.002  50.287  1.00  0.00     0.078 C 
HETATM   16  H9  UNL     1      16.750   2.644  47.902  1.00  0.00     0.161 HD
ENDROOT
BRANCH   1  17
HETATM   17  C2  UNL     1      21.240  -0.058  52.445  1.00  0.00    -0.001 A 
HETATM   18  C1  UNL     1      21.240  -0.774  53.582  1.00  0.00     0.073 A 
HETATM   19  C18 UNL     1      22.374  -1.039  54.345  1.00  0.00     0.132 A 
HETATM   20  C17 UNL     1      23.563  -0.528  53.891  1.00  0.00     0.107 A 
HETATM   21  O1  UNL     1      22.627  -1.727  55.513  1.00  0.00    -0.321 OA
HETATM   22  C16 UNL     1      23.578   0.200  52.741  1.00  0.00     0.041 A 
HETATM   23  O2  UNL     1      24.555  -0.913  54.803  1.00  0.00    -0.323 OA
HETATM   24  C15 UNL     1      22.450   0.432  52.034  1.00  0.00     0.017 A 
HETATM   25  C19 UNL     1      23.916  -1.383  55.974  1.00  0.00     0.352 C 
BRANCH  18  26
HETATM   26  N1  UNL     1      20.068  -1.326  54.103  1.00  0.00    -0.396 N 
HETATM   27  H1  UNL     1      20.396  -2.239  54.541  1.00  0.00     0.156 HD
HETATM   28  H2  UNL     1      19.346  -0.612  53.849  1.00  0.00     0.156 HD
ENDBRANCH  18  26
ENDBRANCH   1  17
TORSDOF 2
ENDMDL
MODEL 9
REMARK VINA RESULT:      -7.6      5.024      7.027
REMARK  2 active torsions:
REMARK  status: ('A' for Active; 'I' for Inactive)
REMARK    1  A    between atoms: N1_1  and  C1_2 
REMARK    2  A    between atoms: C2_3  and  C3_4 
ROOT
HETATM    1  C3  UNL     1      25.823   7.759  49.134  1.00  0.00    -0.045 C 
HETATM    2  C4  UNL     1      24.669   8.115  48.610  1.00  0.00    -0.012 C 
HETATM    3  C5  UNL     1      23.306   8.330  48.327  1.00  0.00     0.035 C 
HETATM    4  C6  UNL     1      22.577   7.175  47.656  1.00  0.00     0.159 C 
HETATM    5  N2  UNL     1      22.103   6.351  48.787  1.00  0.00    -0.276 NA
HETATM    6  C7  UNL     1      22.185   7.065  49.847  1.00  0.00     0.095 C 
HETATM    7  C8  UNL     1      22.352   8.504  49.522  1.00  0.00     0.088 C 
HETATM    8  N3  UNL     1      22.090   6.093  50.931  1.00  0.00    -0.374 N 
HETATM    9  C9  UNL     1      23.251   5.529  51.632  1.00  0.00     0.167 C 
HETATM   10  C10 UNL     1      24.276   4.964  50.864  1.00  0.00     0.007 A 
HETATM   11  S1  UNL     1      24.525   3.152  50.439  1.00  0.00    -0.104 SA
HETATM   12  C11 UNL     1      26.029   3.413  49.464  1.00  0.00     0.051 A 
HETATM   13  C12 UNL     1      26.221   4.769  49.525  1.00  0.00     0.015 A 
HETATM   14  C13 UNL     1      25.360   5.563  50.218  1.00  0.00    -0.039 A 
HETATM   15  C14 UNL     1      25.411   7.043  50.374  1.00  0.00     0.078 C 
HETATM   16  H9  UNL     1      21.100   5.795  51.213  1.00  0.00     0.161 HD
ENDROOT
BRANCH   1  17
HETATM   17  C2  UNL     1      27.219   7.948  48.757  1.00  0.00    -0.001 A 
HETATM   18  C1  UNL     1      28.167   8.665  49.383  1.00  0.00     0.073 A 
HETATM   19  C18 UNL     1      29.486   8.772  48.952  1.00  0.00     0.132 A 
HETATM   20  C17 UNL     1      29.824   8.093  47.809  1.00  0.00     0.107 A 
HETATM   21  O1  UNL     1      30.613   9.424  49.407  1.00  0.00    -0.321 OA
HETATM   22  C16 UNL     1      28.874   7.364  47.163  1.00  0.00     0.041 A 
HETATM   23  O2  UNL     1      31.182   8.340  47.566  1.00  0.00    -0.323 OA
HETATM   24  C15 UNL     1      27.604   7.291  47.621  1.00  0.00     0.017 A 
HETATM   25  C19 UNL     1      31.584   9.424  48.381  1.00  0.00     0.352 C 
BRANCH  18  26
HETATM   26  N1  UNL     1      27.896   9.379  50.553  1.00  0.00    -0.396 N 
HETATM   27  H1  UNL     1      26.854   9.582  50.484  1.00  0.00     0.156 HD
HETATM   28  H2  UNL     1      28.832   9.420  51.018  1.00  0.00     0.156 HD
ENDBRANCH  18  26
ENDBRANCH   1  17
TORSDOF 2
ENDMDL
