MODEL 1
REMARK VINA RESULT:      -6.8      0.000      0.000
REMARK  9 active torsions:
REMARK  status: ('A' for Active; 'I' for Inactive)
REMARK    1  A    between atoms: C2_2  and  C3_3 
REMARK    2  A    between atoms: C2_2  and  N2_9 
REMARK    3  A    between atoms: C3_3  and  N1_4 
REMARK    4  A    between atoms: N1_4  and  C5_6 
REMARK    5  A    between atoms: C5_6  and  C6_7 
REMARK    6  A    between atoms: N2_9  and  C7_10 
REMARK    7  A    between atoms: C10_13  and  N3_14 
REMARK    8  A    between atoms: N3_14  and  C11_15 
REMARK    9  A    between atoms: C17_23  and  N4_24 
ROOT
HETATM    1  C7  UNL     1      23.239   2.004  52.161  1.00  0.00     0.030 A 
HETATM    2  C8  UNL     1      23.370   1.835  50.808  1.00  0.00     0.031 A 
HETATM    3  C9  UNL     1      23.747   2.813  49.912  1.00  0.00     0.034 A 
HETATM    4  C10 UNL     1      24.014   4.064  50.427  1.00  0.00     0.059 A 
HETATM    5  C17 UNL     1      23.894   4.273  51.784  1.00  0.00     0.054 A 
HETATM    6  C18 UNL     1      23.514   3.264  52.634  1.00  0.00     0.060 A 
ENDROOT
BRANCH   1   7
HETATM    7  N2  UNL     1      22.865   0.996  53.080  1.00  0.00    -0.384 N 
HETATM    8  H14 UNL     1      21.833   0.919  53.323  1.00  0.00     0.160 HD
BRANCH   7   9
HETATM    9  C2  UNL     1      23.659  -0.000  53.792  1.00  0.00     0.095 C 
HETATM   10  C1  UNL     1      22.767  -1.001  54.472  1.00  0.00     0.034 C 
BRANCH   9  11
HETATM   11  C3  UNL     1      24.735  -0.570  52.948  1.00  0.00     0.140 C 
BRANCH  11  12
HETATM   12  N1  UNL     1      26.026  -0.383  53.469  1.00  0.00    -0.412 N 
HETATM   13  C4  UNL     1      26.214   0.140  54.764  1.00  0.00     0.143 C 
BRANCH  12  14
HETATM   14  C5  UNL     1      26.995   0.084  52.496  1.00  0.00     0.147 C 
BRANCH  14  15
HETATM   15  C6  UNL     1      26.917   1.572  52.244  1.00  0.00     0.241 C 
HETATM   16  F1  UNL     1      26.797   1.779  50.880  1.00  0.00    -0.254 F 
ENDBRANCH  14  15
ENDBRANCH  12  14
ENDBRANCH  11  12
ENDBRANCH   9  11
ENDBRANCH   7   9
ENDBRANCH   1   7
BRANCH   5  17
HETATM   17  N4  UNL     1      24.169   5.555  52.342  1.00  0.00    -0.397 N 
HETATM   18  H21 UNL     1      24.423   6.462  51.850  1.00  0.00     0.156 HD
HETATM   19  H22 UNL     1      24.245   6.108  53.227  1.00  0.00     0.156 HD
ENDBRANCH   5  17
BRANCH   4  20
HETATM   20  N3  UNL     1      24.411   5.164  49.622  1.00  0.00    -0.354 N 
HETATM   21  H17 UNL     1      23.531   5.704  49.464  1.00  0.00     0.166 HD
BRANCH  20  22
HETATM   22  C11 UNL     1      25.655   5.578  49.078  1.00  0.00     0.034 A 
HETATM   23  C12 UNL     1      26.698   4.691  49.100  1.00  0.00     0.032 A 
HETATM   24  C13 UNL     1      27.901   5.095  48.574  1.00  0.00     0.046 A 
HETATM   25  C14 UNL     1      28.134   6.337  48.025  1.00  0.00     0.138 A 
HETATM   26  F2  UNL     1      29.358   6.657  47.525  1.00  0.00    -0.204 F 
HETATM   27  C15 UNL     1      27.058   7.197  48.024  1.00  0.00     0.074 A 
HETATM   28 CL1  UNL     1      27.310   8.791  47.333  1.00  0.00    -0.081 Cl
HETATM   29  C16 UNL     1      25.817   6.829  48.546  1.00  0.00     0.056 A 
ENDBRANCH  20  22
ENDBRANCH   4  20
TORSDOF 9
ENDMDL
MODEL 2
REMARK VINA RESULT:      -6.7      3.481      7.760
REMARK  9 active torsions:
REMARK  status: ('A' for Active; 'I' for Inactive)
REMARK    1  A    between atoms: C2_2  and  C3_3 
REMARK    2  A    between atoms: C2_2  and  N2_9 
REMARK    3  A    between atoms: C3_3  and  N1_4 
REMARK    4  A    between atoms: N1_4  and  C5_6 
REMARK    5  A    between atoms: C5_6  and  C6_7 
REMARK    6  A    between atoms: N2_9  and  C7_10 
REMARK    7  A    between atoms: C10_13  and  N3_14 
REMARK    8  A    between atoms: N3_14  and  C11_15 
REMARK    9  A    between atoms: C17_23  and  N4_24 
ROOT
HETATM    1  C7  UNL     1      26.088   5.962  49.110  1.00  0.00     0.030 A 
HETATM    2  C8  UNL     1      26.870   4.874  48.827  1.00  0.00     0.031 A 
HETATM    3  C9  UNL     1      26.810   3.655  49.469  1.00  0.00     0.034 A 
HETATM    4  C10 UNL     1      25.881   3.528  50.481  1.00  0.00     0.059 A 
HETATM    5  C17 UNL     1      25.076   4.600  50.795  1.00  0.00     0.054 A 
HETATM    6  C18 UNL     1      25.177   5.793  50.123  1.00  0.00     0.060 A 
ENDROOT
BRANCH   1   7
HETATM    7  N2  UNL     1      26.143   7.207  48.440  1.00  0.00    -0.384 N 
HETATM    8  H14 UNL     1      25.288   7.836  48.514  1.00  0.00     0.160 HD
BRANCH   7   9
HETATM    9  C2  UNL     1      27.191   7.819  47.630  1.00  0.00     0.095 C 
HETATM   10  C1  UNL     1      26.603   8.480  46.416  1.00  0.00     0.034 C 
BRANCH   9  11
HETATM   11  C3  UNL     1      28.106   8.659  48.437  1.00  0.00     0.140 C 
BRANCH  11  12
HETATM   12  N1  UNL     1      29.356   8.065  48.680  1.00  0.00    -0.412 N 
HETATM   13  C4  UNL     1      30.445   8.833  49.138  1.00  0.00     0.143 C 
BRANCH  12  14
HETATM   14  C5  UNL     1      29.718   7.037  47.723  1.00  0.00     0.147 C 
BRANCH  14  15
HETATM   15  C6  UNL     1      30.421   5.857  48.354  1.00  0.00     0.241 C 
HETATM   16  F1  UNL     1      30.014   4.705  47.701  1.00  0.00    -0.254 F 
ENDBRANCH  14  15
ENDBRANCH  12  14
ENDBRANCH  11  12
ENDBRANCH   9  11
ENDBRANCH   7   9
ENDBRANCH   1   7
BRANCH   5  17
HETATM   17  N4  UNL     1      24.105   4.492  51.833  1.00  0.00    -0.397 N 
HETATM   18  H21 UNL     1      23.758   5.235  52.508  1.00  0.00     0.156 HD
HETATM   19  H22 UNL     1      23.440   3.851  52.323  1.00  0.00     0.156 HD
ENDBRANCH   5  17
BRANCH   4  20
HETATM   20  N3  UNL     1      25.710   2.331  51.227  1.00  0.00    -0.354 N 
HETATM   21  H17 UNL     1      24.697   2.100  51.122  1.00  0.00     0.166 HD
BRANCH  20  22
HETATM   22  C11 UNL     1      26.592   1.519  51.987  1.00  0.00     0.034 A 
HETATM   23  C12 UNL     1      27.536   2.138  52.762  1.00  0.00     0.032 A 
HETATM   24  C13 UNL     1      28.389   1.350  53.496  1.00  0.00     0.046 A 
HETATM   25  C14 UNL     1      28.362  -0.028  53.505  1.00  0.00     0.138 A 
HETATM   26  F2  UNL     1      29.245  -0.735  54.262  1.00  0.00    -0.204 F 
HETATM   27  C15 UNL     1      27.397  -0.609  52.711  1.00  0.00     0.074 A 
HETATM   28 CL1  UNL     1      27.328  -2.363  52.693  1.00  0.00    -0.081 Cl
HETATM   29  C16 UNL     1      26.509   0.153  51.950  1.00  0.00     0.056 A 
ENDBRANCH  20  22
ENDBRANCH   4  20
TORSDOF 9
ENDMDL
MODEL 3
REMARK VINA RESULT:      -6.7      4.051      6.023
REMARK  9 active torsions:
REMARK  status: ('A' for Active; 'I' for Inactive)
REMARK    1  A    between atoms: C2_2  and  C3_3 
REMARK    2  A    between atoms: C2_2  and  N2_9 
REMARK    3  A    between atoms: C3_3  and  N1_4 
REMARK    4  A    between atoms: N1_4  and  C5_6 
REMARK    5  A    between atoms: C5_6  and  C6_7 
REMARK    6  A    between atoms: N2_9  and  C7_10 
REMARK    7  A    between atoms: C10_13  and  N3_14 
REMARK    8  A    between atoms: N3_14  and  C11_15 
REMARK    9  A    between atoms: C17_23  and  N4_24 
ROOT
HETATM    1  C7  UNL     1      22.644   3.830  49.995  1.00  0.00     0.030 A 
HETATM    2  C8  UNL     1      23.701   3.455  49.209  1.00  0.00     0.031 A 
HETATM    3  C9  UNL     1      24.985   3.218  49.653  1.00  0.00     0.034 A 
HETATM    4  C10 UNL     1      25.217   3.372  51.004  1.00  0.00     0.059 A 
HETATM    5  C17 UNL     1      24.179   3.748  51.827  1.00  0.00     0.054 A 
HETATM    6  C18 UNL     1      22.918   3.972  51.333  1.00  0.00     0.060 A 
ENDROOT
BRANCH   1   7
HETATM    7  N2  UNL     1      21.325   4.060  49.539  1.00  0.00    -0.384 N 
HETATM    8  H14 UNL     1      21.177   4.874  48.872  1.00  0.00     0.160 HD
BRANCH   7   9
HETATM    9  C2  UNL     1      20.073   3.365  49.823  1.00  0.00     0.095 C 
HETATM   10  C1  UNL     1      18.944   3.966  49.034  1.00  0.00     0.034 C 
BRANCH   9  11
HETATM   11  C3  UNL     1      20.213   1.893  49.724  1.00  0.00     0.140 C 
BRANCH  11  12
HETATM   12  N1  UNL     1      20.187   1.236  50.966  1.00  0.00    -0.412 N 
HETATM   13  C4  UNL     1      19.912   1.943  52.153  1.00  0.00     0.143 C 
BRANCH  12  14
HETATM   14  C5  UNL     1      21.198   0.206  51.111  1.00  0.00     0.147 C 
BRANCH  14  15
HETATM   15  C6  UNL     1      22.079   0.404  52.322  1.00  0.00     0.241 C 
HETATM   16  F1  UNL     1      23.363   0.687  51.887  1.00  0.00    -0.254 F 
ENDBRANCH  14  15
ENDBRANCH  12  14
ENDBRANCH  11  12
ENDBRANCH   9  11
ENDBRANCH   7   9
ENDBRANCH   1   7
BRANCH   5  17
HETATM   17  N4  UNL     1      24.392   3.909  53.227  1.00  0.00    -0.397 N 
HETATM   18  H21 UNL     1      23.787   4.406  53.946  1.00  0.00     0.156 HD
HETATM   19  H22 UNL     1      25.031   3.700  54.028  1.00  0.00     0.156 HD
ENDBRANCH   5  17
BRANCH   4  20
HETATM   20  N3  UNL     1      26.490   3.162  51.599  1.00  0.00    -0.354 N 
HETATM   21  H17 UNL     1      26.980   4.078  51.499  1.00  0.00     0.166 HD
BRANCH  20  22
HETATM   22  C11 UNL     1      27.104   2.044  52.223  1.00  0.00     0.034 A 
HETATM   23  C12 UNL     1      28.156   2.273  53.069  1.00  0.00     0.032 A 
HETATM   24  C13 UNL     1      28.749   1.189  53.670  1.00  0.00     0.046 A 
HETATM   25  C14 UNL     1      28.359  -0.119  53.479  1.00  0.00     0.138 A 
HETATM   26  F2  UNL     1      29.001  -1.135  54.116  1.00  0.00    -0.204 F 
HETATM   27  C15 UNL     1      27.297  -0.302  52.621  1.00  0.00     0.074 A 
HETATM   28 CL1  UNL     1      26.766  -1.953  52.349  1.00  0.00    -0.081 Cl
HETATM   29  C16 UNL     1      26.664   0.769  51.989  1.00  0.00     0.056 A 
ENDBRANCH  20  22
ENDBRANCH   4  20
TORSDOF 9
ENDMDL
MODEL 4
REMARK VINA RESULT:      -6.6      5.958      9.473
REMARK  9 active torsions:
REMARK  status: ('A' for Active; 'I' for Inactive)
REMARK    1  A    between atoms: C2_2  and  C3_3 
REMARK    2  A    between atoms: C2_2  and  N2_9 
REMARK    3  A    between atoms: C3_3  and  N1_4 
REMARK    4  A    between atoms: N1_4  and  C5_6 
REMARK    5  A    between atoms: C5_6  and  C6_7 
REMARK    6  A    between atoms: N2_9  and  C7_10 
REMARK    7  A    between atoms: C10_13  and  N3_14 
REMARK    8  A    between atoms: N3_14  and  C11_15 
REMARK    9  A    between atoms: C17_23  and  N4_24 
ROOT
HETATM    1  C7  UNL     1      23.030  -0.535  53.266  1.00  0.00     0.030 A 
HETATM    2  C8  UNL     1      22.447  -1.174  54.328  1.00  0.00     0.031 A 
HETATM    3  C9  UNL     1      21.092  -1.249  54.572  1.00  0.00     0.034 A 
HETATM    4  C10 UNL     1      20.259  -0.625  53.667  1.00  0.00     0.059 A 
HETATM    5  C17 UNL     1      20.808   0.029  52.586  1.00  0.00     0.054 A 
HETATM    6  C18 UNL     1      22.166   0.073  52.389  1.00  0.00     0.060 A 
ENDROOT
BRANCH   1   7
HETATM    7  N2  UNL     1      24.420  -0.471  53.011  1.00  0.00    -0.384 N 
HETATM    8  H14 UNL     1      24.890  -1.358  52.658  1.00  0.00     0.160 HD
BRANCH   7   9
HETATM    9  C2  UNL     1      25.375   0.624  53.148  1.00  0.00     0.095 C 
HETATM   10  C1  UNL     1      24.667   1.949  53.120  1.00  0.00     0.034 C 
BRANCH   9  11
HETATM   11  C3  UNL     1      26.306   0.418  54.282  1.00  0.00     0.140 C 
BRANCH  11  12
HETATM   12  N1  UNL     1      27.658   0.594  53.945  1.00  0.00    -0.412 N 
HETATM   13  C4  UNL     1      28.166   1.870  53.631  1.00  0.00     0.143 C 
BRANCH  12  14
HETATM   14  C5  UNL     1      28.211  -0.477  53.138  1.00  0.00     0.147 C 
BRANCH  14  15
HETATM   15  C6  UNL     1      29.459  -1.088  53.732  1.00  0.00     0.241 C 
HETATM   16  F1  UNL     1      30.551  -0.345  53.315  1.00  0.00    -0.254 F 
ENDBRANCH  14  15
ENDBRANCH  12  14
ENDBRANCH  11  12
ENDBRANCH   9  11
ENDBRANCH   7   9
ENDBRANCH   1   7
BRANCH   5  17
HETATM   17  N4  UNL     1      19.969   0.677  51.633  1.00  0.00    -0.397 N 
HETATM   18  H21 UNL     1      19.660   1.692  51.591  1.00  0.00     0.156 HD
HETATM   19  H22 UNL     1      19.399   0.551  50.764  1.00  0.00     0.156 HD
ENDBRANCH   5  17
BRANCH   4  20
HETATM   20  N3  UNL     1      18.844  -0.620  53.793  1.00  0.00    -0.354 N 
HETATM   21  H17 UNL     1      18.632   0.250  54.331  1.00  0.00     0.166 HD
BRANCH  20  22
HETATM   22  C11 UNL     1      17.821  -1.502  53.355  1.00  0.00     0.034 A 
HETATM   23  C12 UNL     1      16.866  -1.013  52.505  1.00  0.00     0.032 A 
HETATM   24  C13 UNL     1      15.877  -1.868  52.083  1.00  0.00     0.046 A 
HETATM   25  C14 UNL     1      15.777  -3.190  52.460  1.00  0.00     0.138 A 
HETATM   26  F2  UNL     1      14.763  -3.970  51.995  1.00  0.00    -0.204 F 
HETATM   27  C15 UNL     1      16.758  -3.639  53.315  1.00  0.00     0.074 A 
HETATM   28 CL1  UNL     1      16.669  -5.319  53.820  1.00  0.00    -0.081 Cl
HETATM   29  C16 UNL     1      17.782  -2.806  53.768  1.00  0.00     0.056 A 
ENDBRANCH  20  22
ENDBRANCH   4  20
TORSDOF 9
ENDMDL
MODEL 5
REMARK VINA RESULT:      -6.6      4.397      6.830
REMARK  9 active torsions:
REMARK  status: ('A' for Active; 'I' for Inactive)
REMARK    1  A    between atoms: C2_2  and  C3_3 
REMARK    2  A    between atoms: C2_2  and  N2_9 
REMARK    3  A    between atoms: C3_3  and  N1_4 
REMARK    4  A    between atoms: N1_4  and  C5_6 
REMARK    5  A    between atoms: C5_6  and  C6_7 
REMARK    6  A    between atoms: N2_9  and  C7_10 
REMARK    7  A    between atoms: C10_13  and  N3_14 
REMARK    8  A    between atoms: N3_14  and  C11_15 
REMARK    9  A    between atoms: C17_23  and  N4_24 
ROOT
HETATM    1  C7  UNL     1      23.082   3.063  50.575  1.00  0.00     0.030 A 
HETATM    2  C8  UNL     1      22.955   2.483  51.809  1.00  0.00     0.031 A 
HETATM    3  C9  UNL     1      23.988   2.245  52.692  1.00  0.00     0.034 A 
HETATM    4  C10 UNL     1      25.252   2.625  52.293  1.00  0.00     0.059 A 
HETATM    5  C17 UNL     1      25.420   3.213  51.058  1.00  0.00     0.054 A 
HETATM    6  C18 UNL     1      24.357   3.427  50.216  1.00  0.00     0.060 A 
ENDROOT
BRANCH   1   7
HETATM    7  N2  UNL     1      22.020   3.318  49.677  1.00  0.00    -0.384 N 
HETATM    8  H14 UNL     1      21.593   4.292  49.694  1.00  0.00     0.160 HD
BRANCH   7   9
HETATM    9  C2  UNL     1      21.366   2.463  48.691  1.00  0.00     0.095 C 
HETATM   10  C1  UNL     1      22.271   2.225  47.515  1.00  0.00     0.034 C 
BRANCH   9  11
HETATM   11  C3  UNL     1      20.777   1.250  49.303  1.00  0.00     0.140 C 
BRANCH  11  12
HETATM   12  N1  UNL     1      19.461   1.426  49.761  1.00  0.00    -0.412 N 
HETATM   13  C4  UNL     1      18.569   2.283  49.086  1.00  0.00     0.143 C 
BRANCH  12  14
HETATM   14  C5  UNL     1      19.337   1.464  51.206  1.00  0.00     0.147 C 
BRANCH  14  15
HETATM   15  C6  UNL     1      19.296   0.091  51.836  1.00  0.00     0.241 C 
HETATM   16  F1  UNL     1      20.574  -0.236  52.256  1.00  0.00    -0.254 F 
ENDBRANCH  14  15
ENDBRANCH  12  14
ENDBRANCH  11  12
ENDBRANCH   9  11
ENDBRANCH   7   9
ENDBRANCH   1   7
BRANCH   5  17
HETATM   17  N4  UNL     1      26.715   3.620  50.624  1.00  0.00    -0.397 N 
HETATM   18  H21 UNL     1      27.000   4.488  50.082  1.00  0.00     0.156 HD
HETATM   19  H22 UNL     1      27.732   3.374  50.607  1.00  0.00     0.156 HD
ENDBRANCH   5  17
BRANCH   4  20
HETATM   20  N3  UNL     1      26.407   2.441  53.099  1.00  0.00    -0.354 N 
HETATM   21  H17 UNL     1      26.494   3.330  53.639  1.00  0.00     0.166 HD
BRANCH  20  22
HETATM   22  C11 UNL     1      27.328   1.372  53.256  1.00  0.00     0.034 A 
HETATM   23  C12 UNL     1      28.568   1.656  53.764  1.00  0.00     0.032 A 
HETATM   24  C13 UNL     1      29.458   0.621  53.914  1.00  0.00     0.046 A 
HETATM   25  C14 UNL     1      29.189  -0.691  53.586  1.00  0.00     0.138 A 
HETATM   26  F2  UNL     1      30.129  -1.658  53.767  1.00  0.00    -0.204 F 
HETATM   27  C15 UNL     1      27.931  -0.931  53.079  1.00  0.00     0.074 A 
HETATM   28 CL1  UNL     1      27.547  -2.589  52.649  1.00  0.00    -0.081 Cl
HETATM   29  C16 UNL     1      26.995   0.090  52.911  1.00  0.00     0.056 A 
ENDBRANCH  20  22
ENDBRANCH   4  20
TORSDOF 9
ENDMDL
MODEL 6
REMARK VINA RESULT:      -6.5      4.047      6.842
REMARK  9 active torsions:
REMARK  status: ('A' for Active; 'I' for Inactive)
REMARK    1  A    between atoms: C2_2  and  C3_3 
REMARK    2  A    between atoms: C2_2  and  N2_9 
REMARK    3  A    between atoms: C3_3  and  N1_4 
REMARK    4  A    between atoms: N1_4  and  C5_6 
REMARK    5  A    between atoms: C5_6  and  C6_7 
REMARK    6  A    between atoms: N2_9  and  C7_10 
REMARK    7  A    between atoms: C10_13  and  N3_14 
REMARK    8  A    between atoms: N3_14  and  C11_15 
REMARK    9  A    between atoms: C17_23  and  N4_24 
ROOT
HETATM    1  C7  UNL     1      23.238   2.701  49.930  1.00  0.00     0.030 A 
HETATM    2  C8  UNL     1      23.090   2.004  51.099  1.00  0.00     0.031 A 
HETATM    3  C9  UNL     1      24.050   1.871  52.080  1.00  0.00     0.034 A 
HETATM    4  C10 UNL     1      25.260   2.496  51.859  1.00  0.00     0.059 A 
HETATM    5  C17 UNL     1      25.448   3.207  50.695  1.00  0.00     0.054 A 
HETATM    6  C18 UNL     1      24.457   3.308  49.749  1.00  0.00     0.060 A 
ENDROOT
BRANCH   1   7
HETATM    7  N2  UNL     1      22.247   2.847  48.931  1.00  0.00    -0.384 N 
HETATM    8  H14 UNL     1      22.154   2.061  48.222  1.00  0.00     0.160 HD
BRANCH   7   9
HETATM    9  C2  UNL     1      21.289   3.917  48.675  1.00  0.00     0.095 C 
HETATM   10  C1  UNL     1      20.511   3.641  47.420  1.00  0.00     0.034 C 
BRANCH   9  11
HETATM   11  C3  UNL     1      20.480   4.245  49.872  1.00  0.00     0.140 C 
BRANCH  11  12
HETATM   12  N1  UNL     1      20.747   5.515  50.408  1.00  0.00    -0.412 N 
HETATM   13  C4  UNL     1      20.750   6.660  49.588  1.00  0.00     0.143 C 
BRANCH  12  14
HETATM   14  C5  UNL     1      21.771   5.521  51.435  1.00  0.00     0.147 C 
BRANCH  14  15
HETATM   15  C6  UNL     1      22.994   6.322  51.052  1.00  0.00     0.241 C 
HETATM   16  F1  UNL     1      24.032   5.967  51.897  1.00  0.00    -0.254 F 
ENDBRANCH  14  15
ENDBRANCH  12  14
ENDBRANCH  11  12
ENDBRANCH   9  11
ENDBRANCH   7   9
ENDBRANCH   1   7
BRANCH   5  17
HETATM   17  N4  UNL     1      26.686   3.866  50.445  1.00  0.00    -0.397 N 
HETATM   18  H21 UNL     1      26.865   4.814  49.999  1.00  0.00     0.156 HD
HETATM   19  H22 UNL     1      27.727   3.801  50.531  1.00  0.00     0.156 HD
ENDBRANCH   5  17
BRANCH   4  20
HETATM   20  N3  UNL     1      26.338   2.443  52.782  1.00  0.00    -0.354 N 
HETATM   21  H17 UNL     1      26.301   3.360  53.281  1.00  0.00     0.166 HD
BRANCH  20  22
HETATM   22  C11 UNL     1      27.319   1.462  53.083  1.00  0.00     0.034 A 
HETATM   23  C12 UNL     1      28.493   1.875  53.655  1.00  0.00     0.032 A 
HETATM   24  C13 UNL     1      29.441   0.924  53.945  1.00  0.00     0.046 A 
HETATM   25  C14 UNL     1      29.294  -0.424  53.697  1.00  0.00     0.138 A 
HETATM   26  F2  UNL     1      30.284  -1.301  54.016  1.00  0.00    -0.204 F 
HETATM   27  C15 UNL     1      28.099  -0.794  53.122  1.00  0.00     0.074 A 
HETATM   28 CL1  UNL     1      27.869  -2.503  52.789  1.00  0.00    -0.081 Cl
HETATM   29  C16 UNL     1      27.107   0.138  52.811  1.00  0.00     0.056 A 
ENDBRANCH  20  22
ENDBRANCH   4  20
TORSDOF 9
ENDMDL
MODEL 7
REMARK VINA RESULT:      -6.4      1.501      1.969
REMARK  9 active torsions:
REMARK  status: ('A' for Active; 'I' for Inactive)
REMARK    1  A    between atoms: C2_2  and  C3_3 
REMARK    2  A    between atoms: C2_2  and  N2_9 
REMARK    3  A    between atoms: C3_3  and  N1_4 
REMARK    4  A    between atoms: N1_4  and  C5_6 
REMARK    5  A    between atoms: C5_6  and  C6_7 
REMARK    6  A    between atoms: N2_9  and  C7_10 
REMARK    7  A    between atoms: C10_13  and  N3_14 
REMARK    8  A    between atoms: N3_14  and  C11_15 
REMARK    9  A    between atoms: C17_23  and  N4_24 
ROOT
HETATM    1  C7  UNL     1      23.388   2.380  51.495  1.00  0.00     0.030 A 
HETATM    2  C8  UNL     1      23.568   2.428  50.138  1.00  0.00     0.031 A 
HETATM    3  C9  UNL     1      23.897   3.554  49.412  1.00  0.00     0.034 A 
HETATM    4  C10 UNL     1      24.055   4.728  50.119  1.00  0.00     0.059 A 
HETATM    5  C17 UNL     1      23.882   4.721  51.486  1.00  0.00     0.054 A 
HETATM    6  C18 UNL     1      23.555   3.570  52.160  1.00  0.00     0.060 A 
ENDROOT
BRANCH   1   7
HETATM    7  N2  UNL     1      23.064   1.221  52.238  1.00  0.00    -0.384 N 
HETATM    8  H14 UNL     1      22.165   0.715  51.981  1.00  0.00     0.160 HD
BRANCH   7   9
HETATM    9  C2  UNL     1      23.756   0.560  53.340  1.00  0.00     0.095 C 
HETATM   10  C1  UNL     1      22.973  -0.631  53.817  1.00  0.00     0.034 C 
BRANCH   9  11
HETATM   11  C3  UNL     1      25.184   0.308  53.036  1.00  0.00     0.140 C 
BRANCH  11  12
HETATM   12  N1  UNL     1      26.073   1.027  53.852  1.00  0.00    -0.412 N 
HETATM   13  C4  UNL     1      26.893   2.038  53.314  1.00  0.00     0.143 C 
BRANCH  12  14
HETATM   14  C5  UNL     1      26.718   0.224  54.874  1.00  0.00     0.147 C 
BRANCH  14  15
HETATM   15  C6  UNL     1      28.216   0.122  54.695  1.00  0.00     0.241 C 
HETATM   16  F1  UNL     1      28.478  -0.867  53.762  1.00  0.00    -0.254 F 
ENDBRANCH  14  15
ENDBRANCH  12  14
ENDBRANCH  11  12
ENDBRANCH   9  11
ENDBRANCH   7   9
ENDBRANCH   1   7
BRANCH   5  17
HETATM   17  N4  UNL     1      24.045   5.919  52.239  1.00  0.00    -0.397 N 
HETATM   18  H21 UNL     1      24.933   6.351  52.631  1.00  0.00     0.156 HD
HETATM   19  H22 UNL     1      23.554   6.738  52.667  1.00  0.00     0.156 HD
ENDBRANCH   5  17
BRANCH   4  20
HETATM   20  N3  UNL     1      24.392   5.963  49.502  1.00  0.00    -0.354 N 
HETATM   21  H17 UNL     1      23.566   6.577  49.679  1.00  0.00     0.166 HD
BRANCH  20  22
HETATM   22  C11 UNL     1      25.528   6.418  48.783  1.00  0.00     0.034 A 
HETATM   23  C12 UNL     1      25.393   7.530  47.997  1.00  0.00     0.032 A 
HETATM   24  C13 UNL     1      26.493   7.969  47.302  1.00  0.00     0.046 A 
HETATM   25  C14 UNL     1      27.731   7.363  47.340  1.00  0.00     0.138 A 
HETATM   26  F2  UNL     1      28.771   7.863  46.619  1.00  0.00    -0.204 F 
HETATM   27  C15 UNL     1      27.822   6.248  48.143  1.00  0.00     0.074 A 
HETATM   28 CL1  UNL     1      29.381   5.444  48.221  1.00  0.00    -0.081 Cl
HETATM   29  C16 UNL     1      26.729   5.768  48.868  1.00  0.00     0.056 A 
ENDBRANCH  20  22
ENDBRANCH   4  20
TORSDOF 9
ENDMDL
MODEL 8
REMARK VINA RESULT:      -6.4      5.160      8.433
REMARK  9 active torsions:
REMARK  status: ('A' for Active; 'I' for Inactive)
REMARK    1  A    between atoms: C2_2  and  C3_3 
REMARK    2  A    between atoms: C2_2  and  N2_9 
REMARK    3  A    between atoms: C3_3  and  N1_4 
REMARK    4  A    between atoms: N1_4  and  C5_6 
REMARK    5  A    between atoms: C5_6  and  C6_7 
REMARK    6  A    between atoms: N2_9  and  C7_10 
REMARK    7  A    between atoms: C10_13  and  N3_14 
REMARK    8  A    between atoms: N3_14  and  C11_15 
REMARK    9  A    between atoms: C17_23  and  N4_24 
ROOT
HETATM    1  C7  UNL     1      24.533   0.493  52.351  1.00  0.00     0.030 A 
HETATM    2  C8  UNL     1      23.521   1.225  51.788  1.00  0.00     0.031 A 
HETATM    3  C9  UNL     1      22.200   1.205  52.185  1.00  0.00     0.034 A 
HETATM    4  C10 UNL     1      21.878   0.375  53.239  1.00  0.00     0.059 A 
HETATM    5  C17 UNL     1      22.868  -0.377  53.832  1.00  0.00     0.054 A 
HETATM    6  C18 UNL     1      24.169  -0.320  53.397  1.00  0.00     0.060 A 
ENDROOT
BRANCH   1   7
HETATM    7  N2  UNL     1      25.889   0.526  51.951  1.00  0.00    -0.384 N 
HETATM    8  H14 UNL     1      26.329  -0.394  51.651  1.00  0.00     0.160 HD
BRANCH   7   9
HETATM    9  C2  UNL     1      26.842   1.628  51.869  1.00  0.00     0.095 C 
HETATM   10  C1  UNL     1      26.203   2.835  51.243  1.00  0.00     0.034 C 
BRANCH   9  11
HETATM   11  C3  UNL     1      27.537   1.866  53.156  1.00  0.00     0.140 C 
BRANCH  11  12
HETATM   12  N1  UNL     1      28.025   0.697  53.762  1.00  0.00    -0.412 N 
HETATM   13  C4  UNL     1      27.459   0.211  54.958  1.00  0.00     0.143 C 
BRANCH  12  14
HETATM   14  C5  UNL     1      29.466   0.548  53.687  1.00  0.00     0.147 C 
BRANCH  14  15
HETATM   15  C6  UNL     1      29.919  -0.893  53.718  1.00  0.00     0.241 C 
HETATM   16  F1  UNL     1      29.089  -1.630  52.890  1.00  0.00    -0.254 F 
ENDBRANCH  14  15
ENDBRANCH  12  14
ENDBRANCH  11  12
ENDBRANCH   9  11
ENDBRANCH   7   9
ENDBRANCH   1   7
BRANCH   5  17
HETATM   17  N4  UNL     1      22.561  -1.238  54.925  1.00  0.00    -0.397 N 
HETATM   18  H21 UNL     1      22.754  -2.277  55.037  1.00  0.00     0.156 HD
HETATM   19  H22 UNL     1      22.132  -1.298  55.877  1.00  0.00     0.156 HD
ENDBRANCH   5  17
BRANCH   4  20
HETATM   20  N3  UNL     1      20.559   0.253  53.751  1.00  0.00    -0.354 N 
HETATM   21  H17 UNL     1      20.592   0.736  54.677  1.00  0.00     0.166 HD
BRANCH  20  22
HETATM   22  C11 UNL     1      19.370  -0.345  53.257  1.00  0.00     0.034 A 
HETATM   23  C12 UNL     1      18.661   0.324  52.295  1.00  0.00     0.032 A 
HETATM   24  C13 UNL     1      17.510  -0.257  51.819  1.00  0.00     0.046 A 
HETATM   25  C14 UNL     1      17.016  -1.470  52.246  1.00  0.00     0.138 A 
HETATM   26  F2  UNL     1      15.866  -1.975  51.721  1.00  0.00    -0.204 F 
HETATM   27  C15 UNL     1      17.760  -2.108  53.214  1.00  0.00     0.074 A 
HETATM   28 CL1  UNL     1      17.166  -3.657  53.787  1.00  0.00    -0.081 Cl
HETATM   29  C16 UNL     1      18.935  -1.555  53.726  1.00  0.00     0.056 A 
ENDBRANCH  20  22
ENDBRANCH   4  20
TORSDOF 9
ENDMDL
MODEL 9
REMARK VINA RESULT:      -6.4      1.230      1.987
REMARK  9 active torsions:
REMARK  status: ('A' for Active; 'I' for Inactive)
REMARK    1  A    between atoms: C2_2  and  C3_3 
REMARK    2  A    between atoms: C2_2  and  N2_9 
REMARK    3  A    between atoms: C3_3  and  N1_4 
REMARK    4  A    between atoms: N1_4  and  C5_6 
REMARK    5  A    between atoms: C5_6  and  C6_7 
REMARK    6  A    between atoms: N2_9  and  C7_10 
REMARK    7  A    between atoms: C10_13  and  N3_14 
REMARK    8  A    between atoms: N3_14  and  C11_15 
REMARK    9  A    between atoms: C17_23  and  N4_24 
ROOT
HETATM    1  C7  UNL     1      23.288   1.659  52.076  1.00  0.00     0.030 A 
HETATM    2  C8  UNL     1      23.634   2.864  52.630  1.00  0.00     0.031 A 
HETATM    3  C9  UNL     1      23.792   4.047  51.939  1.00  0.00     0.034 A 
HETATM    4  C10 UNL     1      23.584   4.007  50.576  1.00  0.00     0.059 A 
HETATM    5  C17 UNL     1      23.234   2.814  49.982  1.00  0.00     0.054 A 
HETATM    6  C18 UNL     1      23.090   1.663  50.717  1.00  0.00     0.060 A 
ENDROOT
BRANCH   1   7
HETATM    7  N2  UNL     1      23.114   0.450  52.789  1.00  0.00    -0.384 N 
HETATM    8  H14 UNL     1      22.253  -0.130  52.558  1.00  0.00     0.160 HD
BRANCH   7   9
HETATM    9  C2  UNL     1      23.921  -0.179  53.829  1.00  0.00     0.095 C 
HETATM   10  C1  UNL     1      23.060  -1.013  54.735  1.00  0.00     0.034 C 
BRANCH   9  11
HETATM   11  C3  UNL     1      25.117  -0.858  53.278  1.00  0.00     0.140 C 
BRANCH  11  12
HETATM   12  N1  UNL     1      26.282  -0.074  53.314  1.00  0.00    -0.412 N 
HETATM   13  C4  UNL     1      26.494   0.860  54.347  1.00  0.00     0.143 C 
BRANCH  12  14
HETATM   14  C5  UNL     1      26.734   0.374  52.010  1.00  0.00     0.147 C 
BRANCH  14  15
HETATM   15  C6  UNL     1      27.040   1.853  51.961  1.00  0.00     0.241 C 
HETATM   16  F1  UNL     1      26.527   2.367  50.782  1.00  0.00    -0.254 F 
ENDBRANCH  14  15
ENDBRANCH  12  14
ENDBRANCH  11  12
ENDBRANCH   9  11
ENDBRANCH   7   9
ENDBRANCH   1   7
BRANCH   5  17
HETATM   17  N4  UNL     1      23.008   2.747  48.577  1.00  0.00    -0.397 N 
HETATM   18  H21 UNL     1      22.261   3.228  47.993  1.00  0.00     0.156 HD
HETATM   19  H22 UNL     1      23.336   2.335  47.673  1.00  0.00     0.156 HD
ENDBRANCH   5  17
BRANCH   4  20
HETATM   20  N3  UNL     1      23.712   5.148  49.740  1.00  0.00    -0.354 N 
HETATM   21  H17 UNL     1      22.736   5.500  49.625  1.00  0.00     0.166 HD
BRANCH  20  22
HETATM   22  C11 UNL     1      24.820   5.789  49.125  1.00  0.00     0.034 A 
HETATM   23  C12 UNL     1      24.620   7.017  48.553  1.00  0.00     0.032 A 
HETATM   24  C13 UNL     1      25.694   7.635  47.958  1.00  0.00     0.046 A 
HETATM   25  C14 UNL     1      26.963   7.101  47.895  1.00  0.00     0.138 A 
HETATM   26  F2  UNL     1      27.972   7.781  47.286  1.00  0.00    -0.204 F 
HETATM   27  C15 UNL     1      27.118   5.866  48.483  1.00  0.00     0.074 A 
HETATM   28 CL1  UNL     1      28.720   5.149  48.426  1.00  0.00    -0.081 Cl
HETATM   29  C16 UNL     1      26.056   5.202  49.099  1.00  0.00     0.056 A 
ENDBRANCH  20  22
ENDBRANCH   4  20
TORSDOF 9
ENDMDL
