MODEL 1
REMARK VINA RESULT:      -7.5      0.000      0.000
REMARK  8 active torsions:
REMARK  status: ('A' for Active; 'I' for Inactive)
REMARK    1  A    between atoms: N1_2  and  C3_4 
REMARK    2  A    between atoms: C3_4  and  C4_5 
REMARK    3  A    between atoms: C5_6  and  C6_7 
REMARK       I    between atoms: C6_7  and  N2_9 
REMARK    4  A    between atoms: N2_9  and  C7_10 
REMARK    5  A    between atoms: C10_13  and  C11_14 
REMARK    6  A    between atoms: C11_14  and  C12_15 
REMARK    7  A    between atoms: C17_23  and  O2_24 
REMARK    8  A    between atoms: O2_24  and  C18_25 
ROOT
HETATM    1  C7  UNL     1      23.478   1.788  52.619  1.00  0.00     0.046 C 
HETATM    2  C8  UNL     1      23.773   3.032  52.226  1.00  0.00     0.028 C 
HETATM    3  C9  UNL     1      23.103   4.330  51.977  1.00  0.00     0.008 C 
HETATM    4  C10 UNL     1      21.943   4.572  51.324  1.00  0.00    -0.038 C 
HETATM    5  C14 UNL     1      20.914   3.769  50.631  1.00  0.00     0.243 C 
HETATM    6  C15 UNL     1      21.320   3.417  49.243  1.00  0.00     0.091 C 
HETATM    7  N3  UNL     1      21.639   3.120  48.157  1.00  0.00    -0.195 NA
HETATM    8  N4  UNL     1      20.602   2.533  51.258  1.00  0.00    -0.279 NA
HETATM    9  C16 UNL     1      21.067   1.703  52.080  1.00  0.00     0.123 C 
HETATM   10  C17 UNL     1      22.148   1.299  52.992  1.00  0.00     0.217 C 
ENDROOT
BRANCH   4  11
HETATM   11  C11 UNL     1      21.722   6.032  51.362  1.00  0.00     0.065 C 
BRANCH  11  12
HETATM   12  C12 UNL     1      22.640   6.823  50.557  1.00  0.00    -0.010 C 
HETATM   13  C13 UNL     1      23.585   7.716  50.781  1.00  0.00     0.214 C 
HETATM   14 CL1  UNL     1      24.630   8.604  49.676  1.00  0.00    -0.230 Cl
ENDBRANCH  11  12
ENDBRANCH   4  11
BRANCH  10  15
HETATM   15  O2  UNL     1      22.184  -0.063  53.094  1.00  0.00    -0.309 OA
BRANCH  15  16
HETATM   16  C18 UNL     1      21.716  -0.592  54.271  1.00  0.00     0.351 C 
HETATM   17  C19 UNL     1      22.702  -1.301  55.129  1.00  0.00     0.126 C 
HETATM   18  F1  UNL     1      20.975   0.355  54.999  1.00  0.00    -0.176 F 
HETATM   19  F2  UNL     1      20.762  -1.537  53.913  1.00  0.00    -0.176 F 
ENDBRANCH  15  16
ENDBRANCH  10  15
BRANCH   1  20
HETATM   20  N2  UNL     1      24.479   0.804  52.723  1.00  0.00    -0.324 N 
HETATM   21  C6  UNL     1      25.768   0.525  52.226  1.00  0.00     0.245 C 
HETATM   22  O1  UNL     1      26.233   1.378  51.439  1.00  0.00    -0.268 OA
HETATM   23  H11 UNL     1      24.207   0.002  53.364  1.00  0.00     0.169 HD
BRANCH  21  24
HETATM   24  C5  UNL     1      26.562  -0.643  52.556  1.00  0.00     0.072 C 
HETATM   25  C4  UNL     1      27.335  -0.577  53.620  1.00  0.00     0.008 C 
BRANCH  25  26
HETATM   26  C3  UNL     1      27.794   0.254  54.744  1.00  0.00     0.299 C 
BRANCH  26  27
HETATM   27  N1  UNL     1      29.071   0.862  54.434  1.00  0.00     0.083 N 
HETATM   28  C1  UNL     1      28.818   2.102  53.716  1.00  0.00     0.309 C 
HETATM   29  C2  UNL     1      29.885  -0.023  53.630  1.00  0.00     0.309 C 
ENDBRANCH  26  27
ENDBRANCH  25  26
ENDBRANCH  21  24
ENDBRANCH   1  20
TORSDOF 8
ENDMDL
MODEL 2
REMARK VINA RESULT:      -7.0      2.611      3.273
REMARK  8 active torsions:
REMARK  status: ('A' for Active; 'I' for Inactive)
REMARK    1  A    between atoms: N1_2  and  C3_4 
REMARK    2  A    between atoms: C3_4  and  C4_5 
REMARK    3  A    between atoms: C5_6  and  C6_7 
REMARK       I    between atoms: C6_7  and  N2_9 
REMARK    4  A    between atoms: N2_9  and  C7_10 
REMARK    5  A    between atoms: C10_13  and  C11_14 
REMARK    6  A    between atoms: C11_14  and  C12_15 
REMARK    7  A    between atoms: C17_23  and  O2_24 
REMARK    8  A    between atoms: O2_24  and  C18_25 
ROOT
HETATM    1  C7  UNL     1      22.625   2.292  52.345  1.00  0.00     0.046 C 
HETATM    2  C8  UNL     1      22.193   3.396  51.726  1.00  0.00     0.028 C 
HETATM    3  C9  UNL     1      21.044   3.864  50.915  1.00  0.00     0.008 C 
HETATM    4  C10 UNL     1      20.426   3.240  49.886  1.00  0.00    -0.038 C 
HETATM    5  C14 UNL     1      20.572   1.960  49.163  1.00  0.00     0.243 C 
HETATM    6  C15 UNL     1      21.651   2.015  48.139  1.00  0.00     0.091 C 
HETATM    7  N3  UNL     1      22.510   2.044  47.346  1.00  0.00    -0.195 NA
HETATM    8  N4  UNL     1      20.888   0.846  49.985  1.00  0.00    -0.279 NA
HETATM    9  C16 UNL     1      21.360   0.560  51.114  1.00  0.00     0.123 C 
HETATM   10  C17 UNL     1      21.922   1.007  52.399  1.00  0.00     0.217 C 
ENDROOT
BRANCH   4  11
HETATM   11  C11 UNL     1      19.339   4.133  49.430  1.00  0.00     0.065 C 
BRANCH  11  12
HETATM   12  C12 UNL     1      18.327   4.443  50.427  1.00  0.00    -0.010 C 
HETATM   13  C13 UNL     1      17.300   3.822  50.976  1.00  0.00     0.214 C 
HETATM   14 CL1  UNL     1      16.143   4.346  52.197  1.00  0.00    -0.230 Cl
ENDBRANCH  11  12
ENDBRANCH   4  11
BRANCH  10  15
HETATM   15  O2  UNL     1      22.766   0.054  52.893  1.00  0.00    -0.309 OA
BRANCH  15  16
HETATM   16  C18 UNL     1      22.281  -0.700  53.932  1.00  0.00     0.351 C 
HETATM   17  C19 UNL     1      21.202  -0.096  54.757  1.00  0.00     0.126 C 
HETATM   18  F1  UNL     1      21.950  -1.999  53.511  1.00  0.00    -0.176 F 
HETATM   19  F2  UNL     1      23.355  -0.906  54.789  1.00  0.00    -0.176 F 
ENDBRANCH  15  16
ENDBRANCH  10  15
BRANCH   1  20
HETATM   20  N2  UNL     1      23.849   2.282  53.040  1.00  0.00    -0.324 N 
HETATM   21  C6  UNL     1      25.234   2.296  52.778  1.00  0.00     0.245 C 
HETATM   22  O1  UNL     1      25.548   2.327  51.569  1.00  0.00    -0.268 OA
HETATM   23  H11 UNL     1      23.727   2.246  54.094  1.00  0.00     0.169 HD
BRANCH  21  24
HETATM   24  C5  UNL     1      26.280   2.278  53.783  1.00  0.00     0.072 C 
HETATM   25  C4  UNL     1      26.728   1.105  54.178  1.00  0.00     0.008 C 
BRANCH  25  26
HETATM   26  C3  UNL     1      26.620  -0.355  54.030  1.00  0.00     0.299 C 
BRANCH  26  27
HETATM   27  N1  UNL     1      27.481  -0.819  52.963  1.00  0.00     0.083 N 
HETATM   28  C1  UNL     1      26.997  -2.120  52.525  1.00  0.00     0.309 C 
HETATM   29  C2  UNL     1      28.853  -0.921  53.410  1.00  0.00     0.309 C 
ENDBRANCH  26  27
ENDBRANCH  25  26
ENDBRANCH  21  24
ENDBRANCH   1  20
TORSDOF 8
ENDMDL
MODEL 3
REMARK VINA RESULT:      -7.0      1.623      2.029
REMARK  8 active torsions:
REMARK  status: ('A' for Active; 'I' for Inactive)
REMARK    1  A    between atoms: N1_2  and  C3_4 
REMARK    2  A    between atoms: C3_4  and  C4_5 
REMARK    3  A    between atoms: C5_6  and  C6_7 
REMARK       I    between atoms: C6_7  and  N2_9 
REMARK    4  A    between atoms: N2_9  and  C7_10 
REMARK    5  A    between atoms: C10_13  and  C11_14 
REMARK    6  A    between atoms: C11_14  and  C12_15 
REMARK    7  A    between atoms: C17_23  and  O2_24 
REMARK    8  A    between atoms: O2_24  and  C18_25 
ROOT
HETATM    1  C7  UNL     1      24.345   2.766  52.900  1.00  0.00     0.046 C 
HETATM    2  C8  UNL     1      23.929   3.936  52.405  1.00  0.00     0.028 C 
HETATM    3  C9  UNL     1      22.693   4.574  51.891  1.00  0.00     0.008 C 
HETATM    4  C10 UNL     1      21.773   4.068  51.038  1.00  0.00    -0.038 C 
HETATM    5  C14 UNL     1      21.575   2.805  50.297  1.00  0.00     0.243 C 
HETATM    6  C15 UNL     1      22.380   2.757  49.046  1.00  0.00     0.091 C 
HETATM    7  N3  UNL     1      23.024   2.702  48.071  1.00  0.00    -0.195 NA
HETATM    8  N4  UNL     1      21.926   1.632  51.018  1.00  0.00    -0.279 NA
HETATM    9  C16 UNL     1      22.610   1.251  52.002  1.00  0.00     0.123 C 
HETATM   10  C17 UNL     1      23.512   1.580  53.117  1.00  0.00     0.217 C 
ENDROOT
BRANCH   4  11
HETATM   11  C11 UNL     1      20.737   5.107  50.855  1.00  0.00     0.065 C 
BRANCH  11  12
HETATM   12  C12 UNL     1      21.161   6.289  50.121  1.00  0.00    -0.010 C 
HETATM   13  C13 UNL     1      21.460   7.541  50.411  1.00  0.00     0.214 C 
HETATM   14 CL1  UNL     1      21.966   8.881  49.386  1.00  0.00    -0.230 Cl
ENDBRANCH  11  12
ENDBRANCH   4  11
BRANCH  10  15
HETATM   15  O2  UNL     1      24.316   0.512  53.394  1.00  0.00    -0.309 OA
BRANCH  15  16
HETATM   16  C18 UNL     1      23.741  -0.503  54.116  1.00  0.00     0.351 C 
HETATM   17  C19 UNL     1      24.563  -1.109  55.198  1.00  0.00     0.126 C 
HETATM   18  F1  UNL     1      22.460  -0.147  54.572  1.00  0.00    -0.176 F 
HETATM   19  F2  UNL     1      23.484  -1.523  53.208  1.00  0.00    -0.176 F 
ENDBRANCH  15  16
ENDBRANCH  10  15
BRANCH   1  20
HETATM   20  N2  UNL     1      25.686   2.577  53.283  1.00  0.00    -0.324 N 
HETATM   21  C6  UNL     1      26.961   2.428  52.700  1.00  0.00     0.245 C 
HETATM   22  O1  UNL     1      26.983   2.466  51.451  1.00  0.00    -0.268 OA
HETATM   23  H11 UNL     1      25.812   2.517  54.337  1.00  0.00     0.169 HD
BRANCH  21  24
HETATM   24  C5  UNL     1      28.202   2.242  53.427  1.00  0.00     0.072 C 
HETATM   25  C4  UNL     1      28.432   1.057  53.951  1.00  0.00     0.008 C 
BRANCH  25  26
HETATM   26  C3  UNL     1      27.925  -0.311  54.143  1.00  0.00     0.299 C 
BRANCH  26  27
HETATM   27  N1  UNL     1      28.226  -1.128  52.986  1.00  0.00     0.083 N 
HETATM   28  C1  UNL     1      26.997  -1.785  52.565  1.00  0.00     0.309 C 
HETATM   29  C2  UNL     1      29.238  -2.114  53.296  1.00  0.00     0.309 C 
ENDBRANCH  26  27
ENDBRANCH  25  26
ENDBRANCH  21  24
ENDBRANCH   1  20
TORSDOF 8
ENDMDL
MODEL 4
REMARK VINA RESULT:      -7.0      3.856      7.550
REMARK  8 active torsions:
REMARK  status: ('A' for Active; 'I' for Inactive)
REMARK    1  A    between atoms: N1_2  and  C3_4 
REMARK    2  A    between atoms: C3_4  and  C4_5 
REMARK    3  A    between atoms: C5_6  and  C6_7 
REMARK       I    between atoms: C6_7  and  N2_9 
REMARK    4  A    between atoms: N2_9  and  C7_10 
REMARK    5  A    between atoms: C10_13  and  C11_14 
REMARK    6  A    between atoms: C11_14  and  C12_15 
REMARK    7  A    between atoms: C17_23  and  O2_24 
REMARK    8  A    between atoms: O2_24  and  C18_25 
ROOT
HETATM    1  C7  UNL     1      23.493   3.432  51.495  1.00  0.00     0.046 C 
HETATM    2  C8  UNL     1      24.134   2.931  52.556  1.00  0.00     0.028 C 
HETATM    3  C9  UNL     1      24.596   1.627  53.089  1.00  0.00     0.008 C 
HETATM    4  C10 UNL     1      23.929   0.450  53.138  1.00  0.00    -0.038 C 
HETATM    5  C14 UNL     1      22.595  -0.046  52.739  1.00  0.00     0.243 C 
HETATM    6  C15 UNL     1      21.550   0.290  53.744  1.00  0.00     0.091 C 
HETATM    7  N3  UNL     1      20.719   0.565  54.519  1.00  0.00    -0.195 NA
HETATM    8  N4  UNL     1      22.114   0.470  51.506  1.00  0.00    -0.279 NA
HETATM    9  C16 UNL     1      22.284   1.425  50.707  1.00  0.00     0.123 C 
HETATM   10  C17 UNL     1      22.994   2.664  50.351  1.00  0.00     0.217 C 
ENDROOT
BRANCH   4  11
HETATM   11  C11 UNL     1      24.838  -0.536  53.759  1.00  0.00     0.065 C 
BRANCH  11  12
HETATM   12  C12 UNL     1      26.248  -0.176  53.752  1.00  0.00    -0.010 C 
HETATM   13  C13 UNL     1      27.379  -0.741  53.373  1.00  0.00     0.214 C 
HETATM   14 CL1  UNL     1      29.042  -0.164  53.433  1.00  0.00    -0.230 Cl
ENDBRANCH  11  12
ENDBRANCH   4  11
BRANCH  10  15
HETATM   15  O2  UNL     1      22.185   3.461  49.594  1.00  0.00    -0.309 OA
BRANCH  15  16
HETATM   16  C18 UNL     1      22.504   3.553  48.263  1.00  0.00     0.351 C 
HETATM   17  C19 UNL     1      21.373   3.682  47.306  1.00  0.00     0.126 C 
HETATM   18  F1  UNL     1      23.491   4.528  48.039  1.00  0.00    -0.176 F 
HETATM   19  F2  UNL     1      23.150   2.365  47.941  1.00  0.00    -0.176 F 
ENDBRANCH  15  16
ENDBRANCH  10  15
BRANCH   1  20
HETATM   20  N2  UNL     1      23.246   4.813  51.383  1.00  0.00    -0.324 N 
HETATM   21  C6  UNL     1      23.887   5.988  50.940  1.00  0.00     0.245 C 
HETATM   22  O1  UNL     1      25.044   5.829  50.494  1.00  0.00    -0.268 OA
HETATM   23  H11 UNL     1      22.286   5.093  51.741  1.00  0.00     0.169 HD
BRANCH  21  24
HETATM   24  C5  UNL     1      23.314   7.320  50.967  1.00  0.00     0.072 C 
HETATM   25  C4  UNL     1      22.460   7.638  50.017  1.00  0.00     0.008 C 
BRANCH  25  26
HETATM   26  C3  UNL     1      21.755   7.183  48.808  1.00  0.00     0.299 C 
BRANCH  26  27
HETATM   27  N1  UNL     1      20.324   7.202  49.022  1.00  0.00     0.083 N 
HETATM   28  C1  UNL     1      19.985   8.439  49.709  1.00  0.00     0.309 C 
HETATM   29  C2  UNL     1      19.901   6.063  49.809  1.00  0.00     0.309 C 
ENDBRANCH  26  27
ENDBRANCH  25  26
ENDBRANCH  21  24
ENDBRANCH   1  20
TORSDOF 8
ENDMDL
MODEL 5
REMARK VINA RESULT:      -6.9      3.651      6.804
REMARK  8 active torsions:
REMARK  status: ('A' for Active; 'I' for Inactive)
REMARK    1  A    between atoms: N1_2  and  C3_4 
REMARK    2  A    between atoms: C3_4  and  C4_5 
REMARK    3  A    between atoms: C5_6  and  C6_7 
REMARK       I    between atoms: C6_7  and  N2_9 
REMARK    4  A    between atoms: N2_9  and  C7_10 
REMARK    5  A    between atoms: C10_13  and  C11_14 
REMARK    6  A    between atoms: C11_14  and  C12_15 
REMARK    7  A    between atoms: C17_23  and  O2_24 
REMARK    8  A    between atoms: O2_24  and  C18_25 
ROOT
HETATM    1  C7  UNL     1      23.186   2.750  51.314  1.00  0.00     0.046 C 
HETATM    2  C8  UNL     1      23.934   2.479  52.388  1.00  0.00     0.028 C 
HETATM    3  C9  UNL     1      24.495   1.313  53.113  1.00  0.00     0.008 C 
HETATM    4  C10 UNL     1      23.887   0.150  53.441  1.00  0.00    -0.038 C 
HETATM    5  C14 UNL     1      22.549  -0.450  53.264  1.00  0.00     0.243 C 
HETATM    6  C15 UNL     1      21.576   0.042  54.278  1.00  0.00     0.091 C 
HETATM    7  N3  UNL     1      20.800   0.437  55.058  1.00  0.00    -0.195 NA
HETATM    8  N4  UNL     1      21.944  -0.192  52.004  1.00  0.00    -0.279 NA
HETATM    9  C16 UNL     1      22.006   0.597  51.028  1.00  0.00     0.123 C 
HETATM   10  C17 UNL     1      22.629   1.764  50.384  1.00  0.00     0.217 C 
ENDROOT
BRANCH   4  11
HETATM   11  C11 UNL     1      24.887  -0.674  54.153  1.00  0.00     0.065 C 
BRANCH  11  12
HETATM   12  C12 UNL     1      26.273  -0.430  53.784  1.00  0.00    -0.010 C 
HETATM   13  C13 UNL     1      27.375  -0.044  54.399  1.00  0.00     0.214 C 
HETATM   14 CL1  UNL     1      29.011   0.211  53.800  1.00  0.00    -0.230 Cl
ENDBRANCH  11  12
ENDBRANCH   4  11
BRANCH  10  15
HETATM   15  O2  UNL     1      21.725   2.380  49.566  1.00  0.00    -0.309 OA
BRANCH  15  16
HETATM   16  C18 UNL     1      21.985   2.309  48.220  1.00  0.00     0.351 C 
HETATM   17  C19 UNL     1      21.110   3.109  47.323  1.00  0.00     0.126 C 
HETATM   18  F1  UNL     1      23.347   2.526  47.949  1.00  0.00    -0.176 F 
HETATM   19  F2  UNL     1      21.795   0.980  47.862  1.00  0.00    -0.176 F 
ENDBRANCH  15  16
ENDBRANCH  10  15
BRANCH   1  20
HETATM   20  N2  UNL     1      22.870   4.077  50.967  1.00  0.00    -0.324 N 
HETATM   21  C6  UNL     1      22.132   5.171  51.462  1.00  0.00     0.245 C 
HETATM   22  O1  UNL     1      21.546   4.972  52.549  1.00  0.00    -0.268 OA
HETATM   23  H11 UNL     1      23.302   4.380  50.045  1.00  0.00     0.169 HD
BRANCH  21  24
HETATM   24  C5  UNL     1      22.011   6.465  50.819  1.00  0.00     0.072 C 
HETATM   25  C4  UNL     1      23.097   7.204  50.723  1.00  0.00     0.008 C 
BRANCH  25  26
HETATM   26  C3  UNL     1      24.536   7.301  51.014  1.00  0.00     0.299 C 
BRANCH  26  27
HETATM   27  N1  UNL     1      25.307   7.171  49.795  1.00  0.00     0.083 N 
HETATM   28  C1  UNL     1      25.699   5.777  49.655  1.00  0.00     0.309 C 
HETATM   29  C2  UNL     1      26.480   8.018  49.830  1.00  0.00     0.309 C 
ENDBRANCH  26  27
ENDBRANCH  25  26
ENDBRANCH  21  24
ENDBRANCH   1  20
TORSDOF 8
ENDMDL
MODEL 6
REMARK VINA RESULT:      -6.6      2.549      3.507
REMARK  8 active torsions:
REMARK  status: ('A' for Active; 'I' for Inactive)
REMARK    1  A    between atoms: N1_2  and  C3_4 
REMARK    2  A    between atoms: C3_4  and  C4_5 
REMARK    3  A    between atoms: C5_6  and  C6_7 
REMARK       I    between atoms: C6_7  and  N2_9 
REMARK    4  A    between atoms: N2_9  and  C7_10 
REMARK    5  A    between atoms: C10_13  and  C11_14 
REMARK    6  A    between atoms: C11_14  and  C12_15 
REMARK    7  A    between atoms: C17_23  and  O2_24 
REMARK    8  A    between atoms: O2_24  and  C18_25 
ROOT
HETATM    1  C7  UNL     1      23.455   3.295  51.620  1.00  0.00     0.046 C 
HETATM    2  C8  UNL     1      23.821   4.519  52.014  1.00  0.00     0.028 C 
HETATM    3  C9  UNL     1      23.715   5.930  51.573  1.00  0.00     0.008 C 
HETATM    4  C10 UNL     1      23.906   6.446  50.337  1.00  0.00    -0.038 C 
HETATM    5  C14 UNL     1      24.268   5.928  49.002  1.00  0.00     0.243 C 
HETATM    6  C15 UNL     1      25.735   5.722  48.859  1.00  0.00     0.091 C 
HETATM    7  N3  UNL     1      26.884   5.539  48.744  1.00  0.00    -0.195 NA
HETATM    8  N4  UNL     1      23.676   4.680  48.669  1.00  0.00    -0.279 NA
HETATM    9  C16 UNL     1      23.136   3.676  49.198  1.00  0.00     0.123 C 
HETATM   10  C17 UNL     1      22.689   2.975  50.412  1.00  0.00     0.217 C 
ENDROOT
BRANCH   4  11
HETATM   11  C11 UNL     1      23.674   7.902  50.437  1.00  0.00     0.065 C 
BRANCH  11  12
HETATM   12  C12 UNL     1      22.520   8.401  49.704  1.00  0.00    -0.010 C 
HETATM   13  C13 UNL     1      21.216   8.203  49.720  1.00  0.00     0.214 C 
HETATM   14 CL1  UNL     1      19.923   8.897  48.746  1.00  0.00    -0.230 Cl
ENDBRANCH  11  12
ENDBRANCH   4  11
BRANCH  10  15
HETATM   15  O2  UNL     1      22.720   1.625  50.206  1.00  0.00    -0.309 OA
BRANCH  15  16
HETATM   16  C18 UNL     1      21.517   1.033  49.915  1.00  0.00     0.351 C 
HETATM   17  C19 UNL     1      20.289   1.786  50.283  1.00  0.00     0.126 C 
HETATM   18  F1  UNL     1      21.475   0.585  48.583  1.00  0.00    -0.176 F 
HETATM   19  F2  UNL     1      21.483  -0.147  50.649  1.00  0.00    -0.176 F 
ENDBRANCH  15  16
ENDBRANCH  10  15
BRANCH   1  20
HETATM   20  N2  UNL     1      23.785   2.158  52.382  1.00  0.00    -0.324 N 
HETATM   21  C6  UNL     1      24.815   1.204  52.500  1.00  0.00     0.245 C 
HETATM   22  O1  UNL     1      25.771   1.351  51.707  1.00  0.00    -0.268 OA
HETATM   23  H11 UNL     1      23.043   1.911  53.101  1.00  0.00     0.169 HD
BRANCH  21  24
HETATM   24  C5  UNL     1      24.840   0.104  53.444  1.00  0.00     0.072 C 
HETATM   25  C4  UNL     1      25.887  -0.695  53.425  1.00  0.00     0.008 C 
BRANCH  25  26
HETATM   26  C3  UNL     1      27.184  -0.991  52.797  1.00  0.00     0.299 C 
BRANCH  26  27
HETATM   27  N1  UNL     1      28.242  -0.247  53.449  1.00  0.00     0.083 N 
HETATM   28  C1  UNL     1      29.450  -1.058  53.417  1.00  0.00     0.309 C 
HETATM   29  C2  UNL     1      27.888   0.068  54.816  1.00  0.00     0.309 C 
ENDBRANCH  26  27
ENDBRANCH  25  26
ENDBRANCH  21  24
ENDBRANCH   1  20
TORSDOF 8
ENDMDL
MODEL 7
REMARK VINA RESULT:      -6.6      4.607      5.861
REMARK  8 active torsions:
REMARK  status: ('A' for Active; 'I' for Inactive)
REMARK    1  A    between atoms: N1_2  and  C3_4 
REMARK    2  A    between atoms: C3_4  and  C4_5 
REMARK    3  A    between atoms: C5_6  and  C6_7 
REMARK       I    between atoms: C6_7  and  N2_9 
REMARK    4  A    between atoms: N2_9  and  C7_10 
REMARK    5  A    between atoms: C10_13  and  C11_14 
REMARK    6  A    between atoms: C11_14  and  C12_15 
REMARK    7  A    between atoms: C17_23  and  O2_24 
REMARK    8  A    between atoms: O2_24  and  C18_25 
ROOT
HETATM    1  C7  UNL     1      19.796   1.304  51.880  1.00  0.00     0.046 C 
HETATM    2  C8  UNL     1      18.828   2.105  51.420  1.00  0.00     0.028 C 
HETATM    3  C9  UNL     1      17.375   2.338  51.592  1.00  0.00     0.008 C 
HETATM    4  C10 UNL     1      16.373   1.430  51.650  1.00  0.00    -0.038 C 
HETATM    5  C14 UNL     1      16.253  -0.041  51.579  1.00  0.00     0.243 C 
HETATM    6  C15 UNL     1      16.272  -0.538  50.176  1.00  0.00     0.091 C 
HETATM    7  N3  UNL     1      16.305  -0.938  49.078  1.00  0.00    -0.195 NA
HETATM    8  N4  UNL     1      17.285  -0.754  52.246  1.00  0.00    -0.279 NA
HETATM    9  C16 UNL     1      18.454  -0.611  52.683  1.00  0.00     0.123 C 
HETATM   10  C17 UNL     1      19.632   0.248  52.882  1.00  0.00     0.217 C 
ENDROOT
BRANCH   4  11
HETATM   11  C11 UNL     1      15.116   2.184  51.833  1.00  0.00     0.065 C 
BRANCH  11  12
HETATM   12  C12 UNL     1      14.221   1.666  52.857  1.00  0.00    -0.010 C 
HETATM   13  C13 UNL     1      13.170   2.106  53.523  1.00  0.00     0.214 C 
HETATM   14 CL1  UNL     1      12.176   1.342  54.759  1.00  0.00    -0.230 Cl
ENDBRANCH  11  12
ENDBRANCH   4  11
BRANCH  10  15
HETATM   15  O2  UNL     1      20.763  -0.516  52.917  1.00  0.00    -0.309 OA
BRANCH  15  16
HETATM   16  C18 UNL     1      21.337  -0.688  54.151  1.00  0.00     0.351 C 
HETATM   17  C19 UNL     1      22.813  -0.864  54.189  1.00  0.00     0.126 C 
HETATM   18  F1  UNL     1      20.906   0.296  55.058  1.00  0.00    -0.176 F 
HETATM   19  F2  UNL     1      20.794  -1.858  54.668  1.00  0.00    -0.176 F 
ENDBRANCH  15  16
ENDBRANCH  10  15
BRANCH   1  20
HETATM   20  N2  UNL     1      21.120   1.429  51.419  1.00  0.00    -0.324 N 
HETATM   21  C6  UNL     1      22.222   2.298  51.539  1.00  0.00     0.245 C 
HETATM   22  O1  UNL     1      22.038   3.296  52.270  1.00  0.00    -0.268 OA
HETATM   23  H11 UNL     1      21.410   0.639  50.770  1.00  0.00     0.169 HD
BRANCH  21  24
HETATM   24  C5  UNL     1      23.510   2.119  50.895  1.00  0.00     0.072 C 
HETATM   25  C4  UNL     1      24.554   1.903  51.667  1.00  0.00     0.008 C 
BRANCH  25  26
HETATM   26  C3  UNL     1      25.040   1.745  53.047  1.00  0.00     0.299 C 
BRANCH  26  27
HETATM   27  N1  UNL     1      26.358   1.147  53.053  1.00  0.00     0.083 N 
HETATM   28  C1  UNL     1      27.280   2.080  52.423  1.00  0.00     0.309 C 
HETATM   29  C2  UNL     1      26.360  -0.113  52.342  1.00  0.00     0.309 C 
ENDBRANCH  26  27
ENDBRANCH  25  26
ENDBRANCH  21  24
ENDBRANCH   1  20
TORSDOF 8
ENDMDL
MODEL 8
REMARK VINA RESULT:      -6.6      4.464      6.575
REMARK  8 active torsions:
REMARK  status: ('A' for Active; 'I' for Inactive)
REMARK    1  A    between atoms: N1_2  and  C3_4 
REMARK    2  A    between atoms: C3_4  and  C4_5 
REMARK    3  A    between atoms: C5_6  and  C6_7 
REMARK       I    between atoms: C6_7  and  N2_9 
REMARK    4  A    between atoms: N2_9  and  C7_10 
REMARK    5  A    between atoms: C10_13  and  C11_14 
REMARK    6  A    between atoms: C11_14  and  C12_15 
REMARK    7  A    between atoms: C17_23  and  O2_24 
REMARK    8  A    between atoms: O2_24  and  C18_25 
ROOT
HETATM    1  C7  UNL     1      22.586   2.615  50.342  1.00  0.00     0.046 C 
HETATM    2  C8  UNL     1      22.009   1.424  50.147  1.00  0.00     0.028 C 
HETATM    3  C9  UNL     1      20.692   0.764  50.313  1.00  0.00     0.008 C 
HETATM    4  C10 UNL     1      19.842   0.824  51.364  1.00  0.00    -0.038 C 
HETATM    5  C14 UNL     1      19.812   1.487  52.684  1.00  0.00     0.243 C 
HETATM    6  C15 UNL     1      20.604   0.745  53.702  1.00  0.00     0.091 C 
HETATM    7  N3  UNL     1      21.240   0.178  54.503  1.00  0.00    -0.195 NA
HETATM    8  N4  UNL     1      20.328   2.811  52.695  1.00  0.00    -0.279 NA
HETATM    9  C16 UNL     1      21.066   3.584  52.034  1.00  0.00     0.123 C 
HETATM   10  C17 UNL     1      21.926   3.815  50.862  1.00  0.00     0.217 C 
ENDROOT
BRANCH   4  11
HETATM   11  C11 UNL     1      18.671  -0.011  51.021  1.00  0.00     0.065 C 
BRANCH  11  12
HETATM   12  C12 UNL     1      17.497   0.189  51.855  1.00  0.00    -0.010 C 
HETATM   13  C13 UNL     1      16.276   0.664  51.693  1.00  0.00     0.214 C 
HETATM   14 CL1  UNL     1      14.940   0.845  52.827  1.00  0.00    -0.230 Cl
ENDBRANCH  11  12
ENDBRANCH   4  11
BRANCH  10  15
HETATM   15  O2  UNL     1      22.871   4.755  51.158  1.00  0.00    -0.309 OA
BRANCH  15  16
HETATM   16  C18 UNL     1      22.598   6.035  50.746  1.00  0.00     0.351 C 
HETATM   17  C19 UNL     1      22.413   6.248  49.286  1.00  0.00     0.126 C 
HETATM   18  F1  UNL     1      21.550   6.601  51.493  1.00  0.00    -0.176 F 
HETATM   19  F2  UNL     1      23.700   6.799  51.113  1.00  0.00    -0.176 F 
ENDBRANCH  15  16
ENDBRANCH  10  15
BRANCH   1  20
HETATM   20  N2  UNL     1      23.944   2.821  50.034  1.00  0.00    -0.324 N 
HETATM   21  C6  UNL     1      25.206   2.789  50.661  1.00  0.00     0.245 C 
HETATM   22  O1  UNL     1      25.190   2.493  51.876  1.00  0.00    -0.268 OA
HETATM   23  H11 UNL     1      24.103   3.092  49.019  1.00  0.00     0.169 HD
BRANCH  21  24
HETATM   24  C5  UNL     1      26.474   3.068  50.016  1.00  0.00     0.072 C 
HETATM   25  C4  UNL     1      26.610   4.229  49.411  1.00  0.00     0.008 C 
BRANCH  25  26
HETATM   26  C3  UNL     1      25.969   5.508  49.067  1.00  0.00     0.299 C 
BRANCH  26  27
HETATM   27  N1  UNL     1      26.970   6.516  48.788  1.00  0.00     0.083 N 
HETATM   28  C1  UNL     1      26.425   7.432  47.797  1.00  0.00     0.309 C 
HETATM   29  C2  UNL     1      28.189   5.914  48.294  1.00  0.00     0.309 C 
ENDBRANCH  26  27
ENDBRANCH  25  26
ENDBRANCH  21  24
ENDBRANCH   1  20
TORSDOF 8
ENDMDL
MODEL 9
REMARK VINA RESULT:      -6.6      3.299      6.006
REMARK  8 active torsions:
REMARK  status: ('A' for Active; 'I' for Inactive)
REMARK    1  A    between atoms: N1_2  and  C3_4 
REMARK    2  A    between atoms: C3_4  and  C4_5 
REMARK    3  A    between atoms: C5_6  and  C6_7 
REMARK       I    between atoms: C6_7  and  N2_9 
REMARK    4  A    between atoms: N2_9  and  C7_10 
REMARK    5  A    between atoms: C10_13  and  C11_14 
REMARK    6  A    between atoms: C11_14  and  C12_15 
REMARK    7  A    between atoms: C17_23  and  O2_24 
REMARK    8  A    between atoms: O2_24  and  C18_25 
ROOT
HETATM    1  C7  UNL     1      22.311   1.714  50.726  1.00  0.00     0.046 C 
HETATM    2  C8  UNL     1      22.892   2.362  49.711  1.00  0.00     0.028 C 
HETATM    3  C9  UNL     1      24.111   3.154  49.423  1.00  0.00     0.008 C 
HETATM    4  C10 UNL     1      24.676   4.137  50.162  1.00  0.00    -0.038 C 
HETATM    5  C14 UNL     1      24.392   4.813  51.445  1.00  0.00     0.243 C 
HETATM    6  C15 UNL     1      23.355   5.872  51.303  1.00  0.00     0.091 C 
HETATM    7  N3  UNL     1      22.529   6.693  51.205  1.00  0.00    -0.195 NA
HETATM    8  N4  UNL     1      23.919   3.957  52.476  1.00  0.00    -0.279 NA
HETATM    9  C16 UNL     1      23.384   2.833  52.652  1.00  0.00     0.123 C 
HETATM   10  C17 UNL     1      22.848   1.586  52.083  1.00  0.00     0.217 C 
ENDROOT
BRANCH   4  11
HETATM   11  C11 UNL     1      25.876   4.594  49.430  1.00  0.00     0.065 C 
BRANCH  11  12
HETATM   12  C12 UNL     1      25.660   5.694  48.503  1.00  0.00    -0.010 C 
HETATM   13  C13 UNL     1      25.375   6.979  48.592  1.00  0.00     0.214 C 
HETATM   14 CL1  UNL     1      25.139   8.205  47.349  1.00  0.00    -0.230 Cl
ENDBRANCH  11  12
ENDBRANCH   4  11
BRANCH  10  15
HETATM   15  O2  UNL     1      21.880   1.081  52.903  1.00  0.00    -0.309 OA
BRANCH  15  16
HETATM   16  C18 UNL     1      22.182  -0.097  53.538  1.00  0.00     0.351 C 
HETATM   17  C19 UNL     1      21.483  -0.369  54.822  1.00  0.00     0.126 C 
HETATM   18  F1  UNL     1      22.098  -1.189  52.657  1.00  0.00    -0.176 F 
HETATM   19  F2  UNL     1      23.537  -0.034  53.839  1.00  0.00    -0.176 F 
ENDBRANCH  15  16
ENDBRANCH  10  15
BRANCH   1  20
HETATM   20  N2  UNL     1      21.077   1.059  50.556  1.00  0.00    -0.324 N 
HETATM   21  C6  UNL     1      19.705   1.362  50.445  1.00  0.00     0.245 C 
HETATM   22  O1  UNL     1      19.420   2.577  50.509  1.00  0.00    -0.268 OA
HETATM   23  H11 UNL     1      21.172   0.003  50.494  1.00  0.00     0.169 HD
BRANCH  21  24
HETATM   24  C5  UNL     1      18.640   0.393  50.267  1.00  0.00     0.072 C 
HETATM   25  C4  UNL     1      18.270  -0.308  51.317  1.00  0.00     0.008 C 
BRANCH  25  26
HETATM   26  C3  UNL     1      18.486  -0.566  52.750  1.00  0.00     0.299 C 
BRANCH  26  27
HETATM   27  N1  UNL     1      17.357  -1.278  53.311  1.00  0.00     0.083 N 
HETATM   28  C1  UNL     1      17.796  -2.623  53.654  1.00  0.00     0.309 C 
HETATM   29  C2  UNL     1      16.260  -1.337  52.368  1.00  0.00     0.309 C 
ENDBRANCH  26  27
ENDBRANCH  25  26
ENDBRANCH  21  24
ENDBRANCH   1  20
TORSDOF 8
ENDMDL
