MODEL 1
REMARK VINA RESULT:     -10.1      0.000      0.000
REMARK  4 active torsions:
REMARK  status: ('A' for Active; 'I' for Inactive)
REMARK    1  A    between atoms: O1_2  and  C2_3 
REMARK    2  A    between atoms: C5_6  and  C6_7 
REMARK    3  A    between atoms: C14_17  and  C15_18 
REMARK    4  A    between atoms: C16_19  and  C17_20 
ROOT
HETATM    1  C17 UNL     1      24.966  -0.436  53.211  1.00  0.00     0.165 C 
HETATM    2  C18 UNL     1      25.843   0.233  54.167  1.00  0.00     0.063 C 
HETATM    3  N2  UNL     1      26.529   0.767  54.912  1.00  0.00    -0.197 NA
ENDROOT
BRANCH   1   4
HETATM    4  C16 UNL     1      23.596   0.110  53.167  1.00  0.00    -0.013 C 
HETATM    5  C15 UNL     1      23.180   0.882  52.121  1.00  0.00     0.037 C 
HETATM    6  N3  UNL     1      21.801   0.421  51.888  1.00  0.00    -0.382 N 
HETATM    7  C21 UNL     1      20.952  -0.204  52.951  1.00  0.00     0.105 C 
HETATM    8  H21 UNL     1      21.425   0.554  50.912  1.00  0.00     0.160 HD
HETATM    9  C20 UNL     1      21.348   0.596  54.143  1.00  0.00     0.006 C 
HETATM   10  C22 UNL     1      21.344  -1.626  53.199  1.00  0.00     0.029 C 
HETATM   11  C19 UNL     1      22.535   0.013  54.184  1.00  0.00    -0.051 C 
HETATM   12  C24 UNL     1      22.718  -1.057  55.218  1.00  0.00     0.039 C 
HETATM   13  C23 UNL     1      21.602  -2.018  54.650  1.00  0.00     0.007 C 
BRANCH   5  14
HETATM   14  C14 UNL     1      23.981   1.820  51.445  1.00  0.00     0.047 C 
HETATM   15  C13 UNL     1      24.152   3.069  51.086  1.00  0.00     0.047 A 
HETATM   16  C9  UNL     1      25.177   3.763  50.322  1.00  0.00     0.006 A 
HETATM   17  C12 UNL     1      23.188   4.083  51.489  1.00  0.00     0.257 A 
HETATM   18  C8  UNL     1      26.295   3.215  49.735  1.00  0.00     0.015 A 
HETATM   19  C10 UNL     1      24.839   5.088  50.281  1.00  0.00     0.047 A 
HETATM   20  C7  UNL     1      27.167   4.013  49.046  1.00  0.00     0.013 A 
HETATM   21  C6  UNL     1      26.899   5.361  48.957  1.00  0.00    -0.024 A 
HETATM   22  C11 UNL     1      25.767   5.832  49.568  1.00  0.00     0.042 A 
HETATM   23  N1  UNL     1      23.630   5.335  50.981  1.00  0.00    -0.322 N 
HETATM   24  H9  UNL     1      23.304   6.326  50.994  1.00  0.00     0.169 HD
HETATM   25  O2  UNL     1      22.115   4.225  52.127  1.00  0.00    -0.267 OA
BRANCH  21  26
HETATM   26  C5  UNL     1      27.809   6.239  48.231  1.00  0.00    -0.026 A 
HETATM   27  C4  UNL     1      27.406   7.396  47.583  1.00  0.00     0.015 A 
HETATM   28  C3  UNL     1      28.295   8.190  46.912  1.00  0.00     0.037 A 
HETATM   29  C2  UNL     1      29.620   7.861  46.863  1.00  0.00     0.068 A 
HETATM   30  C26 UNL     1      30.049   6.697  47.509  1.00  0.00     0.037 A 
HETATM   31  C25 UNL     1      29.150   5.882  48.194  1.00  0.00     0.015 A 
BRANCH  29  32
HETATM   32  O1  UNL     1      30.665   8.508  46.254  1.00  0.00    -0.356 OA
HETATM   33  C1  UNL     1      31.560   9.253  47.057  1.00  0.00     0.210 C 
ENDBRANCH  29  32
ENDBRANCH  21  26
ENDBRANCH   5  14
ENDBRANCH   1   4
TORSDOF 4
ENDMDL
MODEL 2
REMARK VINA RESULT:      -9.9      5.000     10.261
REMARK  4 active torsions:
REMARK  status: ('A' for Active; 'I' for Inactive)
REMARK    1  A    between atoms: O1_2  and  C2_3 
REMARK    2  A    between atoms: C5_6  and  C6_7 
REMARK    3  A    between atoms: C14_17  and  C15_18 
REMARK    4  A    between atoms: C16_19  and  C17_20 
ROOT
HETATM    1  C17 UNL     1      25.762   1.641  51.466  1.00  0.00     0.165 C 
HETATM    2  C18 UNL     1      25.006   2.888  51.454  1.00  0.00     0.063 C 
HETATM    3  N2  UNL     1      24.404   3.862  51.449  1.00  0.00    -0.197 NA
ENDROOT
BRANCH   1   4
HETATM    4  C16 UNL     1      25.919   1.045  52.808  1.00  0.00    -0.013 C 
HETATM    5  C15 UNL     1      25.074   0.067  53.246  1.00  0.00     0.037 C 
HETATM    6  N3  UNL     1      25.971  -0.859  53.959  1.00  0.00    -0.382 N 
HETATM    7  C21 UNL     1      27.270  -0.438  54.572  1.00  0.00     0.105 C 
HETATM    8  H21 UNL     1      25.649  -1.862  54.022  1.00  0.00     0.160 HD
HETATM    9  C20 UNL     1      26.918   0.911  55.094  1.00  0.00     0.006 C 
HETATM   10  C22 UNL     1      28.335  -0.268  53.535  1.00  0.00     0.029 C 
HETATM   11  C19 UNL     1      26.871   1.412  53.869  1.00  0.00    -0.051 C 
HETATM   12  C24 UNL     1      28.055   2.222  53.434  1.00  0.00     0.039 C 
HETATM   13  C23 UNL     1      29.103   1.048  53.558  1.00  0.00     0.007 C 
BRANCH   5  14
HETATM   14  C14 UNL     1      23.697   0.009  52.967  1.00  0.00     0.047 C 
HETATM   15  C13 UNL     1      22.508  -0.381  53.358  1.00  0.00     0.047 A 
HETATM   16  C9  UNL     1      21.176  -0.275  52.782  1.00  0.00     0.006 A 
HETATM   17  C12 UNL     1      22.347  -1.064  54.634  1.00  0.00     0.257 A 
HETATM   18  C8  UNL     1      20.831   0.298  51.579  1.00  0.00     0.015 A 
HETATM   19  C10 UNL     1      20.298  -0.853  53.657  1.00  0.00     0.047 A 
HETATM   20  C7  UNL     1      19.522   0.316  51.180  1.00  0.00     0.013 A 
HETATM   21  C6  UNL     1      18.574  -0.247  52.005  1.00  0.00    -0.024 A 
HETATM   22  C11 UNL     1      18.995  -0.797  53.187  1.00  0.00     0.042 A 
HETATM   23  N1  UNL     1      20.965  -1.352  54.805  1.00  0.00    -0.322 N 
HETATM   24  H9  UNL     1      20.360  -1.810  55.522  1.00  0.00     0.169 HD
HETATM   25  O2  UNL     1      23.005  -1.478  55.621  1.00  0.00    -0.267 OA
BRANCH  21  26
HETATM   26  C5  UNL     1      17.170  -0.243  51.610  1.00  0.00    -0.026 A 
HETATM   27  C4  UNL     1      16.739  -0.048  50.308  1.00  0.00     0.015 A 
HETATM   28  C3  UNL     1      15.410  -0.051  49.982  1.00  0.00     0.037 A 
HETATM   29  C2  UNL     1      14.461  -0.251  50.943  1.00  0.00     0.068 A 
HETATM   30  C26 UNL     1      14.873  -0.449  52.265  1.00  0.00     0.037 A 
HETATM   31  C25 UNL     1      16.224  -0.447  52.606  1.00  0.00     0.015 A 
BRANCH  29  32
HETATM   32  O1  UNL     1      13.094  -0.292  50.836  1.00  0.00    -0.356 OA
HETATM   33  C1  UNL     1      12.315   0.210  51.904  1.00  0.00     0.210 C 
ENDBRANCH  29  32
ENDBRANCH  21  26
ENDBRANCH   5  14
ENDBRANCH   1   4
TORSDOF 4
ENDMDL
MODEL 3
REMARK VINA RESULT:      -9.5      1.573      2.801
REMARK  4 active torsions:
REMARK  status: ('A' for Active; 'I' for Inactive)
REMARK    1  A    between atoms: O1_2  and  C2_3 
REMARK    2  A    between atoms: C5_6  and  C6_7 
REMARK    3  A    between atoms: C14_17  and  C15_18 
REMARK    4  A    between atoms: C16_19  and  C17_20 
ROOT
HETATM    1  C17 UNL     1      20.941   2.599  50.698  1.00  0.00     0.165 C 
HETATM    2  C18 UNL     1      19.799   3.170  51.403  1.00  0.00     0.063 C 
HETATM    3  N2  UNL     1      18.898   3.608  51.958  1.00  0.00    -0.197 NA
ENDROOT
BRANCH   1   4
HETATM    4  C16 UNL     1      21.731   1.646  51.504  1.00  0.00    -0.013 C 
HETATM    5  C15 UNL     1      22.965   1.982  51.980  1.00  0.00     0.037 C 
HETATM    6  N3  UNL     1      22.974   1.406  53.335  1.00  0.00    -0.382 N 
HETATM    7  C21 UNL     1      22.133   0.233  53.735  1.00  0.00     0.105 C 
HETATM    8  H21 UNL     1      23.616   1.867  54.032  1.00  0.00     0.160 HD
HETATM    9  C20 UNL     1      22.192  -0.597  52.500  1.00  0.00     0.006 C 
HETATM   10  C22 UNL     1      20.708   0.631  53.956  1.00  0.00     0.029 C 
HETATM   11  C19 UNL     1      21.412   0.251  51.849  1.00  0.00    -0.051 C 
HETATM   12  C24 UNL     1      19.977  -0.151  51.687  1.00  0.00     0.039 C 
HETATM   13  C23 UNL     1      19.651  -0.195  53.232  1.00  0.00     0.007 C 
BRANCH   5  14
HETATM   14  C14 UNL     1      23.909   2.763  51.287  1.00  0.00     0.047 C 
HETATM   15  C13 UNL     1      24.280   3.960  50.903  1.00  0.00     0.047 A 
HETATM   16  C9  UNL     1      25.404   4.462  50.127  1.00  0.00     0.006 A 
HETATM   17  C12 UNL     1      23.495   5.125  51.283  1.00  0.00     0.257 A 
HETATM   18  C8  UNL     1      26.417   3.727  49.555  1.00  0.00     0.015 A 
HETATM   19  C10 UNL     1      25.286   5.823  50.059  1.00  0.00     0.047 A 
HETATM   20  C7  UNL     1      27.408   4.358  48.852  1.00  0.00     0.013 A 
HETATM   21  C6  UNL     1      27.362   5.729  48.736  1.00  0.00    -0.024 A 
HETATM   22  C11 UNL     1      26.323   6.391  49.333  1.00  0.00     0.042 A 
HETATM   23  N1  UNL     1      24.134   6.277  50.750  1.00  0.00    -0.322 N 
HETATM   24  H9  UNL     1      23.974   7.309  50.742  1.00  0.00     0.169 HD
HETATM   25  O2  UNL     1      22.459   5.453  51.915  1.00  0.00    -0.267 OA
BRANCH  21  26
HETATM   26  C5  UNL     1      28.403   6.432  47.994  1.00  0.00    -0.026 A 
HETATM   27  C4  UNL     1      28.160   7.527  47.180  1.00  0.00     0.015 A 
HETATM   28  C3  UNL     1      29.167   8.156  46.502  1.00  0.00     0.037 A 
HETATM   29  C2  UNL     1      30.456   7.718  46.610  1.00  0.00     0.068 A 
HETATM   30  C26 UNL     1      30.725   6.613  47.426  1.00  0.00     0.037 A 
HETATM   31  C25 UNL     1      29.705   5.966  48.120  1.00  0.00     0.015 A 
BRANCH  29  32
HETATM   32  O1  UNL     1      31.601   8.195  46.025  1.00  0.00    -0.356 OA
HETATM   33  C1  UNL     1      32.757   7.380  46.033  1.00  0.00     0.210 C 
ENDBRANCH  29  32
ENDBRANCH  21  26
ENDBRANCH   5  14
ENDBRANCH   1   4
TORSDOF 4
ENDMDL
MODEL 4
REMARK VINA RESULT:      -9.4      5.896      8.442
REMARK  4 active torsions:
REMARK  status: ('A' for Active; 'I' for Inactive)
REMARK    1  A    between atoms: O1_2  and  C2_3 
REMARK    2  A    between atoms: C5_6  and  C6_7 
REMARK    3  A    between atoms: C14_17  and  C15_18 
REMARK    4  A    between atoms: C16_19  and  C17_20 
ROOT
HETATM    1  C17 UNL     1      17.369   2.614  50.186  1.00  0.00     0.165 C 
HETATM    2  C18 UNL     1      16.926   3.386  51.341  1.00  0.00     0.063 C 
HETATM    3  N2  UNL     1      16.567   3.990  52.245  1.00  0.00    -0.197 NA
ENDROOT
BRANCH   1   4
HETATM    4  C16 UNL     1      16.910   1.210  50.188  1.00  0.00    -0.013 C 
HETATM    5  C15 UNL     1      17.421   0.305  51.072  1.00  0.00     0.037 C 
HETATM    6  N3  UNL     1      16.242  -0.483  51.469  1.00  0.00    -0.382 N 
HETATM    7  C21 UNL     1      15.029  -0.641  50.606  1.00  0.00     0.105 C 
HETATM    8  H21 UNL     1      16.289  -0.946  52.416  1.00  0.00     0.160 HD
HETATM    9  C20 UNL     1      15.648  -0.733  49.255  1.00  0.00     0.006 C 
HETATM   10  C22 UNL     1      14.172   0.585  50.637  1.00  0.00     0.029 C 
HETATM   11  C19 UNL     1      15.964   0.552  49.272  1.00  0.00    -0.051 C 
HETATM   12  C24 UNL     1      15.084   1.466  48.474  1.00  0.00     0.039 C 
HETATM   13  C23 UNL     1      13.765   1.165  49.288  1.00  0.00     0.007 C 
BRANCH   5  14
HETATM   14  C14 UNL     1      18.762   0.263  51.496  1.00  0.00     0.047 C 
HETATM   15  C13 UNL     1      19.633  -0.209  52.354  1.00  0.00     0.047 A 
HETATM   16  C9  UNL     1      21.067  -0.036  52.527  1.00  0.00     0.006 A 
HETATM   17  C12 UNL     1      19.205  -1.129  53.397  1.00  0.00     0.257 A 
HETATM   18  C8  UNL     1      21.910   0.746  51.772  1.00  0.00     0.015 A 
HETATM   19  C10 UNL     1      21.451  -0.800  53.595  1.00  0.00     0.047 A 
HETATM   20  C7  UNL     1      23.245   0.799  52.069  1.00  0.00     0.013 A 
HETATM   21  C6  UNL     1      23.714   0.058  53.131  1.00  0.00    -0.024 A 
HETATM   22  C11 UNL     1      22.813  -0.696  53.835  1.00  0.00     0.042 A 
HETATM   23  N1  UNL     1      20.348  -1.488  54.162  1.00  0.00    -0.322 N 
HETATM   24  H9  UNL     1      20.562  -2.094  54.984  1.00  0.00     0.169 HD
HETATM   25  O2  UNL     1      18.182  -1.707  53.844  1.00  0.00    -0.267 OA
BRANCH  21  26
HETATM   26  C5  UNL     1      25.131   0.091  53.474  1.00  0.00    -0.026 A 
HETATM   27  C4  UNL     1      25.608   0.042  54.774  1.00  0.00     0.015 A 
HETATM   28  C3  UNL     1      26.947   0.077  55.050  1.00  0.00     0.037 A 
HETATM   29  C2  UNL     1      27.862   0.161  54.039  1.00  0.00     0.068 A 
HETATM   30  C26 UNL     1      27.403   0.212  52.719  1.00  0.00     0.037 A 
HETATM   31  C25 UNL     1      26.041   0.178  52.429  1.00  0.00     0.015 A 
BRANCH  29  32
HETATM   32  O1  UNL     1      29.232   0.208  54.093  1.00  0.00    -0.356 OA
HETATM   33  C1  UNL     1      29.969  -0.868  53.546  1.00  0.00     0.210 C 
ENDBRANCH  29  32
ENDBRANCH  21  26
ENDBRANCH   5  14
ENDBRANCH   1   4
TORSDOF 4
ENDMDL
MODEL 5
REMARK VINA RESULT:      -9.3      2.709     10.198
REMARK  4 active torsions:
REMARK  status: ('A' for Active; 'I' for Inactive)
REMARK    1  A    between atoms: O1_2  and  C2_3 
REMARK    2  A    between atoms: C5_6  and  C6_7 
REMARK    3  A    between atoms: C14_17  and  C15_18 
REMARK    4  A    between atoms: C16_19  and  C17_20 
ROOT
HETATM    1  C17 UNL     1      30.869   5.627  47.843  1.00  0.00     0.165 C 
HETATM    2  C18 UNL     1      31.499   5.969  49.113  1.00  0.00     0.063 C 
HETATM    3  N2  UNL     1      31.999   6.246  50.105  1.00  0.00    -0.197 NA
ENDROOT
BRANCH   1   4
HETATM    4  C16 UNL     1      30.031   6.703  47.278  1.00  0.00    -0.013 C 
HETATM    5  C15 UNL     1      28.844   7.048  47.857  1.00  0.00     0.037 C 
HETATM    6  N3  UNL     1      28.832   8.517  47.756  1.00  0.00    -0.382 N 
HETATM    7  C21 UNL     1      29.587   9.275  46.709  1.00  0.00     0.105 C 
HETATM    8  H21 UNL     1      28.252   9.027  48.474  1.00  0.00     0.160 HD
HETATM    9  C20 UNL     1      29.420   8.380  45.531  1.00  0.00     0.006 C 
HETATM   10  C22 UNL     1      31.046   9.348  47.030  1.00  0.00     0.029 C 
HETATM   11  C19 UNL     1      30.246   7.485  46.049  1.00  0.00    -0.051 C 
HETATM   12  C24 UNL     1      31.637   7.458  45.492  1.00  0.00     0.039 C 
HETATM   13  C23 UNL     1      32.008   8.930  45.924  1.00  0.00     0.007 C 
BRANCH   5  14
HETATM   14  C14 UNL     1      27.945   6.141  48.450  1.00  0.00     0.047 C 
HETATM   15  C13 UNL     1      26.699   5.850  48.732  1.00  0.00     0.047 A 
HETATM   16  C9  UNL     1      26.058   4.739  49.417  1.00  0.00     0.006 A 
HETATM   17  C12 UNL     1      25.627   6.740  48.308  1.00  0.00     0.257 A 
HETATM   18  C8  UNL     1      26.669   3.649  49.992  1.00  0.00     0.015 A 
HETATM   19  C10 UNL     1      24.708   4.961  49.396  1.00  0.00     0.047 A 
HETATM   20  C7  UNL     1      25.916   2.683  50.603  1.00  0.00     0.013 A 
HETATM   21  C6  UNL     1      24.547   2.832  50.625  1.00  0.00    -0.024 A 
HETATM   22  C11 UNL     1      24.011   3.944  50.032  1.00  0.00     0.042 A 
HETATM   23  N1  UNL     1      24.394   6.173  48.729  1.00  0.00    -0.322 N 
HETATM   24  H9  UNL     1      23.380   6.413  48.672  1.00  0.00     0.169 HD
HETATM   25  O2  UNL     1      25.426   7.823  47.703  1.00  0.00    -0.267 OA
BRANCH  21  26
HETATM   26  C5  UNL     1      23.714   1.821  51.267  1.00  0.00    -0.026 A 
HETATM   27  C4  UNL     1      22.430   1.508  50.852  1.00  0.00     0.015 A 
HETATM   28  C3  UNL     1      21.684   0.551  51.485  1.00  0.00     0.037 A 
HETATM   29  C2  UNL     1      22.191  -0.129  52.555  1.00  0.00     0.068 A 
HETATM   30  C26 UNL     1      23.485   0.172  52.992  1.00  0.00     0.037 A 
HETATM   31  C25 UNL     1      24.252   1.145  52.354  1.00  0.00     0.015 A 
BRANCH  29  32
HETATM   32  O1  UNL     1      21.621  -1.112  53.324  1.00  0.00    -0.356 OA
HETATM   33  C1  UNL     1      21.761  -1.039  54.730  1.00  0.00     0.210 C 
ENDBRANCH  29  32
ENDBRANCH  21  26
ENDBRANCH   5  14
ENDBRANCH   1   4
TORSDOF 4
ENDMDL
MODEL 6
REMARK VINA RESULT:      -9.2      2.781     10.319
REMARK  4 active torsions:
REMARK  status: ('A' for Active; 'I' for Inactive)
REMARK    1  A    between atoms: O1_2  and  C2_3 
REMARK    2  A    between atoms: C5_6  and  C6_7 
REMARK    3  A    between atoms: C14_17  and  C15_18 
REMARK    4  A    between atoms: C16_19  and  C17_20 
ROOT
HETATM    1  C17 UNL     1      28.275   9.133  49.662  1.00  0.00     0.165 C 
HETATM    2  C18 UNL     1      27.263  10.072  49.189  1.00  0.00     0.063 C 
HETATM    3  N2  UNL     1      26.476  10.814  48.813  1.00  0.00    -0.197 NA
ENDROOT
BRANCH   1   4
HETATM    4  C16 UNL     1      28.993   8.428  48.581  1.00  0.00    -0.013 C 
HETATM    5  C15 UNL     1      28.411   7.391  47.911  1.00  0.00     0.037 C 
HETATM    6  N3  UNL     1      28.827   7.615  46.516  1.00  0.00    -0.382 N 
HETATM    7  C21 UNL     1      30.070   8.359  46.138  1.00  0.00     0.105 C 
HETATM    8  H21 UNL     1      28.194   7.216  45.773  1.00  0.00     0.160 HD
HETATM    9  C20 UNL     1      31.009   7.910  47.201  1.00  0.00     0.006 C 
HETATM   10  C22 UNL     1      29.886   9.837  46.278  1.00  0.00     0.029 C 
HETATM   11  C19 UNL     1      30.375   8.627  48.115  1.00  0.00    -0.051 C 
HETATM   12  C24 UNL     1      31.020   9.920  48.514  1.00  0.00     0.039 C 
HETATM   13  C23 UNL     1      30.947  10.581  47.082  1.00  0.00     0.007 C 
BRANCH   5  14
HETATM   14  C14 UNL     1      27.568   6.428  48.495  1.00  0.00     0.047 C 
HETATM   15  C13 UNL     1      26.340   6.036  48.731  1.00  0.00     0.047 A 
HETATM   16  C9  UNL     1      25.766   4.895  49.428  1.00  0.00     0.006 A 
HETATM   17  C12 UNL     1      25.216   6.811  48.226  1.00  0.00     0.257 A 
HETATM   18  C8  UNL     1      26.443   3.883  50.070  1.00  0.00     0.015 A 
HETATM   19  C10 UNL     1      24.405   4.994  49.337  1.00  0.00     0.047 A 
HETATM   20  C7  UNL     1      25.749   2.875  50.682  1.00  0.00     0.013 A 
HETATM   21  C6  UNL     1      24.373   2.901  50.636  1.00  0.00    -0.024 A 
HETATM   22  C11 UNL     1      23.771   3.940  49.978  1.00  0.00     0.042 A 
HETATM   23  N1  UNL     1      24.018   6.150  48.611  1.00  0.00    -0.322 N 
HETATM   24  H9  UNL     1      22.991   6.296  48.500  1.00  0.00     0.169 HD
HETATM   25  O2  UNL     1      24.950   7.851  47.572  1.00  0.00    -0.267 OA
BRANCH  21  26
HETATM   26  C5  UNL     1      23.602   1.841  51.277  1.00  0.00    -0.026 A 
HETATM   27  C4  UNL     1      22.379   1.390  50.808  1.00  0.00     0.015 A 
HETATM   28  C3  UNL     1      21.690   0.392  51.441  1.00  0.00     0.037 A 
HETATM   29  C2  UNL     1      22.196  -0.194  52.567  1.00  0.00     0.068 A 
HETATM   30  C26 UNL     1      23.429   0.247  53.059  1.00  0.00     0.037 A 
HETATM   31  C25 UNL     1      24.137   1.262  52.420  1.00  0.00     0.015 A 
BRANCH  29  32
HETATM   32  O1  UNL     1      21.677  -1.195  53.347  1.00  0.00    -0.356 OA
HETATM   33  C1  UNL     1      21.952  -1.185  54.734  1.00  0.00     0.210 C 
ENDBRANCH  29  32
ENDBRANCH  21  26
ENDBRANCH   5  14
ENDBRANCH   1   4
TORSDOF 4
ENDMDL
MODEL 7
REMARK VINA RESULT:      -8.8      1.948      2.844
REMARK  4 active torsions:
REMARK  status: ('A' for Active; 'I' for Inactive)
REMARK    1  A    between atoms: O1_2  and  C2_3 
REMARK    2  A    between atoms: C5_6  and  C6_7 
REMARK    3  A    between atoms: C14_17  and  C15_18 
REMARK    4  A    between atoms: C16_19  and  C17_20 
ROOT
HETATM    1  C17 UNL     1      23.503   2.647  52.625  1.00  0.00     0.165 C 
HETATM    2  C18 UNL     1      24.108   1.379  53.020  1.00  0.00     0.063 C 
HETATM    3  N2  UNL     1      24.573   0.381  53.331  1.00  0.00    -0.197 NA
ENDROOT
BRANCH   1   4
HETATM    4  C16 UNL     1      22.603   2.547  51.459  1.00  0.00    -0.013 C 
HETATM    5  C15 UNL     1      23.096   2.572  50.186  1.00  0.00     0.037 C 
HETATM    6  N3  UNL     1      22.282   1.563  49.488  1.00  0.00    -0.382 N 
HETATM    7  C21 UNL     1      20.901   1.177  49.921  1.00  0.00     0.105 C 
HETATM    8  H21 UNL     1      22.725   1.111  48.645  1.00  0.00     0.160 HD
HETATM    9  C20 UNL     1      20.360   2.492  50.361  1.00  0.00     0.006 C 
HETATM   10  C22 UNL     1      20.935   0.270  51.110  1.00  0.00     0.029 C 
HETATM   11  C19 UNL     1      21.132   2.491  51.436  1.00  0.00    -0.051 C 
HETATM   12  C24 UNL     1      20.472   2.127  52.732  1.00  0.00     0.039 C 
HETATM   13  C23 UNL     1      20.059   0.668  52.293  1.00  0.00     0.007 C 
BRANCH   5  14
HETATM   14  C14 UNL     1      24.180   3.361  49.760  1.00  0.00     0.047 C 
HETATM   15  C13 UNL     1      24.590   4.525  49.319  1.00  0.00     0.047 A 
HETATM   16  C9  UNL     1      25.891   5.054  48.938  1.00  0.00     0.006 A 
HETATM   17  C12 UNL     1      23.641   5.616  49.145  1.00  0.00     0.257 A 
HETATM   18  C8  UNL     1      27.095   4.387  48.939  1.00  0.00     0.015 A 
HETATM   19  C10 UNL     1      25.717   6.359  48.569  1.00  0.00     0.047 A 
HETATM   20  C7  UNL     1      28.237   5.034  48.550  1.00  0.00     0.013 A 
HETATM   21  C6  UNL     1      28.147   6.352  48.162  1.00  0.00    -0.024 A 
HETATM   22  C11 UNL     1      26.914   6.948  48.188  1.00  0.00     0.042 A 
HETATM   23  N1  UNL     1      24.358   6.750  48.677  1.00  0.00    -0.322 N 
HETATM   24  H9  UNL     1      24.144   7.737  48.411  1.00  0.00     0.169 HD
HETATM   25  O2  UNL     1      22.421   5.890  49.268  1.00  0.00    -0.267 OA
BRANCH  21  26
HETATM   26  C5  UNL     1      29.345   7.071  47.742  1.00  0.00    -0.026 A 
HETATM   27  C4  UNL     1      30.611   6.812  48.242  1.00  0.00     0.015 A 
HETATM   28  C3  UNL     1      31.708   7.512  47.820  1.00  0.00     0.037 A 
HETATM   29  C2  UNL     1      31.583   8.497  46.882  1.00  0.00     0.068 A 
HETATM   30  C26 UNL     1      30.314   8.776  46.364  1.00  0.00     0.037 A 
HETATM   31  C25 UNL     1      29.192   8.068  46.789  1.00  0.00     0.015 A 
BRANCH  29  32
HETATM   32  O1  UNL     1      32.538   9.309  46.326  1.00  0.00    -0.356 OA
HETATM   33  C1  UNL     1      33.706   9.590  47.073  1.00  0.00     0.210 C 
ENDBRANCH  29  32
ENDBRANCH  21  26
ENDBRANCH   5  14
ENDBRANCH   1   4
TORSDOF 4
ENDMDL
MODEL 8
REMARK VINA RESULT:      -8.8      3.255     10.628
REMARK  4 active torsions:
REMARK  status: ('A' for Active; 'I' for Inactive)
REMARK    1  A    between atoms: O1_2  and  C2_3 
REMARK    2  A    between atoms: C5_6  and  C6_7 
REMARK    3  A    between atoms: C14_17  and  C15_18 
REMARK    4  A    between atoms: C16_19  and  C17_20 
ROOT
HETATM    1  C17 UNL     1      31.622   5.952  46.950  1.00  0.00     0.165 C 
HETATM    2  C18 UNL     1      32.650   5.927  47.986  1.00  0.00     0.063 C 
HETATM    3  N2  UNL     1      33.462   5.915  48.792  1.00  0.00    -0.197 NA
ENDROOT
BRANCH   1   4
HETATM    4  C16 UNL     1      31.006   7.279  46.747  1.00  0.00    -0.013 C 
HETATM    5  C15 UNL     1      29.946   7.685  47.505  1.00  0.00     0.037 C 
HETATM    6  N3  UNL     1      30.239   9.104  47.765  1.00  0.00    -0.382 N 
HETATM    7  C21 UNL     1      31.089   9.946  46.865  1.00  0.00     0.105 C 
HETATM    8  H21 UNL     1      29.813   9.515  48.638  1.00  0.00     0.160 HD
HETATM    9  C20 UNL     1      30.685   9.434  45.527  1.00  0.00     0.006 C 
HETATM   10  C22 UNL     1      32.544   9.651  47.052  1.00  0.00     0.029 C 
HETATM   11  C19 UNL     1      31.326   8.294  45.730  1.00  0.00    -0.051 C 
HETATM   12  C24 UNL     1      32.653   8.143  45.051  1.00  0.00     0.039 C 
HETATM   13  C23 UNL     1      33.346   9.355  45.790  1.00  0.00     0.007 C 
BRANCH   5  14
HETATM   14  C14 UNL     1      28.903   6.847  47.943  1.00  0.00     0.047 C 
HETATM   15  C13 UNL     1      27.624   6.721  48.198  1.00  0.00     0.047 A 
HETATM   16  C9  UNL     1      26.800   5.625  48.685  1.00  0.00     0.006 A 
HETATM   17  C12 UNL     1      26.720   7.840  47.972  1.00  0.00     0.257 A 
HETATM   18  C8  UNL     1      27.216   4.361  49.035  1.00  0.00     0.015 A 
HETATM   19  C10 UNL     1      25.507   6.069  48.739  1.00  0.00     0.047 A 
HETATM   20  C7  UNL     1      26.306   3.439  49.477  1.00  0.00     0.013 A 
HETATM   21  C6  UNL     1      24.982   3.807  49.561  1.00  0.00    -0.024 A 
HETATM   22  C11 UNL     1      24.645   5.083  49.195  1.00  0.00     0.042 A 
HETATM   23  N1  UNL     1      25.407   7.419  48.313  1.00  0.00    -0.322 N 
HETATM   24  H9  UNL     1      24.448   7.831  48.327  1.00  0.00     0.169 HD
HETATM   25  O2  UNL     1      26.708   9.034  47.581  1.00  0.00    -0.267 OA
BRANCH  21  26
HETATM   26  C5  UNL     1      23.987   2.848  50.028  1.00  0.00    -0.026 A 
HETATM   27  C4  UNL     1      24.009   2.271  51.287  1.00  0.00     0.015 A 
HETATM   28  C3  UNL     1      23.054   1.374  51.683  1.00  0.00     0.037 A 
HETATM   29  C2  UNL     1      22.041   1.020  50.838  1.00  0.00     0.068 A 
HETATM   30  C26 UNL     1      22.000   1.590  49.561  1.00  0.00     0.037 A 
HETATM   31  C25 UNL     1      22.968   2.504  49.149  1.00  0.00     0.015 A 
BRANCH  29  32
HETATM   32  O1  UNL     1      20.997   0.152  51.030  1.00  0.00    -0.356 OA
HETATM   33  C1  UNL     1      19.813   0.639  51.632  1.00  0.00     0.210 C 
ENDBRANCH  29  32
ENDBRANCH  21  26
ENDBRANCH   5  14
ENDBRANCH   1   4
TORSDOF 4
ENDMDL
MODEL 9
REMARK VINA RESULT:      -8.7      2.621      3.662
REMARK  4 active torsions:
REMARK  status: ('A' for Active; 'I' for Inactive)
REMARK    1  A    between atoms: O1_2  and  C2_3 
REMARK    2  A    between atoms: C5_6  and  C6_7 
REMARK    3  A    between atoms: C14_17  and  C15_18 
REMARK    4  A    between atoms: C16_19  and  C17_20 
ROOT
HETATM    1  C17 UNL     1      21.990   1.593  48.912  1.00  0.00     0.165 C 
HETATM    2  C18 UNL     1      21.110   2.322  48.004  1.00  0.00     0.063 C 
HETATM    3  N2  UNL     1      20.411   2.890  47.299  1.00  0.00    -0.197 NA
ENDROOT
BRANCH   1   4
HETATM    4  C16 UNL     1      21.906   2.037  50.317  1.00  0.00    -0.013 C 
HETATM    5  C15 UNL     1      22.427   3.237  50.708  1.00  0.00     0.037 C 
HETATM    6  N3  UNL     1      21.425   3.747  51.660  1.00  0.00    -0.382 N 
HETATM    7  C21 UNL     1      20.502   2.859  52.436  1.00  0.00     0.105 C 
HETATM    8  H21 UNL     1      21.384   4.794  51.775  1.00  0.00     0.160 HD
HETATM    9  C20 UNL     1      21.398   1.710  52.741  1.00  0.00     0.006 C 
HETATM   10  C22 UNL     1      19.380   2.357  51.584  1.00  0.00     0.029 C 
HETATM   11  C19 UNL     1      21.371   1.308  51.480  1.00  0.00    -0.051 C 
HETATM   12  C24 UNL     1      20.483   0.143  51.168  1.00  0.00     0.039 C 
HETATM   13  C23 UNL     1      19.138   0.852  51.596  1.00  0.00     0.007 C 
BRANCH   5  14
HETATM   14  C14 UNL     1      23.614   3.800  50.206  1.00  0.00     0.047 C 
HETATM   15  C13 UNL     1      24.214   4.864  49.730  1.00  0.00     0.047 A 
HETATM   16  C9  UNL     1      25.566   5.129  49.262  1.00  0.00     0.006 A 
HETATM   17  C12 UNL     1      23.488   6.120  49.611  1.00  0.00     0.257 A 
HETATM   18  C8  UNL     1      26.613   4.240  49.189  1.00  0.00     0.015 A 
HETATM   19  C10 UNL     1      25.627   6.446  48.895  1.00  0.00     0.047 A 
HETATM   20  C7  UNL     1      27.831   4.653  48.721  1.00  0.00     0.013 A 
HETATM   21  C6  UNL     1      27.976   5.965  48.330  1.00  0.00    -0.024 A 
HETATM   22  C11 UNL     1      26.888   6.790  48.432  1.00  0.00     0.042 A 
HETATM   23  N1  UNL     1      24.381   7.095  49.089  1.00  0.00    -0.322 N 
HETATM   24  H9  UNL     1      24.348   8.106  48.831  1.00  0.00     0.169 HD
HETATM   25  O2  UNL     1      22.356   6.628  49.812  1.00  0.00    -0.267 OA
BRANCH  21  26
HETATM   26  C5  UNL     1      29.261   6.438  47.827  1.00  0.00    -0.026 A 
HETATM   27  C4  UNL     1      29.392   7.381  46.821  1.00  0.00     0.015 A 
HETATM   28  C3  UNL     1      30.619   7.795  46.379  1.00  0.00     0.037 A 
HETATM   29  C2  UNL     1      31.762   7.285  46.926  1.00  0.00     0.068 A 
HETATM   30  C26 UNL     1      31.654   6.330  47.943  1.00  0.00     0.037 A 
HETATM   31  C25 UNL     1      30.408   5.902  48.398  1.00  0.00     0.015 A 
BRANCH  29  32
HETATM   32  O1  UNL     1      33.075   7.557  46.635  1.00  0.00    -0.356 OA
HETATM   33  C1  UNL     1      34.083   6.852  47.333  1.00  0.00     0.210 C 
ENDBRANCH  29  32
ENDBRANCH  21  26
ENDBRANCH   5  14
ENDBRANCH   1   4
TORSDOF 4
ENDMDL
