MODEL 1
REMARK VINA RESULT:      -9.4      0.000      0.000
REMARK  5 active torsions:
REMARK  status: ('A' for Active; 'I' for Inactive)
REMARK    1  A    between atoms: C7_7  and  N1_8 
REMARK       I    between atoms: N1_8  and  C8_9 
REMARK    2  A    between atoms: C8_9  and  C9_11 
REMARK    3  A    between atoms: C13_16  and  N3_17 
REMARK    4  A    between atoms: N3_17  and  C14_18 
REMARK    5  A    between atoms: C14_18  and  C15_19 
ROOT
HETATM    1  C9  UNL     1      24.995   3.864  50.595  1.00  0.00     0.077 A 
HETATM    2  C10 UNL     1      24.862   4.988  49.823  1.00  0.00     0.022 A 
HETATM    3  C11 UNL     1      25.908   5.388  49.026  1.00  0.00     0.020 A 
HETATM    4  C12 UNL     1      27.088   4.722  48.957  1.00  0.00     0.119 A 
HETATM    5  N2  UNL     1      27.168   3.639  49.723  1.00  0.00    -0.243 NA
HETATM    6  C13 UNL     1      26.190   3.189  50.524  1.00  0.00     0.139 A 
ENDROOT
BRANCH   1   7
HETATM    7  C8  UNL     1      23.943   3.399  51.445  1.00  0.00     0.260 C 
HETATM    8  N1  UNL     1      23.177   2.287  51.006  1.00  0.00    -0.323 N 
HETATM    9  H10 UNL     1      23.232   1.709  50.141  1.00  0.00     0.169 HD
HETATM   10  O1  UNL     1      23.436   3.682  52.552  1.00  0.00    -0.267 OA
BRANCH   8  11
HETATM   11  C7  UNL     1      22.185   1.860  51.825  1.00  0.00     0.032 A 
HETATM   12  C6  UNL     1      20.974   1.750  52.498  1.00  0.00     0.032 A 
HETATM   13  C5  UNL     1      20.894   0.646  53.389  1.00  0.00    -0.071 A 
HETATM   14  C4  UNL     1      21.274   0.251  54.931  1.00  0.00     0.049 A 
HETATM   15  C22 UNL     1      21.003  -0.360  54.112  1.00  0.00     0.033 A 
HETATM   16  C2  UNL     1      21.923  -1.072  54.480  1.00  0.00    -0.030 A 
HETATM   17  C1  UNL     1      21.266  -2.314  54.207  1.00  0.00     0.016 C 
HETATM   18  C3  UNL     1      23.047  -1.379  55.489  1.00  0.00     0.016 C 
HETATM   19  C21 UNL     1      22.511  -0.269  53.358  1.00  0.00     0.007 A 
HETATM   20  C20 UNL     1      22.799   0.715  52.440  1.00  0.00     0.015 A 
ENDBRANCH   8  11
ENDBRANCH   1   7
BRANCH   6  21
HETATM   21  N3  UNL     1      26.502   2.013  51.245  1.00  0.00    -0.370 N 
HETATM   22  H14 UNL     1      26.260   1.086  50.837  1.00  0.00     0.161 HD
BRANCH  21  23
HETATM   23  C14 UNL     1      27.142   1.861  52.537  1.00  0.00     0.160 C 
BRANCH  23  24
HETATM   24  C15 UNL     1      27.630   0.494  52.800  1.00  0.00    -0.038 A 
HETATM   25  C16 UNL     1      28.807   0.018  53.292  1.00  0.00     0.028 A 
HETATM   26  C17 UNL     1      29.037  -1.318  53.462  1.00  0.00     0.116 A 
HETATM   27  N4  UNL     1      28.113  -2.265  53.155  1.00  0.00    -0.273 NA
HETATM   28  C18 UNL     1      26.922  -1.821  52.659  1.00  0.00     0.116 A 
HETATM   29  C19 UNL     1      26.657  -0.461  52.472  1.00  0.00     0.028 A 
ENDBRANCH  23  24
ENDBRANCH  21  23
ENDBRANCH   6  21
TORSDOF 5
ENDMDL
MODEL 2
REMARK VINA RESULT:      -9.2      2.235      5.780
REMARK  5 active torsions:
REMARK  status: ('A' for Active; 'I' for Inactive)
REMARK    1  A    between atoms: C7_7  and  N1_8 
REMARK       I    between atoms: N1_8  and  C8_9 
REMARK    2  A    between atoms: C8_9  and  C9_11 
REMARK    3  A    between atoms: C13_16  and  N3_17 
REMARK    4  A    between atoms: N3_17  and  C14_18 
REMARK    5  A    between atoms: C14_18  and  C15_19 
ROOT
HETATM    1  C9  UNL     1      26.780   1.745  53.672  1.00  0.00     0.077 A 
HETATM    2  C10 UNL     1      28.076   2.187  53.621  1.00  0.00     0.022 A 
HETATM    3  C11 UNL     1      29.075   1.410  54.155  1.00  0.00     0.020 A 
HETATM    4  C12 UNL     1      28.851   0.207  54.741  1.00  0.00     0.119 A 
HETATM    5  N2  UNL     1      27.579  -0.178  54.766  1.00  0.00    -0.243 NA
HETATM    6  C13 UNL     1      26.552   0.527  54.265  1.00  0.00     0.139 A 
ENDROOT
BRANCH   1   7
HETATM    7  C8  UNL     1      25.697   2.509  53.134  1.00  0.00     0.260 C 
HETATM    8  N1  UNL     1      25.794   2.942  51.785  1.00  0.00    -0.323 N 
HETATM    9  H10 UNL     1      26.537   2.805  51.068  1.00  0.00     0.169 HD
HETATM   10  O1  UNL     1      24.591   2.958  53.504  1.00  0.00    -0.267 OA
BRANCH   8  11
HETATM   11  C7  UNL     1      24.758   3.663  51.293  1.00  0.00     0.032 A 
HETATM   12  C6  UNL     1      23.829   4.674  51.074  1.00  0.00     0.032 A 
HETATM   13  C5  UNL     1      22.896   4.401  50.038  1.00  0.00    -0.071 A 
HETATM   14  C4  UNL     1      21.461   3.648  49.811  1.00  0.00     0.049 A 
HETATM   15  C22 UNL     1      22.172   3.997  49.111  1.00  0.00     0.033 A 
HETATM   16  C2  UNL     1      21.988   2.927  48.554  1.00  0.00    -0.030 A 
HETATM   17  C1  UNL     1      22.055   3.440  47.221  1.00  0.00     0.016 C 
HETATM   18  C3  UNL     1      21.241   1.581  48.473  1.00  0.00     0.016 C 
HETATM   19  C21 UNL     1      23.245   2.713  49.343  1.00  0.00     0.007 A 
HETATM   20  C20 UNL     1      24.246   2.773  50.287  1.00  0.00     0.015 A 
ENDBRANCH   8  11
ENDBRANCH   1   7
BRANCH   6  21
HETATM   21  N3  UNL     1      25.285  -0.085  54.403  1.00  0.00    -0.370 N 
HETATM   22  H14 UNL     1      24.810  -0.069  55.330  1.00  0.00     0.161 HD
BRANCH  21  23
HETATM   23  C14 UNL     1      24.478  -0.776  53.417  1.00  0.00     0.160 C 
BRANCH  23  24
HETATM   24  C15 UNL     1      23.107  -0.243  53.294  1.00  0.00    -0.038 A 
HETATM   25  C16 UNL     1      22.484   0.471  52.316  1.00  0.00     0.028 A 
HETATM   26  C17 UNL     1      21.177   0.854  52.416  1.00  0.00     0.116 A 
HETATM   27  N4  UNL     1      20.405   0.553  53.494  1.00  0.00    -0.273 NA
HETATM   28  C18 UNL     1      21.001  -0.161  54.493  1.00  0.00     0.116 A 
HETATM   29  C19 UNL     1      22.336  -0.567  54.419  1.00  0.00     0.028 A 
ENDBRANCH  23  24
ENDBRANCH  21  23
ENDBRANCH   6  21
TORSDOF 5
ENDMDL
MODEL 3
REMARK VINA RESULT:      -8.8      2.530      6.685
REMARK  5 active torsions:
REMARK  status: ('A' for Active; 'I' for Inactive)
REMARK    1  A    between atoms: C7_7  and  N1_8 
REMARK       I    between atoms: N1_8  and  C8_9 
REMARK    2  A    between atoms: C8_9  and  C9_11 
REMARK    3  A    between atoms: C13_16  and  N3_17 
REMARK    4  A    between atoms: N3_17  and  C14_18 
REMARK    5  A    between atoms: C14_18  and  C15_19 
ROOT
HETATM    1  C9  UNL     1      19.462  -0.480  53.180  1.00  0.00     0.077 A 
HETATM    2  C10 UNL     1      18.495  -1.403  53.480  1.00  0.00     0.022 A 
HETATM    3  C11 UNL     1      17.338  -1.434  52.739  1.00  0.00     0.020 A 
HETATM    4  C12 UNL     1      17.092  -0.588  51.706  1.00  0.00     0.119 A 
HETATM    5  N2  UNL     1      18.059   0.289  51.455  1.00  0.00    -0.243 NA
HETATM    6  C13 UNL     1      19.213   0.377  52.135  1.00  0.00     0.139 A 
ENDROOT
BRANCH   1   7
HETATM    7  C8  UNL     1      20.686  -0.398  53.916  1.00  0.00     0.260 C 
HETATM    8  N1  UNL     1      21.820  -1.074  53.396  1.00  0.00    -0.323 N 
HETATM    9  H10 UNL     1      21.948  -1.649  52.537  1.00  0.00     0.169 HD
HETATM   10  O1  UNL     1      21.116   0.128  54.965  1.00  0.00    -0.267 OA
BRANCH   8  11
HETATM   11  C7  UNL     1      22.971  -0.984  54.106  1.00  0.00     0.032 A 
HETATM   12  C6  UNL     1      23.896  -1.003  55.144  1.00  0.00     0.032 A 
HETATM   13  C5  UNL     1      25.224  -0.683  54.754  1.00  0.00    -0.071 A 
HETATM   14  C4  UNL     1      26.181   0.625  54.523  1.00  0.00     0.049 A 
HETATM   15  C22 UNL     1      26.314  -0.384  54.236  1.00  0.00     0.033 A 
HETATM   16  C2  UNL     1      26.672   0.082  53.166  1.00  0.00    -0.030 A 
HETATM   17  C1  UNL     1      27.720  -0.864  52.935  1.00  0.00     0.016 C 
HETATM   18  C3  UNL     1      26.982   1.310  52.287  1.00  0.00     0.016 C 
HETATM   19  C21 UNL     1      25.242  -0.307  52.934  1.00  0.00     0.007 A 
HETATM   20  C20 UNL     1      23.905  -0.598  53.084  1.00  0.00     0.015 A 
ENDBRANCH   8  11
ENDBRANCH   1   7
BRANCH   6  21
HETATM   21  N3  UNL     1      20.095   1.387  51.685  1.00  0.00    -0.370 N 
HETATM   22  H14 UNL     1      19.989   2.356  52.052  1.00  0.00     0.161 HD
BRANCH  21  23
HETATM   23  C14 UNL     1      21.192   1.305  50.741  1.00  0.00     0.160 C 
BRANCH  23  24
HETATM   24  C15 UNL     1      22.337   2.169  51.088  1.00  0.00    -0.038 A 
HETATM   25  C16 UNL     1      22.765   2.697  52.267  1.00  0.00     0.028 A 
HETATM   26  C17 UNL     1      23.884   3.477  52.352  1.00  0.00     0.116 A 
HETATM   27  N4  UNL     1      24.648   3.781  51.270  1.00  0.00    -0.273 NA
HETATM   28  C18 UNL     1      24.246   3.266  50.072  1.00  0.00     0.116 A 
HETATM   29  C19 UNL     1      23.106   2.466  49.953  1.00  0.00     0.028 A 
ENDBRANCH  23  24
ENDBRANCH  21  23
ENDBRANCH   6  21
TORSDOF 5
ENDMDL
MODEL 4
REMARK VINA RESULT:      -8.7      1.825      6.405
REMARK  5 active torsions:
REMARK  status: ('A' for Active; 'I' for Inactive)
REMARK    1  A    between atoms: C7_7  and  N1_8 
REMARK       I    between atoms: N1_8  and  C8_9 
REMARK    2  A    between atoms: C8_9  and  C9_11 
REMARK    3  A    between atoms: C13_16  and  N3_17 
REMARK    4  A    between atoms: N3_17  and  C14_18 
REMARK    5  A    between atoms: C14_18  and  C15_19 
ROOT
HETATM    1  C9  UNL     1      23.424   1.053  52.419  1.00  0.00     0.077 A 
HETATM    2  C10 UNL     1      22.082   1.180  52.171  1.00  0.00     0.022 A 
HETATM    3  C11 UNL     1      21.202   0.301  52.756  1.00  0.00     0.020 A 
HETATM    4  C12 UNL     1      21.590  -0.704  53.581  1.00  0.00     0.119 A 
HETATM    5  N2  UNL     1      22.900  -0.786  53.790  1.00  0.00    -0.243 NA
HETATM    6  C13 UNL     1      23.817   0.035  53.254  1.00  0.00     0.139 A 
ENDROOT
BRANCH   1   7
HETATM    7  C8  UNL     1      24.389   1.935  51.839  1.00  0.00     0.260 C 
HETATM    8  N1  UNL     1      24.129   2.443  50.539  1.00  0.00    -0.323 N 
HETATM    9  H10 UNL     1      23.330   2.294  49.886  1.00  0.00     0.169 HD
HETATM   10  O1  UNL     1      25.487   2.452  52.138  1.00  0.00    -0.267 OA
BRANCH   8  11
HETATM   11  C7  UNL     1      25.054   3.278  50.007  1.00  0.00     0.032 A 
HETATM   12  C6  UNL     1      26.245   3.803  49.520  1.00  0.00     0.032 A 
HETATM   13  C5  UNL     1      26.149   5.138  49.044  1.00  0.00    -0.071 A 
HETATM   14  C4  UNL     1      26.223   6.674  49.602  1.00  0.00     0.049 A 
HETATM   15  C22 UNL     1      25.881   6.295  48.677  1.00  0.00     0.033 A 
HETATM   16  C2  UNL     1      24.945   7.063  48.832  1.00  0.00    -0.030 A 
HETATM   17  C1  UNL     1      24.841   7.450  47.459  1.00  0.00     0.016 C 
HETATM   18  C3  UNL     1      24.253   8.167  49.656  1.00  0.00     0.016 C 
HETATM   19  C21 UNL     1      24.407   5.738  49.285  1.00  0.00     0.007 A 
HETATM   20  C20 UNL     1      24.269   4.461  49.781  1.00  0.00     0.015 A 
ENDBRANCH   8  11
ENDBRANCH   1   7
BRANCH   6  21
HETATM   21  N3  UNL     1      25.154  -0.242  53.623  1.00  0.00    -0.370 N 
HETATM   22  H14 UNL     1      25.569   0.248  54.442  1.00  0.00     0.161 HD
BRANCH  21  23
HETATM   23  C14 UNL     1      26.112  -1.148  53.019  1.00  0.00     0.160 C 
BRANCH  23  24
HETATM   24  C15 UNL     1      27.518  -0.779  53.274  1.00  0.00    -0.038 A 
HETATM   25  C16 UNL     1      28.683  -1.475  53.164  1.00  0.00     0.028 A 
HETATM   26  C17 UNL     1      29.895  -0.912  53.450  1.00  0.00     0.116 A 
HETATM   27  N4  UNL     1      30.026   0.376  53.862  1.00  0.00    -0.273 NA
HETATM   28  C18 UNL     1      28.875   1.101  53.982  1.00  0.00     0.116 A 
HETATM   29  C19 UNL     1      27.621   0.553  53.698  1.00  0.00     0.028 A 
ENDBRANCH  23  24
ENDBRANCH  21  23
ENDBRANCH   6  21
TORSDOF 5
ENDMDL
MODEL 5
REMARK VINA RESULT:      -8.5      2.717      5.847
REMARK  5 active torsions:
REMARK  status: ('A' for Active; 'I' for Inactive)
REMARK    1  A    between atoms: C7_7  and  N1_8 
REMARK       I    between atoms: N1_8  and  C8_9 
REMARK    2  A    between atoms: C8_9  and  C9_11 
REMARK    3  A    between atoms: C13_16  and  N3_17 
REMARK    4  A    between atoms: N3_17  and  C14_18 
REMARK    5  A    between atoms: C14_18  and  C15_19 
ROOT
HETATM    1  C9  UNL     1      25.553   4.938  49.396  1.00  0.00     0.077 A 
HETATM    2  C10 UNL     1      26.823   5.073  48.902  1.00  0.00     0.022 A 
HETATM    3  C11 UNL     1      27.168   6.223  48.233  1.00  0.00     0.020 A 
HETATM    4  C12 UNL     1      26.308   7.253  48.030  1.00  0.00     0.119 A 
HETATM    5  N2  UNL     1      25.089   7.074  48.528  1.00  0.00    -0.243 NA
HETATM    6  C13 UNL     1      24.682   5.980  49.191  1.00  0.00     0.139 A 
ENDROOT
BRANCH   1   7
HETATM    7  C8  UNL     1      25.134   3.765  50.100  1.00  0.00     0.260 C 
HETATM    8  N1  UNL     1      25.781   3.459  51.326  1.00  0.00    -0.323 N 
HETATM    9  H10 UNL     1      26.541   3.946  51.846  1.00  0.00     0.169 HD
HETATM   10  O1  UNL     1      24.304   2.839  49.970  1.00  0.00    -0.267 OA
BRANCH   8  11
HETATM   11  C7  UNL     1      25.371   2.344  51.978  1.00  0.00     0.032 A 
HETATM   12  C6  UNL     1      24.604   1.428  52.688  1.00  0.00     0.032 A 
HETATM   13  C5  UNL     1      25.253   0.190  52.944  1.00  0.00    -0.071 A 
HETATM   14  C4  UNL     1      26.266  -0.491  54.034  1.00  0.00     0.049 A 
HETATM   15  C22 UNL     1      25.970  -0.818  53.073  1.00  0.00     0.033 A 
HETATM   16  C2  UNL     1      27.153  -1.071  52.914  1.00  0.00    -0.030 A 
HETATM   17  C1  UNL     1      26.948  -2.283  52.182  1.00  0.00     0.016 C 
HETATM   18  C3  UNL     1      28.588  -1.131  53.474  1.00  0.00     0.016 C 
HETATM   19  C21 UNL     1      26.972   0.256  52.239  1.00  0.00     0.007 A 
HETATM   20  C20 UNL     1      26.536   1.509  51.872  1.00  0.00     0.015 A 
ENDBRANCH   8  11
ENDBRANCH   1   7
BRANCH   6  21
HETATM   21  N3  UNL     1      23.338   6.015  49.632  1.00  0.00    -0.370 N 
HETATM   22  H14 UNL     1      23.115   6.446  50.553  1.00  0.00     0.161 HD
BRANCH  21  23
HETATM   23  C14 UNL     1      22.138   5.524  48.984  1.00  0.00     0.160 C 
BRANCH  23  24
HETATM   24  C15 UNL     1      21.173   4.907  49.914  1.00  0.00    -0.038 A 
HETATM   25  C16 UNL     1      19.854   4.592  49.793  1.00  0.00     0.028 A 
HETATM   26  C17 UNL     1      19.151   4.003  50.805  1.00  0.00     0.116 A 
HETATM   27  N4  UNL     1      19.713   3.688  52.002  1.00  0.00    -0.273 NA
HETATM   28  C18 UNL     1      21.036   3.991  52.155  1.00  0.00     0.116 A 
HETATM   29  C19 UNL     1      21.781   4.595  51.138  1.00  0.00     0.028 A 
ENDBRANCH  23  24
ENDBRANCH  21  23
ENDBRANCH   6  21
TORSDOF 5
ENDMDL
MODEL 6
REMARK VINA RESULT:      -8.4      2.173      5.374
REMARK  5 active torsions:
REMARK  status: ('A' for Active; 'I' for Inactive)
REMARK    1  A    between atoms: C7_7  and  N1_8 
REMARK       I    between atoms: N1_8  and  C8_9 
REMARK    2  A    between atoms: C8_9  and  C9_11 
REMARK    3  A    between atoms: C13_16  and  N3_17 
REMARK    4  A    between atoms: N3_17  and  C14_18 
REMARK    5  A    between atoms: C14_18  and  C15_19 
ROOT
HETATM    1  C9  UNL     1      23.987   4.699  50.480  1.00  0.00     0.077 A 
HETATM    2  C10 UNL     1      24.973   5.059  49.598  1.00  0.00     0.022 A 
HETATM    3  C11 UNL     1      24.721   6.040  48.669  1.00  0.00     0.020 A 
HETATM    4  C12 UNL     1      23.532   6.686  48.571  1.00  0.00     0.119 A 
HETATM    5  N2  UNL     1      22.609   6.302  49.447  1.00  0.00    -0.243 NA
HETATM    6  C13 UNL     1      22.783   5.353  50.381  1.00  0.00     0.139 A 
ENDROOT
BRANCH   1   7
HETATM    7  C8  UNL     1      24.189   3.685  51.468  1.00  0.00     0.260 C 
HETATM    8  N1  UNL     1      24.648   2.415  51.034  1.00  0.00    -0.323 N 
HETATM    9  H10 UNL     1      24.883   2.052  50.085  1.00  0.00     0.169 HD
HETATM   10  O1  UNL     1      24.081   3.547  52.706  1.00  0.00    -0.267 OA
BRANCH   8  11
HETATM   11  C7  UNL     1      24.833   1.467  51.985  1.00  0.00     0.032 A 
HETATM   12  C6  UNL     1      24.610   0.532  52.989  1.00  0.00     0.032 A 
HETATM   13  C5  UNL     1      25.782  -0.123  53.454  1.00  0.00    -0.071 A 
HETATM   14  C4  UNL     1      26.989   0.089  54.539  1.00  0.00     0.049 A 
HETATM   15  C22 UNL     1      26.901  -0.588  53.733  1.00  0.00     0.033 A 
HETATM   16  C2  UNL     1      28.057  -0.281  53.491  1.00  0.00    -0.030 A 
HETATM   17  C1  UNL     1      28.482  -1.592  53.109  1.00  0.00     0.016 C 
HETATM   18  C3  UNL     1      29.330   0.506  53.861  1.00  0.00     0.016 C 
HETATM   19  C21 UNL     1      27.252   0.556  52.542  1.00  0.00     0.007 A 
HETATM   20  C20 UNL     1      26.260   1.295  51.938  1.00  0.00     0.015 A 
ENDBRANCH   8  11
ENDBRANCH   1   7
BRANCH   6  21
HETATM   21  N3  UNL     1      21.659   5.114  51.205  1.00  0.00    -0.370 N 
HETATM   22  H14 UNL     1      21.587   5.603  52.122  1.00  0.00     0.161 HD
BRANCH  21  23
HETATM   23  C14 UNL     1      20.516   4.251  50.984  1.00  0.00     0.160 C 
BRANCH  23  24
HETATM   24  C15 UNL     1      20.734   2.856  51.415  1.00  0.00    -0.038 A 
HETATM   25  C16 UNL     1      20.656   2.249  52.631  1.00  0.00     0.028 A 
HETATM   26  C17 UNL     1      20.896   0.913  52.793  1.00  0.00     0.116 A 
HETATM   27  N4  UNL     1      21.228   0.098  51.759  1.00  0.00    -0.273 NA
HETATM   28  C18 UNL     1      21.315   0.677  50.526  1.00  0.00     0.116 A 
HETATM   29  C19 UNL     1      21.076   2.040  50.328  1.00  0.00     0.028 A 
ENDBRANCH  23  24
ENDBRANCH  21  23
ENDBRANCH   6  21
TORSDOF 5
ENDMDL
MODEL 7
REMARK VINA RESULT:      -8.4      4.667      8.438
REMARK  5 active torsions:
REMARK  status: ('A' for Active; 'I' for Inactive)
REMARK    1  A    between atoms: C7_7  and  N1_8 
REMARK       I    between atoms: N1_8  and  C8_9 
REMARK    2  A    between atoms: C8_9  and  C9_11 
REMARK    3  A    between atoms: C13_16  and  N3_17 
REMARK    4  A    between atoms: N3_17  and  C14_18 
REMARK    5  A    between atoms: C14_18  and  C15_19 
ROOT
HETATM    1  C9  UNL     1      30.392   5.792  48.179  1.00  0.00     0.077 A 
HETATM    2  C10 UNL     1      30.962   4.722  47.542  1.00  0.00     0.022 A 
HETATM    3  C11 UNL     1      32.325   4.553  47.595  1.00  0.00     0.020 A 
HETATM    4  C12 UNL     1      33.156   5.401  48.254  1.00  0.00     0.119 A 
HETATM    5  N2  UNL     1      32.555   6.422  48.856  1.00  0.00    -0.243 NA
HETATM    6  C13 UNL     1      31.232   6.650  48.847  1.00  0.00     0.139 A 
ENDROOT
BRANCH   1   7
HETATM    7  C8  UNL     1      28.980   6.021  48.159  1.00  0.00     0.260 C 
HETATM    8  N1  UNL     1      28.155   5.151  48.919  1.00  0.00    -0.323 N 
HETATM    9  H10 UNL     1      28.384   4.334  49.523  1.00  0.00     0.169 HD
HETATM   10  O1  UNL     1      28.165   6.816  47.642  1.00  0.00    -0.267 OA
BRANCH   8  11
HETATM   11  C7  UNL     1      26.820   5.384  48.888  1.00  0.00     0.032 A 
HETATM   12  C6  UNL     1      25.583   6.003  48.751  1.00  0.00     0.032 A 
HETATM   13  C5  UNL     1      24.470   5.153  48.992  1.00  0.00    -0.071 A 
HETATM   14  C4  UNL     1      23.556   4.608  50.235  1.00  0.00     0.049 A 
HETATM   15  C22 UNL     1      23.626   4.273  49.235  1.00  0.00     0.033 A 
HETATM   16  C2  UNL     1      23.650   3.156  49.727  1.00  0.00    -0.030 A 
HETATM   17  C1  UNL     1      22.847   2.534  48.720  1.00  0.00     0.016 C 
HETATM   18  C3  UNL     1      23.581   2.248  50.971  1.00  0.00     0.016 C 
HETATM   19  C21 UNL     1      25.092   3.465  49.456  1.00  0.00     0.007 A 
HETATM   20  C20 UNL     1      26.299   4.095  49.256  1.00  0.00     0.015 A 
ENDBRANCH   8  11
ENDBRANCH   1   7
BRANCH   6  21
HETATM   21  N3  UNL     1      30.820   7.800  49.559  1.00  0.00    -0.370 N 
HETATM   22  H14 UNL     1      30.051   7.719  50.256  1.00  0.00     0.161 HD
BRANCH  21  23
HETATM   23  C14 UNL     1      31.312   9.161  49.484  1.00  0.00     0.160 C 
BRANCH  23  24
HETATM   24  C15 UNL     1      30.250  10.165  49.278  1.00  0.00    -0.038 A 
HETATM   25  C16 UNL     1      30.287  11.491  48.973  1.00  0.00     0.028 A 
HETATM   26  C17 UNL     1      29.151  12.234  48.817  1.00  0.00     0.116 A 
HETATM   27  N4  UNL     1      27.906  11.706  48.954  1.00  0.00    -0.273 NA
HETATM   28  C18 UNL     1      27.835  10.377  49.260  1.00  0.00     0.116 A 
HETATM   29  C19 UNL     1      28.979   9.592  49.426  1.00  0.00     0.028 A 
ENDBRANCH  23  24
ENDBRANCH  21  23
ENDBRANCH   6  21
TORSDOF 5
ENDMDL
MODEL 8
REMARK VINA RESULT:      -8.1      2.707      5.932
REMARK  5 active torsions:
REMARK  status: ('A' for Active; 'I' for Inactive)
REMARK    1  A    between atoms: C7_7  and  N1_8 
REMARK       I    between atoms: N1_8  and  C8_9 
REMARK    2  A    between atoms: C8_9  and  C9_11 
REMARK    3  A    between atoms: C13_16  and  N3_17 
REMARK    4  A    between atoms: N3_17  and  C14_18 
REMARK    5  A    between atoms: C14_18  and  C15_19 
ROOT
HETATM    1  C9  UNL     1      22.615   0.848  53.145  1.00  0.00     0.077 A 
HETATM    2  C10 UNL     1      21.397   0.397  53.581  1.00  0.00     0.022 A 
HETATM    3  C11 UNL     1      21.342  -0.677  54.437  1.00  0.00     0.020 A 
HETATM    4  C12 UNL     1      22.444  -1.330  54.885  1.00  0.00     0.119 A 
HETATM    5  N2  UNL     1      23.601  -0.854  54.435  1.00  0.00    -0.243 NA
HETATM    6  C13 UNL     1      23.731   0.188  53.599  1.00  0.00     0.139 A 
ENDROOT
BRANCH   1   7
HETATM    7  C8  UNL     1      22.737   1.960  52.254  1.00  0.00     0.260 C 
HETATM    8  N1  UNL     1      23.175   1.705  50.928  1.00  0.00    -0.323 N 
HETATM    9  H10 UNL     1      23.439   0.819  50.447  1.00  0.00     0.169 HD
HETATM   10  O1  UNL     1      22.564   3.198  52.269  1.00  0.00    -0.267 OA
BRANCH   8  11
HETATM   11  C7  UNL     1      23.283   2.770  50.099  1.00  0.00     0.032 A 
HETATM   12  C6  UNL     1      23.680   3.974  49.528  1.00  0.00     0.032 A 
HETATM   13  C5  UNL     1      23.018   4.296  48.313  1.00  0.00    -0.071 A 
HETATM   14  C4  UNL     1      21.646   5.016  47.787  1.00  0.00     0.049 A 
HETATM   15  C22 UNL     1      22.345   4.413  47.274  1.00  0.00     0.033 A 
HETATM   16  C2  UNL     1      21.362   3.861  46.807  1.00  0.00    -0.030 A 
HETATM   17  C1  UNL     1      21.902   3.682  45.494  1.00  0.00     0.016 C 
HETATM   18  C3  UNL     1      19.829   3.764  46.671  1.00  0.00     0.016 C 
HETATM   19  C21 UNL     1      21.788   2.958  47.926  1.00  0.00     0.007 A 
HETATM   20  C20 UNL     1      22.308   2.447  49.093  1.00  0.00     0.015 A 
ENDBRANCH   8  11
ENDBRANCH   1   7
BRANCH   6  21
HETATM   21  N3  UNL     1      25.064   0.516  53.258  1.00  0.00    -0.370 N 
HETATM   22  H14 UNL     1      25.489   1.385  53.643  1.00  0.00     0.161 HD
BRANCH  21  23
HETATM   23  C14 UNL     1      26.003  -0.191  52.410  1.00  0.00     0.160 C 
BRANCH  23  24
HETATM   24  C15 UNL     1      27.397  -0.136  52.894  1.00  0.00    -0.038 A 
HETATM   25  C16 UNL     1      28.192   0.898  53.282  1.00  0.00     0.028 A 
HETATM   26  C17 UNL     1      29.475   0.706  53.713  1.00  0.00     0.116 A 
HETATM   27  N4  UNL     1      30.047  -0.524  53.785  1.00  0.00    -0.273 NA
HETATM   28  C18 UNL     1      29.275  -1.582  53.402  1.00  0.00     0.116 A 
HETATM   29  C19 UNL     1      27.960  -1.417  52.956  1.00  0.00     0.028 A 
ENDBRANCH  23  24
ENDBRANCH  21  23
ENDBRANCH   6  21
TORSDOF 5
ENDMDL
MODEL 9
REMARK VINA RESULT:      -8.0      2.420      5.857
REMARK  5 active torsions:
REMARK  status: ('A' for Active; 'I' for Inactive)
REMARK    1  A    between atoms: C7_7  and  N1_8 
REMARK       I    between atoms: N1_8  and  C8_9 
REMARK    2  A    between atoms: C8_9  and  C9_11 
REMARK    3  A    between atoms: C13_16  and  N3_17 
REMARK    4  A    between atoms: N3_17  and  C14_18 
REMARK    5  A    between atoms: C14_18  and  C15_19 
ROOT
HETATM    1  C9  UNL     1      22.595   0.280  53.177  1.00  0.00     0.077 A 
HETATM    2  C10 UNL     1      21.564  -0.318  53.853  1.00  0.00     0.022 A 
HETATM    3  C11 UNL     1      21.842  -1.135  54.922  1.00  0.00     0.020 A 
HETATM    4  C12 UNL     1      23.102  -1.391  55.357  1.00  0.00     0.119 A 
HETATM    5  N2  UNL     1      24.067  -0.788  54.670  1.00  0.00    -0.243 NA
HETATM    6  C13 UNL     1      23.871   0.022  53.618  1.00  0.00     0.139 A 
ENDROOT
BRANCH   1   7
HETATM    7  C8  UNL     1      22.370   1.141  52.057  1.00  0.00     0.260 C 
HETATM    8  N1  UNL     1      21.503   2.250  52.235  1.00  0.00    -0.323 N 
HETATM    9  H10 UNL     1      20.969   2.583  53.066  1.00  0.00     0.169 HD
HETATM   10  O1  UNL     1      22.726   1.238  50.863  1.00  0.00    -0.267 OA
BRANCH   8  11
HETATM   11  C7  UNL     1      21.302   3.054  51.163  1.00  0.00     0.032 A 
HETATM   12  C6  UNL     1      20.954   3.524  49.902  1.00  0.00     0.032 A 
HETATM   13  C5  UNL     1      21.190   4.911  49.704  1.00  0.00    -0.071 A 
HETATM   14  C4  UNL     1      22.394   5.924  49.255  1.00  0.00     0.049 A 
HETATM   15  C22 UNL     1      21.462   6.124  49.711  1.00  0.00     0.033 A 
HETATM   16  C2  UNL     1      22.100   6.869  50.437  1.00  0.00    -0.030 A 
HETATM   17  C1  UNL     1      21.108   7.898  50.502  1.00  0.00     0.016 C 
HETATM   18  C3  UNL     1      23.441   7.524  50.823  1.00  0.00     0.016 C 
HETATM   19  C21 UNL     1      21.941   5.619  51.250  1.00  0.00     0.007 A 
HETATM   20  C20 UNL     1      21.785   4.314  51.660  1.00  0.00     0.015 A 
ENDBRANCH   8  11
ENDBRANCH   1   7
BRANCH   6  21
HETATM   21  N3  UNL     1      25.051   0.552  53.046  1.00  0.00    -0.370 N 
HETATM   22  H14 UNL     1      25.295   1.550  53.215  1.00  0.00     0.161 HD
BRANCH  21  23
HETATM   23  C14 UNL     1      26.044  -0.091  52.208  1.00  0.00     0.160 C 
BRANCH  23  24
HETATM   24  C15 UNL     1      27.396  -0.110  52.801  1.00  0.00    -0.038 A 
HETATM   25  C16 UNL     1      28.201   0.876  53.282  1.00  0.00     0.028 A 
HETATM   26  C17 UNL     1      29.436   0.616  53.805  1.00  0.00     0.116 A 
HETATM   27  N4  UNL     1      29.949  -0.640  53.883  1.00  0.00    -0.273 NA
HETATM   28  C18 UNL     1      29.166  -1.652  53.407  1.00  0.00     0.116 A 
HETATM   29  C19 UNL     1      27.899  -1.417  52.866  1.00  0.00     0.028 A 
ENDBRANCH  23  24
ENDBRANCH  21  23
ENDBRANCH   6  21
TORSDOF 5
ENDMDL
