MODEL 1
REMARK VINA RESULT:      -8.2      0.000      0.000
REMARK  2 active torsions:
REMARK  status: ('A' for Active; 'I' for Inactive)
REMARK    1  A    between atoms: C10_13  and  N3_14 
REMARK    2  A    between atoms: N3_14  and  C11_15 
ROOT
HETATM    1  N1  UNL     1      28.127   2.109  52.691  1.00  0.00    -0.191 NA
HETATM    2  C1  UNL     1      27.225   1.481  53.112  1.00  0.00     0.103 C 
HETATM    3  C2  UNL     1      26.134   0.718  53.630  1.00  0.00     0.089 A 
HETATM    4  C3  UNL     1      26.315  -0.053  54.760  1.00  0.00     0.142 A 
HETATM    5  N2  UNL     1      25.304  -0.776  55.268  1.00  0.00    -0.259 NA
HETATM    6  C4  UNL     1      24.085  -0.772  54.693  1.00  0.00     0.069 A 
HETATM    7  C5  UNL     1      23.031  -1.512  55.211  1.00  0.00     0.035 A 
HETATM    8  C6  UNL     1      21.780  -1.502  54.625  1.00  0.00     0.044 A 
HETATM    9  C7  UNL     1      21.658  -0.715  53.504  1.00  0.00     0.117 A 
HETATM   10  F1  UNL     1      20.419  -0.701  52.919  1.00  0.00    -0.206 F 
HETATM   11  C8  UNL     1      22.639   0.050  52.915  1.00  0.00     0.058 A 
HETATM   12  C9  UNL     1      23.873  -0.005  53.552  1.00  0.00     0.024 A 
HETATM   13  C10 UNL     1      24.887   0.763  52.983  1.00  0.00     0.067 A 
ENDROOT
BRANCH  13  14
HETATM   14  N3  UNL     1      24.808   1.570  51.840  1.00  0.00    -0.363 N 
HETATM   15  H5  UNL     1      25.134   1.083  50.955  1.00  0.00     0.165 HD
BRANCH  14  16
HETATM   16  C11 UNL     1      24.351   2.912  51.773  1.00  0.00     0.096 C 
HETATM   17  C12 UNL     1      24.764   3.847  50.892  1.00  0.00    -0.036 C 
HETATM   18  C13 UNL     1      24.107   5.135  51.072  1.00  0.00     0.032 C 
HETATM   19  C16 UNL     1      25.800   3.282  50.000  1.00  0.00     0.083 C 
HETATM   20  C14 UNL     1      24.617   6.249  50.527  1.00  0.00     0.035 C 
HETATM   21 CL1  UNL     1      23.896   7.858  50.698  1.00  0.00    -0.084 Cl
HETATM   22  C15 UNL     1      25.796   6.207  49.643  1.00  0.00     0.035 C 
HETATM   23  P1  UNL     1      26.583   4.803  49.230  1.00  0.00    -0.055 P 
ENDBRANCH  14  16
ENDBRANCH  13  14
TORSDOF 2
ENDMDL
MODEL 2
REMARK VINA RESULT:      -8.2      3.800      6.203
REMARK  2 active torsions:
REMARK  status: ('A' for Active; 'I' for Inactive)
REMARK    1  A    between atoms: C10_13  and  N3_14 
REMARK    2  A    between atoms: N3_14  and  C11_15 
ROOT
HETATM    1  N1  UNL     1      21.564  -1.324  54.958  1.00  0.00    -0.191 NA
HETATM    2  C1  UNL     1      21.648  -0.723  53.949  1.00  0.00     0.103 C 
HETATM    3  C2  UNL     1      21.743   0.004  52.723  1.00  0.00     0.089 A 
HETATM    4  C3  UNL     1      20.700  -0.038  51.821  1.00  0.00     0.142 A 
HETATM    5  N2  UNL     1      20.764   0.641  50.665  1.00  0.00    -0.259 NA
HETATM    6  C4  UNL     1      21.844   1.383  50.349  1.00  0.00     0.069 A 
HETATM    7  C5  UNL     1      21.920   2.091  49.157  1.00  0.00     0.035 A 
HETATM    8  C6  UNL     1      23.025   2.856  48.838  1.00  0.00     0.044 A 
HETATM    9  C7  UNL     1      24.032   2.862  49.774  1.00  0.00     0.117 A 
HETATM   10  F1  UNL     1      25.130   3.620  49.462  1.00  0.00    -0.206 F 
HETATM   11  C8  UNL     1      24.052   2.194  50.978  1.00  0.00     0.058 A 
HETATM   12  C9  UNL     1      22.912   1.443  51.238  1.00  0.00     0.024 A 
HETATM   13  C10 UNL     1      22.898   0.758  52.452  1.00  0.00     0.067 A 
ENDROOT
BRANCH  13  14
HETATM   14  N3  UNL     1      23.904   0.730  53.428  1.00  0.00    -0.363 N 
HETATM   15  H5  UNL     1      23.760   1.441  54.203  1.00  0.00     0.165 HD
BRANCH  14  16
HETATM   16  C11 UNL     1      25.037  -0.124  53.462  1.00  0.00     0.096 C 
HETATM   17  C12 UNL     1      26.313   0.261  53.668  1.00  0.00    -0.036 C 
HETATM   18  C13 UNL     1      27.258  -0.848  53.649  1.00  0.00     0.032 C 
HETATM   19  C16 UNL     1      26.381   1.729  53.833  1.00  0.00     0.083 C 
HETATM   20  C14 UNL     1      28.572  -0.631  53.502  1.00  0.00     0.035 C 
HETATM   21 CL1  UNL     1      29.794  -1.913  53.458  1.00  0.00    -0.084 Cl
HETATM   22  C15 UNL     1      29.129   0.734  53.458  1.00  0.00     0.035 C 
HETATM   23  P1  UNL     1      28.204   2.107  53.599  1.00  0.00    -0.055 P 
ENDBRANCH  14  16
ENDBRANCH  13  14
TORSDOF 2
ENDMDL
MODEL 3
REMARK VINA RESULT:      -7.8      2.283      3.912
REMARK  2 active torsions:
REMARK  status: ('A' for Active; 'I' for Inactive)
REMARK    1  A    between atoms: C10_13  and  N3_14 
REMARK    2  A    between atoms: N3_14  and  C11_15 
ROOT
HETATM    1  N1  UNL     1      21.513  -0.346  52.523  1.00  0.00    -0.191 NA
HETATM    2  C1  UNL     1      22.606  -0.220  52.940  1.00  0.00     0.103 C 
HETATM    3  C2  UNL     1      23.932  -0.073  53.451  1.00  0.00     0.089 A 
HETATM    4  C3  UNL     1      24.347  -0.855  54.509  1.00  0.00     0.142 A 
HETATM    5  N2  UNL     1      25.590  -0.739  55.003  1.00  0.00    -0.259 NA
HETATM    6  C4  UNL     1      26.469   0.141  54.484  1.00  0.00     0.069 A 
HETATM    7  C5  UNL     1      27.758   0.268  54.984  1.00  0.00     0.035 A 
HETATM    8  C6  UNL     1      28.659   1.165  54.447  1.00  0.00     0.044 A 
HETATM    9  C7  UNL     1      28.192   1.916  53.393  1.00  0.00     0.117 A 
HETATM   10  F1  UNL     1      29.083   2.807  52.856  1.00  0.00    -0.206 F 
HETATM   11  C8  UNL     1      26.937   1.865  52.829  1.00  0.00     0.058 A 
HETATM   12  C9  UNL     1      26.078   0.943  53.417  1.00  0.00     0.024 A 
HETATM   13  C10 UNL     1      24.801   0.864  52.865  1.00  0.00     0.067 A 
ENDROOT
BRANCH  13  14
HETATM   14  N3  UNL     1      24.283   1.614  51.800  1.00  0.00    -0.363 N 
HETATM   15  H5  UNL     1      24.146   1.048  50.913  1.00  0.00     0.165 HD
BRANCH  14  16
HETATM   16  C11 UNL     1      23.944   2.992  51.812  1.00  0.00     0.096 C 
HETATM   17  C12 UNL     1      24.410   3.930  50.962  1.00  0.00    -0.036 C 
HETATM   18  C13 UNL     1      23.877   5.260  51.225  1.00  0.00     0.032 C 
HETATM   19  C16 UNL     1      25.364   3.322  50.009  1.00  0.00     0.083 C 
HETATM   20  C14 UNL     1      24.465   6.351  50.715  1.00  0.00     0.035 C 
HETATM   21 CL1  UNL     1      23.895   8.006  50.987  1.00  0.00    -0.084 Cl
HETATM   22  C15 UNL     1      25.608   6.251  49.788  1.00  0.00     0.035 C 
HETATM   23  P1  UNL     1      26.254   4.806  49.282  1.00  0.00    -0.055 P 
ENDBRANCH  14  16
ENDBRANCH  13  14
TORSDOF 2
ENDMDL
MODEL 4
REMARK VINA RESULT:      -7.8      3.328      4.787
REMARK  2 active torsions:
REMARK  status: ('A' for Active; 'I' for Inactive)
REMARK    1  A    between atoms: C10_13  and  N3_14 
REMARK    2  A    between atoms: N3_14  and  C11_15 
ROOT
HETATM    1  N1  UNL     1      21.433   0.346  53.081  1.00  0.00    -0.191 NA
HETATM    2  C1  UNL     1      22.576   0.312  53.362  1.00  0.00     0.103 C 
HETATM    3  C2  UNL     1      23.962   0.262  53.705  1.00  0.00     0.089 A 
HETATM    4  C3  UNL     1      24.452  -0.816  54.413  1.00  0.00     0.142 A 
HETATM    5  N2  UNL     1      25.752  -0.887  54.743  1.00  0.00    -0.259 NA
HETATM    6  C4  UNL     1      26.615   0.088  54.395  1.00  0.00     0.069 A 
HETATM    7  C5  UNL     1      27.962   0.023  54.727  1.00  0.00     0.035 A 
HETATM    8  C6  UNL     1      28.847   1.019  54.364  1.00  0.00     0.044 A 
HETATM    9  C7  UNL     1      28.303   2.067  53.659  1.00  0.00     0.117 A 
HETATM   10  F1  UNL     1      29.177   3.057  53.296  1.00  0.00    -0.206 F 
HETATM   11  C8  UNL     1      26.987   2.222  53.284  1.00  0.00     0.058 A 
HETATM   12  C9  UNL     1      26.149   1.187  53.681  1.00  0.00     0.024 A 
HETATM   13  C10 UNL     1      24.810   1.312  53.313  1.00  0.00     0.067 A 
ENDROOT
BRANCH  13  14
HETATM   14  N3  UNL     1      24.215   2.364  52.604  1.00  0.00    -0.363 N 
HETATM   15  H5  UNL     1      23.884   3.158  53.225  1.00  0.00     0.165 HD
BRANCH  14  16
HETATM   16  C11 UNL     1      24.028   2.448  51.200  1.00  0.00     0.096 C 
HETATM   17  C12 UNL     1      23.055   3.136  50.570  1.00  0.00    -0.036 C 
HETATM   18  C13 UNL     1      23.126   3.033  49.118  1.00  0.00     0.032 C 
HETATM   19  C16 UNL     1      22.170   3.787  51.560  1.00  0.00     0.083 C 
HETATM   20  C14 UNL     1      22.076   3.362  48.352  1.00  0.00     0.035 C 
HETATM   21 CL1  UNL     1      22.064   3.260  46.583  1.00  0.00    -0.084 Cl
HETATM   22  C15 UNL     1      20.846   3.935  48.931  1.00  0.00     0.035 C 
HETATM   23  P1  UNL     1      20.652   4.240  50.553  1.00  0.00    -0.055 P 
ENDBRANCH  14  16
ENDBRANCH  13  14
TORSDOF 2
ENDMDL
MODEL 5
REMARK VINA RESULT:      -7.7      1.775      2.447
REMARK  2 active torsions:
REMARK  status: ('A' for Active; 'I' for Inactive)
REMARK    1  A    between atoms: C10_13  and  N3_14 
REMARK    2  A    between atoms: N3_14  and  C11_15 
ROOT
HETATM    1  N1  UNL     1      26.592  -0.199  54.611  1.00  0.00    -0.191 NA
HETATM    2  C1  UNL     1      25.438  -0.399  54.507  1.00  0.00     0.103 C 
HETATM    3  C2  UNL     1      24.035  -0.646  54.388  1.00  0.00     0.089 A 
HETATM    4  C3  UNL     1      23.415  -1.504  55.273  1.00  0.00     0.142 A 
HETATM    5  N2  UNL     1      22.098  -1.748  55.183  1.00  0.00    -0.259 NA
HETATM    6  C4  UNL     1      21.342  -1.166  54.230  1.00  0.00     0.069 A 
HETATM    7  C5  UNL     1      19.979  -1.409  54.131  1.00  0.00     0.035 A 
HETATM    8  C6  UNL     1      19.205  -0.807  53.158  1.00  0.00     0.044 A 
HETATM    9  C7  UNL     1      19.876   0.038  52.305  1.00  0.00     0.117 A 
HETATM   10  F1  UNL     1      19.112   0.638  51.339  1.00  0.00    -0.206 F 
HETATM   11  C8  UNL     1      21.219   0.340  52.322  1.00  0.00     0.058 A 
HETATM   12  C9  UNL     1      21.941  -0.298  53.324  1.00  0.00     0.024 A 
HETATM   13  C10 UNL     1      23.304  -0.010  53.370  1.00  0.00     0.067 A 
ENDROOT
BRANCH  13  14
HETATM   14  N3  UNL     1      24.026   0.837  52.518  1.00  0.00    -0.363 N 
HETATM   15  H5  UNL     1      24.602   0.316  51.794  1.00  0.00     0.165 HD
BRANCH  14  16
HETATM   16  C11 UNL     1      24.050   2.255  52.544  1.00  0.00     0.096 C 
HETATM   17  C12 UNL     1      23.684   3.073  51.536  1.00  0.00    -0.036 C 
HETATM   18  C13 UNL     1      23.817   4.486  51.864  1.00  0.00     0.032 C 
HETATM   19  C16 UNL     1      23.269   2.275  50.361  1.00  0.00     0.083 C 
HETATM   20  C14 UNL     1      23.823   5.419  50.901  1.00  0.00     0.035 C 
HETATM   21 CL1  UNL     1      23.989   7.157  51.202  1.00  0.00    -0.084 Cl
HETATM   22  C15 UNL     1      23.594   5.071  49.487  1.00  0.00     0.035 C 
HETATM   23  P1  UNL     1      23.295   3.523  48.960  1.00  0.00    -0.055 P 
ENDBRANCH  14  16
ENDBRANCH  13  14
TORSDOF 2
ENDMDL
MODEL 6
REMARK VINA RESULT:      -7.7      2.843      4.252
REMARK  2 active torsions:
REMARK  status: ('A' for Active; 'I' for Inactive)
REMARK    1  A    between atoms: C10_13  and  N3_14 
REMARK    2  A    between atoms: N3_14  and  C11_15 
ROOT
HETATM    1  N1  UNL     1      21.011  -1.604  54.581  1.00  0.00    -0.191 NA
HETATM    2  C1  UNL     1      22.128  -1.238  54.525  1.00  0.00     0.103 C 
HETATM    3  C2  UNL     1      23.487  -0.799  54.463  1.00  0.00     0.089 A 
HETATM    4  C3  UNL     1      24.406  -1.291  55.367  1.00  0.00     0.142 A 
HETATM    5  N2  UNL     1      25.688  -0.897  55.326  1.00  0.00    -0.259 NA
HETATM    6  C4  UNL     1      26.118  -0.012  54.404  1.00  0.00     0.069 A 
HETATM    7  C5  UNL     1      27.443   0.400  54.350  1.00  0.00     0.035 A 
HETATM    8  C6  UNL     1      27.883   1.302  53.401  1.00  0.00     0.044 A 
HETATM    9  C7  UNL     1      26.924   1.757  52.526  1.00  0.00     0.117 A 
HETATM   10  F1  UNL     1      27.356   2.651  51.583  1.00  0.00    -0.206 F 
HETATM   11  C8  UNL     1      25.592   1.411  52.500  1.00  0.00     0.058 A 
HETATM   12  C9  UNL     1      25.214   0.502  53.481  1.00  0.00     0.024 A 
HETATM   13  C10 UNL     1      23.871   0.128  53.479  1.00  0.00     0.067 A 
ENDROOT
BRANCH  13  14
HETATM   14  N3  UNL     1      22.862   0.572  52.613  1.00  0.00    -0.363 N 
HETATM   15  H5  UNL     1      22.455  -0.199  52.008  1.00  0.00     0.165 HD
BRANCH  14  16
HETATM   16  C11 UNL     1      22.369   1.896  52.487  1.00  0.00     0.096 C 
HETATM   17  C12 UNL     1      22.192   2.570  51.331  1.00  0.00    -0.036 C 
HETATM   18  C13 UNL     1      21.666   3.914  51.524  1.00  0.00     0.032 C 
HETATM   19  C16 UNL     1      22.617   1.734  50.187  1.00  0.00     0.083 C 
HETATM   20  C14 UNL     1      21.742   4.830  50.548  1.00  0.00     0.035 C 
HETATM   21 CL1  UNL     1      21.139   6.490  50.693  1.00  0.00    -0.084 Cl
HETATM   22  C15 UNL     1      22.262   4.492  49.210  1.00  0.00     0.035 C 
HETATM   23  P1  UNL     1      22.779   2.971  48.785  1.00  0.00    -0.055 P 
ENDBRANCH  14  16
ENDBRANCH  13  14
TORSDOF 2
ENDMDL
MODEL 7
REMARK VINA RESULT:      -7.6      2.505      2.622
REMARK  2 active torsions:
REMARK  status: ('A' for Active; 'I' for Inactive)
REMARK    1  A    between atoms: C10_13  and  N3_14 
REMARK    2  A    between atoms: N3_14  and  C11_15 
ROOT
HETATM    1  N1  UNL     1      27.056   2.764  51.044  1.00  0.00    -0.191 NA
HETATM    2  C1  UNL     1      26.333   2.073  51.663  1.00  0.00     0.103 C 
HETATM    3  C2  UNL     1      25.461   1.231  52.419  1.00  0.00     0.089 A 
HETATM    4  C3  UNL     1      25.986   0.190  53.156  1.00  0.00     0.142 A 
HETATM    5  N2  UNL     1      25.187  -0.612  53.878  1.00  0.00    -0.259 NA
HETATM    6  C4  UNL     1      23.852  -0.428  53.904  1.00  0.00     0.069 A 
HETATM    7  C5  UNL     1      23.016  -1.249  54.650  1.00  0.00     0.035 A 
HETATM    8  C6  UNL     1      21.649  -1.055  54.681  1.00  0.00     0.044 A 
HETATM    9  C7  UNL     1      21.183  -0.003  53.929  1.00  0.00     0.117 A 
HETATM   10  F1  UNL     1      19.827   0.194  53.958  1.00  0.00    -0.206 F 
HETATM   11  C8  UNL     1      21.927   0.863  53.159  1.00  0.00     0.058 A 
HETATM   12  C9  UNL     1      23.294   0.613  53.170  1.00  0.00     0.024 A 
HETATM   13  C10 UNL     1      24.076   1.475  52.403  1.00  0.00     0.067 A 
ENDROOT
BRANCH  13  14
HETATM   14  N3  UNL     1      23.642   2.551  51.618  1.00  0.00    -0.363 N 
HETATM   15  H5  UNL     1      23.722   3.490  52.106  1.00  0.00     0.165 HD
BRANCH  14  16
HETATM   16  C11 UNL     1      23.131   2.491  50.295  1.00  0.00     0.096 C 
HETATM   17  C12 UNL     1      23.212   3.468  49.369  1.00  0.00    -0.036 C 
HETATM   18  C13 UNL     1      22.595   3.108  48.099  1.00  0.00     0.032 C 
HETATM   19  C16 UNL     1      23.897   4.650  49.936  1.00  0.00     0.083 C 
HETATM   20  C14 UNL     1      22.285   4.047  47.194  1.00  0.00     0.035 C 
HETATM   21 CL1  UNL     1      21.526   3.708  45.629  1.00  0.00    -0.084 Cl
HETATM   22  C15 UNL     1      22.646   5.463  47.394  1.00  0.00     0.035 C 
HETATM   23  P1  UNL     1      23.469   6.019  48.727  1.00  0.00    -0.055 P 
ENDBRANCH  14  16
ENDBRANCH  13  14
TORSDOF 2
ENDMDL
MODEL 8
REMARK VINA RESULT:      -7.6      3.797      5.621
REMARK  2 active torsions:
REMARK  status: ('A' for Active; 'I' for Inactive)
REMARK    1  A    between atoms: C10_13  and  N3_14 
REMARK    2  A    between atoms: N3_14  and  C11_15 
ROOT
HETATM    1  N1  UNL     1      21.284  -1.874  54.959  1.00  0.00    -0.191 NA
HETATM    2  C1  UNL     1      22.330  -1.387  54.730  1.00  0.00     0.103 C 
HETATM    3  C2  UNL     1      23.604  -0.801  54.459  1.00  0.00     0.089 A 
HETATM    4  C3  UNL     1      24.648  -0.994  55.340  1.00  0.00     0.142 A 
HETATM    5  N2  UNL     1      25.855  -0.456  55.104  1.00  0.00    -0.259 NA
HETATM    6  C4  UNL     1      26.086   0.287  54.003  1.00  0.00     0.069 A 
HETATM    7  C5  UNL     1      27.331   0.844  53.747  1.00  0.00     0.035 A 
HETATM    8  C6  UNL     1      27.568   1.599  52.615  1.00  0.00     0.044 A 
HETATM    9  C7  UNL     1      26.493   1.757  51.772  1.00  0.00     0.117 A 
HETATM   10  F1  UNL     1      26.724   2.504  50.647  1.00  0.00    -0.206 F 
HETATM   11  C8  UNL     1      25.225   1.248  51.939  1.00  0.00     0.058 A 
HETATM   12  C9  UNL     1      25.053   0.499  53.097  1.00  0.00     0.024 A 
HETATM   13  C10 UNL     1      23.780  -0.035  53.293  1.00  0.00     0.067 A 
ENDROOT
BRANCH  13  14
HETATM   14  N3  UNL     1      22.658   0.107  52.465  1.00  0.00    -0.363 N 
HETATM   15  H5  UNL     1      22.443  -0.760  51.892  1.00  0.00     0.165 HD
BRANCH  14  16
HETATM   16  C11 UNL     1      21.832   1.254  52.339  1.00  0.00     0.096 C 
HETATM   17  C12 UNL     1      20.491   1.252  52.187  1.00  0.00    -0.036 C 
HETATM   18  C13 UNL     1      19.922   2.590  52.086  1.00  0.00     0.032 C 
HETATM   19  C16 UNL     1      19.987  -0.138  52.142  1.00  0.00     0.083 C 
HETATM   20  C14 UNL     1      18.685   2.777  51.606  1.00  0.00     0.035 C 
HETATM   21 CL1  UNL     1      17.914   4.364  51.438  1.00  0.00    -0.084 Cl
HETATM   22  C15 UNL     1      17.811   1.642  51.258  1.00  0.00     0.035 C 
HETATM   23  P1  UNL     1      18.258   0.052  51.438  1.00  0.00    -0.055 P 
ENDBRANCH  14  16
ENDBRANCH  13  14
TORSDOF 2
ENDMDL
MODEL 9
REMARK VINA RESULT:      -7.6      4.140      7.815
REMARK  2 active torsions:
REMARK  status: ('A' for Active; 'I' for Inactive)
REMARK    1  A    between atoms: C10_13  and  N3_14 
REMARK    2  A    between atoms: N3_14  and  C11_15 
ROOT
HETATM    1  N1  UNL     1      21.741   4.988  51.892  1.00  0.00    -0.191 NA
HETATM    2  C1  UNL     1      22.707   5.418  51.375  1.00  0.00     0.103 C 
HETATM    3  C2  UNL     1      23.878   5.948  50.751  1.00  0.00     0.089 A 
HETATM    4  C3  UNL     1      24.083   7.312  50.728  1.00  0.00     0.142 A 
HETATM    5  N2  UNL     1      25.178   7.832  50.151  1.00  0.00    -0.259 NA
HETATM    6  C4  UNL     1      26.108   7.043  49.578  1.00  0.00     0.069 A 
HETATM    7  C5  UNL     1      27.246   7.570  48.982  1.00  0.00     0.035 A 
HETATM    8  C6  UNL     1      28.202   6.759  48.401  1.00  0.00     0.044 A 
HETATM    9  C7  UNL     1      27.946   5.409  48.455  1.00  0.00     0.117 A 
HETATM   10  F1  UNL     1      28.891   4.601  47.880  1.00  0.00    -0.206 F 
HETATM   11  C8  UNL     1      26.851   4.793  49.019  1.00  0.00     0.058 A 
HETATM   12  C9  UNL     1      25.928   5.664  49.585  1.00  0.00     0.024 A 
HETATM   13  C10 UNL     1      24.810   5.070  50.169  1.00  0.00     0.067 A 
ENDROOT
BRANCH  13  14
HETATM   14  N3  UNL     1      24.507   3.704  50.238  1.00  0.00    -0.363 N 
HETATM   15  H5  UNL     1      23.893   3.366  49.441  1.00  0.00     0.165 HD
BRANCH  14  16
HETATM   16  C11 UNL     1      24.932   2.786  51.233  1.00  0.00     0.096 C 
HETATM   17  C12 UNL     1      24.233   1.722  51.681  1.00  0.00    -0.036 C 
HETATM   18  C13 UNL     1      24.935   0.963  52.707  1.00  0.00     0.032 C 
HETATM   19  C16 UNL     1      22.922   1.653  51.000  1.00  0.00     0.083 C 
HETATM   20  C14 UNL     1      24.280   0.096  53.492  1.00  0.00     0.035 C 
HETATM   21 CL1  UNL     1      25.045  -0.862  54.771  1.00  0.00    -0.084 Cl
HETATM   22  C15 UNL     1      22.851  -0.204  53.287  1.00  0.00     0.035 C 
HETATM   23  P1  UNL     1      21.936   0.475  52.077  1.00  0.00    -0.055 P 
ENDBRANCH  14  16
ENDBRANCH  13  14
TORSDOF 2
ENDMDL
