MODEL 1
REMARK VINA RESULT:      -7.6      0.000      0.000
REMARK  3 active torsions:
REMARK  status: ('A' for Active; 'I' for Inactive)
REMARK    1  A    between atoms: C2_2  and  C3_3 
REMARK       I    between atoms: C3_3  and  N1_5 
REMARK    2  A    between atoms: C9_11  and  N2_12 
REMARK    3  A    between atoms: S1_21  and  O2_22 
ROOT
HETATM    1  C3  UNL     1      23.532  -0.128  53.410  1.00  0.00     0.220 C 
HETATM    2  O1  UNL     1      24.350  -0.782  54.088  1.00  0.00    -0.273 OA
HETATM    3  N1  UNL     1      23.744   1.233  52.982  1.00  0.00    -0.337 N 
HETATM    4  C4  UNL     1      22.667   1.760  52.205  1.00  0.00     0.149 C 
HETATM    5  C5  UNL     1      22.736   3.222  51.889  1.00  0.00     0.127 C 
HETATM    6  C6  UNL     1      23.554   3.877  52.974  1.00  0.00    -0.009 C 
HETATM    7  C7  UNL     1      24.690   3.331  53.400  1.00  0.00     0.002 C 
HETATM    8  C8  UNL     1      24.977   1.848  53.387  1.00  0.00     0.161 C 
HETATM    9  C9  UNL     1      26.100   1.622  52.403  1.00  0.00     0.055 C 
HETATM   10  C15 UNL     1      26.266   2.024  51.118  1.00  0.00     0.154 C 
HETATM   11  N3  UNL     1      25.365   2.769  50.253  1.00  0.00    -0.211 NA
HETATM   12  S1  UNL     1      23.846   3.331  50.408  1.00  0.00     0.038 S 
ENDROOT
BRANCH   9  13
HETATM   13  N2  UNL     1      27.180   0.855  52.894  1.00  0.00    -0.347 N 
HETATM   14  C10 UNL     1      27.351  -0.551  52.589  1.00  0.00     0.153 C 
HETATM   15  C11 UNL     1      28.579  -1.081  53.217  1.00  0.00    -0.011 C 
HETATM   16  C12 UNL     1      29.160  -0.583  54.316  1.00  0.00    -0.025 C 
HETATM   17  C13 UNL     1      28.444   0.600  54.885  1.00  0.00     0.086 C 
HETATM   18  C14 UNL     1      28.129   1.548  53.737  1.00  0.00     0.275 C 
HETATM   19  F1  UNL     1      29.299   1.663  52.982  1.00  0.00    -0.227 F 
ENDBRANCH   9  13
BRANCH   1  20
HETATM   20  C2  UNL     1      22.352  -0.966  53.133  1.00  0.00     0.098 C 
HETATM   21  C1  UNL     1      21.541  -1.299  54.379  1.00  0.00     0.014 C 
ENDBRANCH   1  20
BRANCH  12  22
HETATM   22  O2  UNL     1      23.056   3.849  48.982  1.00  0.00    -0.321 OA
HETATM   23  H20 UNL     1      22.096   3.931  49.138  1.00  0.00     0.228 HD
ENDBRANCH  12  22
TORSDOF 3
ENDMDL
MODEL 2
REMARK VINA RESULT:      -7.3      2.835      4.830
REMARK  3 active torsions:
REMARK  status: ('A' for Active; 'I' for Inactive)
REMARK    1  A    between atoms: C2_2  and  C3_3 
REMARK       I    between atoms: C3_3  and  N1_5 
REMARK    2  A    between atoms: C9_11  and  N2_12 
REMARK    3  A    between atoms: S1_21  and  O2_22 
ROOT
HETATM    1  C3  UNL     1      26.447   4.215  49.322  1.00  0.00     0.220 C 
HETATM    2  O1  UNL     1      27.297   3.329  49.542  1.00  0.00    -0.273 OA
HETATM    3  N1  UNL     1      25.049   4.094  49.661  1.00  0.00    -0.337 N 
HETATM    4  C4  UNL     1      24.279   5.248  49.321  1.00  0.00     0.149 C 
HETATM    5  C5  UNL     1      22.795   5.117  49.470  1.00  0.00     0.127 C 
HETATM    6  C6  UNL     1      22.457   3.654  49.326  1.00  0.00    -0.009 C 
HETATM    7  C7  UNL     1      23.178   2.720  49.942  1.00  0.00     0.002 C 
HETATM    8  C8  UNL     1      24.644   2.862  50.277  1.00  0.00     0.161 C 
HETATM    9  C9  UNL     1      24.754   2.890  51.783  1.00  0.00     0.055 C 
HETATM   10  C15 UNL     1      24.106   3.629  52.719  1.00  0.00     0.154 C 
HETATM   11  N3  UNL     1      23.120   4.684  52.553  1.00  0.00    -0.211 NA
HETATM   12  S1  UNL     1      22.473   5.443  51.268  1.00  0.00     0.038 S 
ENDROOT
BRANCH   9  13
HETATM   13  N2  UNL     1      25.699   1.994  52.331  1.00  0.00    -0.347 N 
HETATM   14  C10 UNL     1      26.987   2.420  52.838  1.00  0.00     0.153 C 
HETATM   15  C11 UNL     1      27.749   1.271  53.370  1.00  0.00    -0.011 C 
HETATM   16  C12 UNL     1      27.595  -0.003  52.985  1.00  0.00    -0.025 C 
HETATM   17  C13 UNL     1      26.550  -0.184  51.931  1.00  0.00     0.086 C 
HETATM   18  C14 UNL     1      25.317   0.599  52.361  1.00  0.00     0.275 C 
HETATM   19  F1  UNL     1      25.097   0.292  53.706  1.00  0.00    -0.227 F 
ENDBRANCH   9  13
BRANCH   1  20
HETATM   20  C2  UNL     1      27.101   5.368  48.679  1.00  0.00     0.098 C 
HETATM   21  C1  UNL     1      28.577   5.137  48.383  1.00  0.00     0.014 C 
ENDBRANCH   1  20
BRANCH  12  22
HETATM   22  O2  UNL     1      21.599   6.882  51.569  1.00  0.00    -0.321 OA
HETATM   23  H20 UNL     1      20.667   6.676  51.770  1.00  0.00     0.228 HD
ENDBRANCH  12  22
TORSDOF 3
ENDMDL
MODEL 3
REMARK VINA RESULT:      -7.0      3.192      4.914
REMARK  3 active torsions:
REMARK  status: ('A' for Active; 'I' for Inactive)
REMARK    1  A    between atoms: C2_2  and  C3_3 
REMARK       I    between atoms: C3_3  and  N1_5 
REMARK    2  A    between atoms: C9_11  and  N2_12 
REMARK    3  A    between atoms: S1_21  and  O2_22 
ROOT
HETATM    1  C3  UNL     1      21.571   1.953  49.712  1.00  0.00     0.220 C 
HETATM    2  O1  UNL     1      20.713   1.237  50.267  1.00  0.00    -0.273 OA
HETATM    3  N1  UNL     1      22.541   2.749  50.426  1.00  0.00    -0.337 N 
HETATM    4  C4  UNL     1      23.426   3.471  49.568  1.00  0.00     0.149 C 
HETATM    5  C5  UNL     1      24.330   4.460  50.237  1.00  0.00     0.127 C 
HETATM    6  C6  UNL     1      23.654   4.894  51.513  1.00  0.00    -0.009 C 
HETATM    7  C7  UNL     1      23.081   4.006  52.322  1.00  0.00     0.002 C 
HETATM    8  C8  UNL     1      22.479   2.700  51.859  1.00  0.00     0.161 C 
HETATM    9  C9  UNL     1      23.319   1.592  52.449  1.00  0.00     0.055 C 
HETATM   10  C15 UNL     1      24.659   1.380  52.450  1.00  0.00     0.154 C 
HETATM   11  N3  UNL     1      25.722   2.149  51.822  1.00  0.00    -0.211 NA
HETATM   12  S1  UNL     1      25.761   3.450  50.847  1.00  0.00     0.038 S 
ENDROOT
BRANCH   9  13
HETATM   13  N2  UNL     1      22.592   0.584  53.122  1.00  0.00    -0.347 N 
HETATM   14  C10 UNL     1      21.216   0.753  53.544  1.00  0.00     0.153 C 
HETATM   15  C11 UNL     1      20.712  -0.473  54.197  1.00  0.00    -0.011 C 
HETATM   16  C12 UNL     1      21.471  -1.384  54.819  1.00  0.00    -0.025 C 
HETATM   17  C13 UNL     1      22.930  -1.057  54.802  1.00  0.00     0.086 C 
HETATM   18  C14 UNL     1      23.298  -0.652  53.382  1.00  0.00     0.275 C 
HETATM   19  F1  UNL     1      22.726  -1.604  52.534  1.00  0.00    -0.227 F 
ENDBRANCH   9  13
BRANCH   1  20
HETATM   20  C2  UNL     1      21.424   1.844  48.251  1.00  0.00     0.098 C 
HETATM   21  C1  UNL     1      20.320   2.728  47.686  1.00  0.00     0.014 C 
ENDBRANCH   1  20
BRANCH  12  22
HETATM   22  O2  UNL     1      27.241   3.793  50.061  1.00  0.00    -0.321 OA
HETATM   23  H20 UNL     1      27.089   3.964  49.113  1.00  0.00     0.228 HD
ENDBRANCH  12  22
TORSDOF 3
ENDMDL
MODEL 4
REMARK VINA RESULT:      -6.9      3.514      6.053
REMARK  3 active torsions:
REMARK  status: ('A' for Active; 'I' for Inactive)
REMARK    1  A    between atoms: C2_2  and  C3_3 
REMARK       I    between atoms: C3_3  and  N1_5 
REMARK    2  A    between atoms: C9_11  and  N2_12 
REMARK    3  A    between atoms: S1_21  and  O2_22 
ROOT
HETATM    1  C3  UNL     1      24.111   0.702  52.621  1.00  0.00     0.220 C 
HETATM    2  O1  UNL     1      23.329  -0.265  52.716  1.00  0.00    -0.273 OA
HETATM    3  N1  UNL     1      23.873   1.854  51.786  1.00  0.00    -0.337 N 
HETATM    4  C4  UNL     1      24.909   2.835  51.859  1.00  0.00     0.149 C 
HETATM    5  C5  UNL     1      24.819   3.963  50.879  1.00  0.00     0.127 C 
HETATM    6  C6  UNL     1      24.050   3.459  49.683  1.00  0.00    -0.009 C 
HETATM    7  C7  UNL     1      22.938   2.744  49.835  1.00  0.00     0.002 C 
HETATM    8  C8  UNL     1      22.658   1.850  51.021  1.00  0.00     0.161 C 
HETATM    9  C9  UNL     1      21.490   2.454  51.764  1.00  0.00     0.055 C 
HETATM   10  C15 UNL     1      21.261   3.714  52.212  1.00  0.00     0.154 C 
HETATM   11  N3  UNL     1      22.117   4.889  52.158  1.00  0.00    -0.211 NA
HETATM   12  S1  UNL     1      23.638   5.166  51.654  1.00  0.00     0.038 S 
ENDROOT
BRANCH   9  13
HETATM   13  N2  UNL     1      20.438   1.557  52.055  1.00  0.00    -0.347 N 
HETATM   14  C10 UNL     1      20.486   0.615  53.156  1.00  0.00     0.153 C 
HETATM   15  C11 UNL     1      19.239  -0.172  53.230  1.00  0.00    -0.011 C 
HETATM   16  C12 UNL     1      18.423  -0.426  52.199  1.00  0.00    -0.025 C 
HETATM   17  C13 UNL     1      18.888   0.173  50.910  1.00  0.00     0.086 C 
HETATM   18  C14 UNL     1      19.284   1.617  51.185  1.00  0.00     0.275 C 
HETATM   19  F1  UNL     1      18.256   2.173  51.951  1.00  0.00    -0.227 F 
ENDBRANCH   9  13
BRANCH   1  20
HETATM   20  C2  UNL     1      25.280   0.468  53.487  1.00  0.00     0.098 C 
HETATM   21  C1  UNL     1      26.268  -0.538  52.909  1.00  0.00     0.014 C 
ENDBRANCH   1  20
BRANCH  12  22
HETATM   22  O2  UNL     1      24.357   6.647  52.117  1.00  0.00    -0.321 OA
HETATM   23  H20 UNL     1      23.669   7.316  52.293  1.00  0.00     0.228 HD
ENDBRANCH  12  22
TORSDOF 3
ENDMDL
MODEL 5
REMARK VINA RESULT:      -6.9      2.855      6.183
REMARK  3 active torsions:
REMARK  status: ('A' for Active; 'I' for Inactive)
REMARK    1  A    between atoms: C2_2  and  C3_3 
REMARK       I    between atoms: C3_3  and  N1_5 
REMARK    2  A    between atoms: C9_11  and  N2_12 
REMARK    3  A    between atoms: S1_21  and  O2_22 
ROOT
HETATM    1  C3  UNL     1      25.502   3.008  50.499  1.00  0.00     0.220 C 
HETATM    2  O1  UNL     1      24.400   3.516  50.211  1.00  0.00    -0.273 OA
HETATM    3  N1  UNL     1      25.800   2.391  51.769  1.00  0.00    -0.337 N 
HETATM    4  C4  UNL     1      27.127   1.870  51.851  1.00  0.00     0.149 C 
HETATM    5  C5  UNL     1      27.563   1.387  53.201  1.00  0.00     0.127 C 
HETATM    6  C6  UNL     1      26.756   2.140  54.228  1.00  0.00    -0.009 C 
HETATM    7  C7  UNL     1      25.444   2.311  54.079  1.00  0.00     0.002 C 
HETATM    8  C8  UNL     1      24.744   2.388  52.742  1.00  0.00     0.161 C 
HETATM    9  C9  UNL     1      23.850   1.175  52.640  1.00  0.00     0.055 C 
HETATM   10  C15 UNL     1      24.097  -0.145  52.833  1.00  0.00     0.154 C 
HETATM   11  N3  UNL     1      25.345  -0.820  53.152  1.00  0.00    -0.211 NA
HETATM   12  S1  UNL     1      26.888  -0.336  53.323  1.00  0.00     0.038 S 
ENDROOT
BRANCH   9  13
HETATM   13  N2  UNL     1      22.512   1.448  52.278  1.00  0.00    -0.347 N 
HETATM   14  C10 UNL     1      21.942   2.780  52.309  1.00  0.00     0.153 C 
HETATM   15  C11 UNL     1      20.536   2.762  51.855  1.00  0.00    -0.011 C 
HETATM   16  C12 UNL     1      19.715   1.707  51.926  1.00  0.00    -0.025 C 
HETATM   17  C13 UNL     1      20.354   0.494  52.525  1.00  0.00     0.086 C 
HETATM   18  C14 UNL     1      21.714   0.313  51.867  1.00  0.00     0.275 C 
HETATM   19  F1  UNL     1      21.516   0.462  50.492  1.00  0.00    -0.227 F 
ENDBRANCH   9  13
BRANCH   1  20
HETATM   20  C2  UNL     1      26.415   3.144  49.350  1.00  0.00     0.098 C 
HETATM   21  C1  UNL     1      26.847   4.582  49.088  1.00  0.00     0.014 C 
ENDBRANCH   1  20
BRANCH  12  22
HETATM   22  O2  UNL     1      28.090  -1.554  53.355  1.00  0.00    -0.321 OA
HETATM   23  H20 UNL     1      28.972  -1.162  53.212  1.00  0.00     0.228 HD
ENDBRANCH  12  22
TORSDOF 3
ENDMDL
MODEL 6
REMARK VINA RESULT:      -6.8      8.282      9.781
REMARK  3 active torsions:
REMARK  status: ('A' for Active; 'I' for Inactive)
REMARK    1  A    between atoms: C2_2  and  C3_3 
REMARK       I    between atoms: C3_3  and  N1_5 
REMARK    2  A    between atoms: C9_11  and  N2_12 
REMARK    3  A    between atoms: S1_21  and  O2_22 
ROOT
HETATM    1  C3  UNL     1      29.123   6.038  48.355  1.00  0.00     0.220 C 
HETATM    2  O1  UNL     1      29.671   4.918  48.312  1.00  0.00    -0.273 OA
HETATM    3  N1  UNL     1      29.842   7.285  48.457  1.00  0.00    -0.337 N 
HETATM    4  C4  UNL     1      28.992   8.432  48.476  1.00  0.00     0.149 C 
HETATM    5  C5  UNL     1      29.658   9.741  48.770  1.00  0.00     0.127 C 
HETATM    6  C6  UNL     1      30.895   9.443  49.579  1.00  0.00    -0.009 C 
HETATM    7  C7  UNL     1      31.713   8.449  49.240  1.00  0.00     0.002 C 
HETATM    8  C8  UNL     1      31.274   7.195  48.522  1.00  0.00     0.161 C 
HETATM    9  C9  UNL     1      31.929   7.211  47.161  1.00  0.00     0.055 C 
HETATM   10  C15 UNL     1      31.983   8.167  46.199  1.00  0.00     0.154 C 
HETATM   11  N3  UNL     1      31.366   9.483  46.160  1.00  0.00    -0.211 NA
HETATM   12  S1  UNL     1      30.350  10.292  47.139  1.00  0.00     0.038 S 
ENDROOT
BRANCH   9  13
HETATM   13  N2  UNL     1      32.610   6.024  46.811  1.00  0.00    -0.347 N 
HETATM   14  C10 UNL     1      32.730   5.558  45.444  1.00  0.00     0.153 C 
HETATM   15  C11 UNL     1      33.515   4.307  45.381  1.00  0.00    -0.011 C 
HETATM   16  C12 UNL     1      33.637   3.422  46.379  1.00  0.00    -0.025 C 
HETATM   17  C13 UNL     1      32.890   3.810  47.615  1.00  0.00     0.086 C 
HETATM   18  C14 UNL     1      33.193   5.273  47.901  1.00  0.00     0.275 C 
HETATM   19  F1  UNL     1      34.576   5.426  47.774  1.00  0.00    -0.227 F 
ENDBRANCH   9  13
BRANCH   1  20
HETATM   20  C2  UNL     1      27.662   5.866  48.285  1.00  0.00     0.098 C 
HETATM   21  C1  UNL     1      27.173   4.573  48.925  1.00  0.00     0.014 C 
ENDBRANCH   1  20
BRANCH  12  22
HETATM   22  O2  UNL     1      29.605  11.695  46.505  1.00  0.00    -0.321 OA
HETATM   23  H20 UNL     1      28.751  11.466  46.090  1.00  0.00     0.228 HD
ENDBRANCH  12  22
TORSDOF 3
ENDMDL
MODEL 7
REMARK VINA RESULT:      -6.6      2.259      2.882
REMARK  3 active torsions:
REMARK  status: ('A' for Active; 'I' for Inactive)
REMARK    1  A    between atoms: C2_2  and  C3_3 
REMARK       I    between atoms: C3_3  and  N1_5 
REMARK    2  A    between atoms: C9_11  and  N2_12 
REMARK    3  A    between atoms: S1_21  and  O2_22 
ROOT
HETATM    1  C3  UNL     1      22.143   1.543  50.597  1.00  0.00     0.220 C 
HETATM    2  O1  UNL     1      22.321   0.538  51.315  1.00  0.00    -0.273 OA
HETATM    3  N1  UNL     1      22.749   2.829  50.845  1.00  0.00    -0.337 N 
HETATM    4  C4  UNL     1      22.403   3.817  49.874  1.00  0.00     0.149 C 
HETATM    5  C5  UNL     1      22.841   5.218  50.174  1.00  0.00     0.127 C 
HETATM    6  C6  UNL     1      22.965   5.338  51.672  1.00  0.00    -0.009 C 
HETATM    7  C7  UNL     1      23.558   4.387  52.390  1.00  0.00     0.002 C 
HETATM    8  C8  UNL     1      23.592   2.927  52.003  1.00  0.00     0.161 C 
HETATM    9  C9  UNL     1      25.034   2.579  51.714  1.00  0.00     0.055 C 
HETATM   10  C15 UNL     1      25.964   3.173  50.925  1.00  0.00     0.154 C 
HETATM   11  N3  UNL     1      25.839   4.329  50.051  1.00  0.00    -0.211 NA
HETATM   12  S1  UNL     1      24.605   5.289  49.605  1.00  0.00     0.038 S 
ENDROOT
BRANCH   9  13
HETATM   13  N2  UNL     1      25.514   1.427  52.376  1.00  0.00    -0.347 N 
HETATM   14  C10 UNL     1      24.739   0.705  53.365  1.00  0.00     0.153 C 
HETATM   15  C11 UNL     1      25.486  -0.468  53.866  1.00  0.00    -0.011 C 
HETATM   16  C12 UNL     1      26.820  -0.586  53.879  1.00  0.00    -0.025 C 
HETATM   17  C13 UNL     1      27.529   0.609  53.325  1.00  0.00     0.086 C 
HETATM   18  C14 UNL     1      26.846   0.990  52.019  1.00  0.00     0.275 C 
HETATM   19  F1  UNL     1      26.679  -0.194  51.295  1.00  0.00    -0.227 F 
ENDBRANCH   9  13
BRANCH   1  20
HETATM   20  C2  UNL     1      21.238   1.194  49.488  1.00  0.00     0.098 C 
HETATM   21  C1  UNL     1      19.781   1.065  49.915  1.00  0.00     0.014 C 
ENDBRANCH   1  20
BRANCH  12  22
HETATM   22  O2  UNL     1      24.863   6.320  48.263  1.00  0.00    -0.321 OA
HETATM   23  H20 UNL     1      24.010   6.563  47.856  1.00  0.00     0.228 HD
ENDBRANCH  12  22
TORSDOF 3
ENDMDL
MODEL 8
REMARK VINA RESULT:      -6.5      3.847      5.537
REMARK  3 active torsions:
REMARK  status: ('A' for Active; 'I' for Inactive)
REMARK    1  A    between atoms: C2_2  and  C3_3 
REMARK       I    between atoms: C3_3  and  N1_5 
REMARK    2  A    between atoms: C9_11  and  N2_12 
REMARK    3  A    between atoms: S1_21  and  O2_22 
ROOT
HETATM    1  C3  UNL     1      24.239   2.446  51.003  1.00  0.00     0.220 C 
HETATM    2  O1  UNL     1      24.756   1.562  51.715  1.00  0.00    -0.273 OA
HETATM    3  N1  UNL     1      22.902   2.370  50.466  1.00  0.00    -0.337 N 
HETATM    4  C4  UNL     1      22.534   3.513  49.692  1.00  0.00     0.149 C 
HETATM    5  C5  UNL     1      21.236   3.416  48.951  1.00  0.00     0.127 C 
HETATM    6  C6  UNL     1      20.972   1.953  48.697  1.00  0.00    -0.009 C 
HETATM    7  C7  UNL     1      21.151   1.048  49.656  1.00  0.00     0.002 C 
HETATM    8  C8  UNL     1      22.153   1.186  50.779  1.00  0.00     0.161 C 
HETATM    9  C9  UNL     1      21.366   1.307  52.062  1.00  0.00     0.055 C 
HETATM   10  C15 UNL     1      20.332   2.113  52.412  1.00  0.00     0.154 C 
HETATM   11  N3  UNL     1      19.682   3.172  51.656  1.00  0.00    -0.211 NA
HETATM   12  S1  UNL     1      19.944   3.859  50.205  1.00  0.00     0.038 S 
ENDROOT
BRANCH   9  13
HETATM   13  N2  UNL     1      21.768   0.432  53.095  1.00  0.00    -0.347 N 
HETATM   14  C10 UNL     1      23.139  -0.003  53.271  1.00  0.00     0.153 C 
HETATM   15  C11 UNL     1      23.263  -0.892  54.445  1.00  0.00    -0.011 C 
HETATM   16  C12 UNL     1      22.277  -1.643  54.953  1.00  0.00    -0.025 C 
HETATM   17  C13 UNL     1      20.985  -1.510  54.212  1.00  0.00     0.086 C 
HETATM   18  C14 UNL     1      20.728  -0.026  53.990  1.00  0.00     0.275 C 
HETATM   19  F1  UNL     1      20.968   0.607  55.212  1.00  0.00    -0.227 F 
ENDBRANCH   9  13
BRANCH   1  20
HETATM   20  C2  UNL     1      25.203   3.545  50.817  1.00  0.00     0.098 C 
HETATM   21  C1  UNL     1      26.286   3.232  49.793  1.00  0.00     0.014 C 
ENDBRANCH   1  20
BRANCH  12  22
HETATM   22  O2  UNL     1      19.132   5.329  49.879  1.00  0.00    -0.321 OA
HETATM   23  H20 UNL     1      19.613   6.077  50.280  1.00  0.00     0.228 HD
ENDBRANCH  12  22
TORSDOF 3
ENDMDL
MODEL 9
REMARK VINA RESULT:      -6.3      9.428     10.951
REMARK  3 active torsions:
REMARK  status: ('A' for Active; 'I' for Inactive)
REMARK    1  A    between atoms: C2_2  and  C3_3 
REMARK       I    between atoms: C3_3  and  N1_5 
REMARK    2  A    between atoms: C9_11  and  N2_12 
REMARK    3  A    between atoms: S1_21  and  O2_22 
ROOT
HETATM    1  C3  UNL     1      31.573   7.696  45.031  1.00  0.00     0.220 C 
HETATM    2  O1  UNL     1      32.148   6.694  44.561  1.00  0.00    -0.273 OA
HETATM    3  N1  UNL     1      30.893   7.713  46.304  1.00  0.00    -0.337 N 
HETATM    4  C4  UNL     1      30.325   8.983  46.628  1.00  0.00     0.149 C 
HETATM    5  C5  UNL     1      29.445   9.021  47.840  1.00  0.00     0.127 C 
HETATM    6  C6  UNL     1      28.883   7.635  48.030  1.00  0.00    -0.009 C 
HETATM    7  C7  UNL     1      29.658   6.559  47.920  1.00  0.00     0.002 C 
HETATM    8  C8  UNL     1      30.886   6.482  47.043  1.00  0.00     0.161 C 
HETATM    9  C9  UNL     1      32.077   6.337  47.960  1.00  0.00     0.055 C 
HETATM   10  C15 UNL     1      32.467   7.046  49.049  1.00  0.00     0.154 C 
HETATM   11  N3  UNL     1      31.871   8.227  49.652  1.00  0.00    -0.211 NA
HETATM   12  S1  UNL     1      30.619   9.192  49.266  1.00  0.00     0.038 S 
ENDROOT
BRANCH   9  13
HETATM   13  N2  UNL     1      32.955   5.278  47.636  1.00  0.00    -0.347 N 
HETATM   14  C10 UNL     1      34.390   5.360  47.817  1.00  0.00     0.153 C 
HETATM   15  C11 UNL     1      35.044   4.097  47.419  1.00  0.00    -0.011 C 
HETATM   16  C12 UNL     1      34.554   3.219  46.534  1.00  0.00    -0.025 C 
HETATM   17  C13 UNL     1      33.238   3.629  45.954  1.00  0.00     0.086 C 
HETATM   18  C14 UNL     1      32.345   4.080  47.101  1.00  0.00     0.275 C 
HETATM   19  F1  UNL     1      32.462   3.112  48.102  1.00  0.00    -0.227 F 
ENDBRANCH   9  13
BRANCH   1  20
HETATM   20  C2  UNL     1      31.709   8.821  44.090  1.00  0.00     0.098 C 
HETATM   21  C1  UNL     1      32.779   8.595  43.029  1.00  0.00     0.014 C 
ENDBRANCH   1  20
BRANCH  12  22
HETATM   22  O2  UNL     1      30.504  10.688  50.088  1.00  0.00    -0.321 OA
HETATM   23  H20 UNL     1      29.630  10.774  50.513  1.00  0.00     0.228 HD
ENDBRANCH  12  22
TORSDOF 3
ENDMDL
