MODEL 1
REMARK VINA RESULT:      -6.9      0.000      0.000
REMARK  6 active torsions:
REMARK  status: ('A' for Active; 'I' for Inactive)
REMARK    1  A    between atoms: O1_2  and  C2_3 
REMARK    2  A    between atoms: C2_3  and  C5_7 
REMARK    3  A    between atoms: C3_4  and  C4_5 
REMARK    4  A    between atoms: C4_5  and  N1_6 
REMARK    5  A    between atoms: C5_7  and  C6_8 
REMARK    6  A    between atoms: N4_16  and  C12_17 
ROOT
HETATM    1  C6  UNL     1      23.973  -0.373  53.785  1.00  0.00     0.068 C 
HETATM    2  C7  UNL     1      24.764  -0.873  54.980  1.00  0.00     0.185 C 
HETATM    3  N2  UNL     1      26.223  -0.452  54.684  1.00  0.00    -0.369 N 
HETATM    4  C8  UNL     1      26.516   0.771  53.835  1.00  0.00     0.124 C 
HETATM    5  C9  UNL     1      25.783   1.872  54.198  1.00  0.00     0.060 C 
HETATM    6  C10 UNL     1      25.116   1.770  52.888  1.00  0.00     0.197 C 
HETATM    7  C11 UNL     1      26.270   2.053  51.946  1.00  0.00     0.148 C 
HETATM    8  N3  UNL     1      27.058   1.055  51.543  1.00  0.00    -0.179 NA
HETATM    9  N4  UNL     1      27.244   0.175  52.678  1.00  0.00    -0.219 N 
HETATM   10  O2  UNL     1      24.435   0.552  52.736  1.00  0.00    -0.339 OA
HETATM   11  H12 UNL     1      27.112  -0.936  54.973  1.00  0.00     0.161 HD
ENDROOT
BRANCH   1  12
HETATM   12  C5  UNL     1      22.774  -0.731  53.570  1.00  0.00     0.070 C 
BRANCH  12  13
HETATM   13  C2  UNL     1      21.398  -1.018  53.670  1.00  0.00     0.068 C 
HETATM   14  C3  UNL     1      20.182  -1.402  53.844  1.00  0.00     0.039 C 
BRANCH  13  15
HETATM   15  O1  UNL     1      20.992   0.115  52.909  1.00  0.00    -0.356 OA
HETATM   16  C1  UNL     1      21.349   0.139  51.523  1.00  0.00     0.210 C 
ENDBRANCH  13  15
BRANCH  14  17
HETATM   17  C4  UNL     1      18.907  -0.832  53.385  1.00  0.00     0.297 C 
BRANCH  17  18
HETATM   18  N1  UNL     1      17.776  -1.653  53.894  1.00  0.00     0.081 N 
HETATM   19  H7  UNL     1      18.068  -2.068  54.822  1.00  0.00     0.313 HD
HETATM   20  H8  UNL     1      16.944  -1.049  54.045  1.00  0.00     0.313 HD
ENDBRANCH  17  18
ENDBRANCH  14  17
ENDBRANCH  12  13
ENDBRANCH   1  12
BRANCH   9  21
HETATM   21  C12 UNL     1      27.947  -1.006  52.893  1.00  0.00     0.060 A 
HETATM   22  C13 UNL     1      29.186  -1.036  53.358  1.00  0.00     0.032 A 
HETATM   23  C14 UNL     1      29.070  -2.464  53.255  1.00  0.00     0.005 A 
HETATM   24  C15 UNL     1      27.830  -2.460  52.788  1.00  0.00     0.032 A 
ENDBRANCH   9  21
TORSDOF 6
ENDMDL
MODEL 2
REMARK VINA RESULT:      -6.9      2.839      6.137
REMARK  6 active torsions:
REMARK  status: ('A' for Active; 'I' for Inactive)
REMARK    1  A    between atoms: O1_2  and  C2_3 
REMARK    2  A    between atoms: C2_3  and  C5_7 
REMARK    3  A    between atoms: C3_4  and  C4_5 
REMARK    4  A    between atoms: C4_5  and  N1_6 
REMARK    5  A    between atoms: C5_7  and  C6_8 
REMARK    6  A    between atoms: N4_16  and  C12_17 
ROOT
HETATM    1  C6  UNL     1      26.333   2.093  52.084  1.00  0.00     0.068 C 
HETATM    2  C7  UNL     1      25.575   2.618  53.290  1.00  0.00     0.185 C 
HETATM    3  N2  UNL     1      25.468   1.403  54.241  1.00  0.00    -0.369 N 
HETATM    4  C8  UNL     1      26.523   0.313  54.223  1.00  0.00     0.124 C 
HETATM    5  C9  UNL     1      27.806   0.800  54.239  1.00  0.00     0.060 C 
HETATM    6  C10 UNL     1      27.958   0.243  52.883  1.00  0.00     0.197 C 
HETATM    7  C11 UNL     1      27.834  -1.243  53.158  1.00  0.00     0.148 C 
HETATM    8  N3  UNL     1      26.630  -1.817  53.183  1.00  0.00    -0.179 NA
HETATM    9  N4  UNL     1      25.727  -0.881  53.819  1.00  0.00    -0.219 N 
HETATM   10  O2  UNL     1      27.053   0.813  51.974  1.00  0.00    -0.339 OA
HETATM   11  H12 UNL     1      24.701   1.178  54.928  1.00  0.00     0.161 HD
ENDROOT
BRANCH   1  12
HETATM   12  C5  UNL     1      26.415   2.749  51.000  1.00  0.00     0.070 C 
BRANCH  12  13
HETATM   13  C2  UNL     1      26.702   3.698  49.999  1.00  0.00     0.068 C 
HETATM   14  C3  UNL     1      27.078   4.473  49.043  1.00  0.00     0.039 C 
BRANCH  13  15
HETATM   15  O1  UNL     1      25.645   4.576  50.371  1.00  0.00    -0.356 OA
HETATM   16  C1  UNL     1      24.304   4.122  50.157  1.00  0.00     0.210 C 
ENDBRANCH  13  15
BRANCH  14  17
HETATM   17  C4  UNL     1      26.562   5.769  48.580  1.00  0.00     0.297 C 
BRANCH  17  18
HETATM   18  N1  UNL     1      27.217   6.871  49.336  1.00  0.00     0.081 N 
HETATM   19  H7  UNL     1      26.484   7.324  49.950  1.00  0.00     0.313 HD
HETATM   20  H8  UNL     1      27.969   6.485  49.939  1.00  0.00     0.313 HD
ENDBRANCH  17  18
ENDBRANCH  14  17
ENDBRANCH  12  13
ENDBRANCH   1  12
BRANCH   9  21
HETATM   21  C12 UNL     1      24.373  -0.894  54.138  1.00  0.00     0.060 A 
HETATM   22  C13 UNL     1      23.911  -1.271  55.320  1.00  0.00     0.032 A 
HETATM   23  C14 UNL     1      22.611  -0.989  54.777  1.00  0.00     0.005 A 
HETATM   24  C15 UNL     1      23.048  -0.608  53.586  1.00  0.00     0.032 A 
ENDBRANCH   9  21
TORSDOF 6
ENDMDL
MODEL 3
REMARK VINA RESULT:      -6.5      2.969      4.688
REMARK  6 active torsions:
REMARK  status: ('A' for Active; 'I' for Inactive)
REMARK    1  A    between atoms: O1_2  and  C2_3 
REMARK    2  A    between atoms: C2_3  and  C5_7 
REMARK    3  A    between atoms: C3_4  and  C4_5 
REMARK    4  A    between atoms: C4_5  and  N1_6 
REMARK    5  A    between atoms: C5_7  and  C6_8 
REMARK    6  A    between atoms: N4_16  and  C12_17 
ROOT
HETATM    1  C6  UNL     1      25.103   1.943  52.364  1.00  0.00     0.068 C 
HETATM    2  C7  UNL     1      26.063   1.442  51.300  1.00  0.00     0.185 C 
HETATM    3  N2  UNL     1      26.770   0.231  51.954  1.00  0.00    -0.369 N 
HETATM    4  C8  UNL     1      26.067  -0.592  53.016  1.00  0.00     0.124 C 
HETATM    5  C9  UNL     1      24.784  -0.936  52.674  1.00  0.00     0.060 C 
HETATM    6  C10 UNL     1      24.334  -0.080  53.787  1.00  0.00     0.197 C 
HETATM    7  C11 UNL     1      24.900  -0.825  54.980  1.00  0.00     0.148 C 
HETATM    8  N3  UNL     1      26.146  -0.579  55.387  1.00  0.00    -0.179 NA
HETATM    9  N4  UNL     1      26.952  -0.389  54.199  1.00  0.00    -0.219 N 
HETATM   10  O2  UNL     1      24.721   1.258  53.612  1.00  0.00    -0.339 OA
HETATM   11  H12 UNL     1      27.750  -0.117  51.789  1.00  0.00     0.161 HD
ENDROOT
BRANCH   1  12
HETATM   12  C5  UNL     1      24.511   3.062  52.268  1.00  0.00     0.070 C 
BRANCH  12  13
HETATM   13  C2  UNL     1      23.562   4.098  52.163  1.00  0.00     0.068 C 
HETATM   14  C3  UNL     1      22.673   5.026  52.217  1.00  0.00     0.039 C 
BRANCH  13  15
HETATM   15  O1  UNL     1      23.745   4.276  50.762  1.00  0.00    -0.356 OA
HETATM   16  C1  UNL     1      25.028   4.733  50.319  1.00  0.00     0.210 C 
ENDBRANCH  13  15
BRANCH  14  17
HETATM   17  C4  UNL     1      22.107   5.893  51.173  1.00  0.00     0.297 C 
BRANCH  17  18
HETATM   18  N1  UNL     1      22.700   7.255  51.272  1.00  0.00     0.081 N 
HETATM   19  H7  UNL     1      22.181   7.885  50.599  1.00  0.00     0.313 HD
HETATM   20  H8  UNL     1      22.578   7.621  52.237  1.00  0.00     0.313 HD
ENDBRANCH  17  18
ENDBRANCH  14  17
ENDBRANCH  12  13
ENDBRANCH   1  12
BRANCH   9  21
HETATM   21  C12 UNL     1      28.295  -0.116  53.964  1.00  0.00     0.060 A 
HETATM   22  C13 UNL     1      29.174  -1.044  53.622  1.00  0.00     0.032 A 
HETATM   23  C14 UNL     1      30.131   0.027  53.603  1.00  0.00     0.005 A 
HETATM   24  C15 UNL     1      29.270   0.975  53.945  1.00  0.00     0.032 A 
ENDBRANCH   9  21
TORSDOF 6
ENDMDL
MODEL 4
REMARK VINA RESULT:      -6.5      3.407      6.691
REMARK  6 active torsions:
REMARK  status: ('A' for Active; 'I' for Inactive)
REMARK    1  A    between atoms: O1_2  and  C2_3 
REMARK    2  A    between atoms: C2_3  and  C5_7 
REMARK    3  A    between atoms: C3_4  and  C4_5 
REMARK    4  A    between atoms: C4_5  and  N1_6 
REMARK    5  A    between atoms: C5_7  and  C6_8 
REMARK    6  A    between atoms: N4_16  and  C12_17 
ROOT
HETATM    1  C6  UNL     1      25.060   1.845  52.463  1.00  0.00     0.068 C 
HETATM    2  C7  UNL     1      24.879   3.017  53.412  1.00  0.00     0.185 C 
HETATM    3  N2  UNL     1      23.955   3.995  52.650  1.00  0.00    -0.369 N 
HETATM    4  C8  UNL     1      22.959   3.479  51.629  1.00  0.00     0.124 C 
HETATM    5  C9  UNL     1      22.228   2.409  52.077  1.00  0.00     0.060 C 
HETATM    6  C10 UNL     1      22.907   1.605  51.045  1.00  0.00     0.197 C 
HETATM    7  C11 UNL     1      22.384   2.250  49.776  1.00  0.00     0.148 C 
HETATM    8  N3  UNL     1      23.011   3.310  49.263  1.00  0.00    -0.179 NA
HETATM    9  N4  UNL     1      23.437   4.132  50.376  1.00  0.00    -0.219 N 
HETATM   10  O2  UNL     1      24.298   1.571  51.233  1.00  0.00    -0.339 OA
HETATM   11  H12 UNL     1      23.930   5.047  52.709  1.00  0.00     0.161 HD
ENDROOT
BRANCH   1  12
HETATM   12  C5  UNL     1      25.936   0.948  52.657  1.00  0.00     0.070 C 
BRANCH  12  13
HETATM   13  C2  UNL     1      26.651  -0.264  52.748  1.00  0.00     0.068 C 
HETATM   14  C3  UNL     1      27.168  -1.440  52.815  1.00  0.00     0.039 C 
BRANCH  13  15
HETATM   15  O1  UNL     1      27.918   0.365  52.903  1.00  0.00    -0.356 OA
HETATM   16  C1  UNL     1      28.101   1.206  54.048  1.00  0.00     0.210 C 
ENDBRANCH  13  15
BRANCH  14  17
HETATM   17  C4  UNL     1      28.558  -1.882  52.995  1.00  0.00     0.297 C 
BRANCH  17  18
HETATM   18  N1  UNL     1      28.599  -3.359  53.173  1.00  0.00     0.081 N 
HETATM   19  H7  UNL     1      29.612  -3.662  53.148  1.00  0.00     0.313 HD
HETATM   20  H8  UNL     1      28.195  -3.612  54.096  1.00  0.00     0.313 HD
ENDBRANCH  17  18
ENDBRANCH  14  17
ENDBRANCH  12  13
ENDBRANCH   1  12
BRANCH   9  21
HETATM   21  C12 UNL     1      24.116   5.340  50.493  1.00  0.00     0.060 A 
HETATM   22  C13 UNL     1      25.330   5.540  50.003  1.00  0.00     0.032 A 
HETATM   23  C14 UNL     1      25.205   6.868  50.536  1.00  0.00     0.005 A 
HETATM   24  C15 UNL     1      23.990   6.694  51.036  1.00  0.00     0.032 A 
ENDBRANCH   9  21
TORSDOF 6
ENDMDL
MODEL 5
REMARK VINA RESULT:      -6.3      3.055      6.716
REMARK  6 active torsions:
REMARK  status: ('A' for Active; 'I' for Inactive)
REMARK    1  A    between atoms: O1_2  and  C2_3 
REMARK    2  A    between atoms: C2_3  and  C5_7 
REMARK    3  A    between atoms: C3_4  and  C4_5 
REMARK    4  A    between atoms: C4_5  and  N1_6 
REMARK    5  A    between atoms: C5_7  and  C6_8 
REMARK    6  A    between atoms: N4_16  and  C12_17 
ROOT
HETATM    1  C6  UNL     1      24.558   1.509  52.988  1.00  0.00     0.068 C 
HETATM    2  C7  UNL     1      24.355   3.001  53.186  1.00  0.00     0.185 C 
HETATM    3  N2  UNL     1      23.182   3.362  52.245  1.00  0.00    -0.369 N 
HETATM    4  C8  UNL     1      22.125   2.329  51.898  1.00  0.00     0.124 C 
HETATM    5  C9  UNL     1      21.648   1.653  52.991  1.00  0.00     0.060 C 
HETATM    6  C10 UNL     1      22.268   0.442  52.422  1.00  0.00     0.197 C 
HETATM    7  C11 UNL     1      21.455   0.262  51.155  1.00  0.00     0.148 C 
HETATM    8  N3  UNL     1      21.821   0.890  50.036  1.00  0.00    -0.179 NA
HETATM    9  N4  UNL     1      22.289   2.206  50.421  1.00  0.00    -0.219 N 
HETATM   10  O2  UNL     1      23.659   0.574  52.290  1.00  0.00    -0.339 OA
HETATM   11  H12 UNL     1      23.005   4.270  51.742  1.00  0.00     0.161 HD
ENDROOT
BRANCH   1  12
HETATM   12  C5  UNL     1      25.581   0.902  53.430  1.00  0.00     0.070 C 
BRANCH  12  13
HETATM   13  C2  UNL     1      26.831   0.562  53.986  1.00  0.00     0.068 C 
HETATM   14  C3  UNL     1      27.926   0.326  54.619  1.00  0.00     0.039 C 
BRANCH  13  15
HETATM   15  O1  UNL     1      27.279  -0.141  52.832  1.00  0.00    -0.356 OA
HETATM   16  C1  UNL     1      26.602  -1.357  52.496  1.00  0.00     0.210 C 
ENDBRANCH  13  15
BRANCH  14  17
HETATM   17  C4  UNL     1      29.142  -0.399  54.223  1.00  0.00     0.297 C 
BRANCH  17  18
HETATM   18  N1  UNL     1      30.061   0.519  53.497  1.00  0.00     0.081 N 
HETATM   19  H7  UNL     1      29.904   0.382  52.459  1.00  0.00     0.313 HD
HETATM   20  H8  UNL     1      29.840   1.504  53.743  1.00  0.00     0.313 HD
ENDBRANCH  17  18
ENDBRANCH  14  17
ENDBRANCH  12  13
ENDBRANCH   1  12
BRANCH   9  21
HETATM   21  C12 UNL     1      22.785   3.306  49.730  1.00  0.00     0.060 A 
HETATM   22  C13 UNL     1      23.994   3.338  49.190  1.00  0.00     0.032 A 
HETATM   23  C14 UNL     1      23.647   4.666  48.767  1.00  0.00     0.005 A 
HETATM   24  C15 UNL     1      22.434   4.659  49.298  1.00  0.00     0.032 A 
ENDBRANCH   9  21
TORSDOF 6
ENDMDL
MODEL 6
REMARK VINA RESULT:      -6.2      3.725      5.442
REMARK  6 active torsions:
REMARK  status: ('A' for Active; 'I' for Inactive)
REMARK    1  A    between atoms: O1_2  and  C2_3 
REMARK    2  A    between atoms: C2_3  and  C5_7 
REMARK    3  A    between atoms: C3_4  and  C4_5 
REMARK    4  A    between atoms: C4_5  and  N1_6 
REMARK    5  A    between atoms: C5_7  and  C6_8 
REMARK    6  A    between atoms: N4_16  and  C12_17 
ROOT
HETATM    1  C6  UNL     1      23.177   2.673  51.951  1.00  0.00     0.068 C 
HETATM    2  C7  UNL     1      24.263   3.519  52.592  1.00  0.00     0.185 C 
HETATM    3  N2  UNL     1      24.573   4.613  51.543  1.00  0.00    -0.369 N 
HETATM    4  C8  UNL     1      23.504   5.074  50.570  1.00  0.00     0.124 C 
HETATM    5  C9  UNL     1      22.300   5.340  51.172  1.00  0.00     0.060 C 
HETATM    6  C10 UNL     1      21.753   4.198  50.418  1.00  0.00     0.197 C 
HETATM    7  C11 UNL     1      21.878   4.698  48.992  1.00  0.00     0.148 C 
HETATM    8  N3  UNL     1      23.015   4.508  48.319  1.00  0.00    -0.179 NA
HETATM    9  N4  UNL     1      24.101   4.700  49.256  1.00  0.00    -0.219 N 
HETATM   10  O2  UNL     1      22.396   2.994  50.744  1.00  0.00    -0.339 OA
HETATM   11  H12 UNL     1      25.488   5.102  51.362  1.00  0.00     0.161 HD
ENDROOT
BRANCH   1  12
HETATM   12  C5  UNL     1      22.828   1.549  52.426  1.00  0.00     0.070 C 
BRANCH  12  13
HETATM   13  C2  UNL     1      22.794   0.264  53.004  1.00  0.00     0.068 C 
HETATM   14  C3  UNL     1      22.871  -0.947  53.431  1.00  0.00     0.039 C 
BRANCH  13  15
HETATM   15  O1  UNL     1      21.786   0.595  53.953  1.00  0.00    -0.356 OA
HETATM   16  C1  UNL     1      20.520   1.030  53.445  1.00  0.00     0.210 C 
ENDBRANCH  13  15
BRANCH  14  17
HETATM   17  C4  UNL     1      22.146  -1.651  54.499  1.00  0.00     0.297 C 
BRANCH  17  18
HETATM   18  N1  UNL     1      22.998  -1.735  55.716  1.00  0.00     0.081 N 
HETATM   19  H7  UNL     1      22.367  -1.938  56.540  1.00  0.00     0.313 HD
HETATM   20  H8  UNL     1      23.679  -2.513  55.614  1.00  0.00     0.313 HD
ENDBRANCH  17  18
ENDBRANCH  14  17
ENDBRANCH  12  13
ENDBRANCH   1  12
BRANCH   9  21
HETATM   21  C12 UNL     1      25.488   4.646  49.167  1.00  0.00     0.060 A 
HETATM   22  C13 UNL     1      26.229   5.668  48.768  1.00  0.00     0.032 A 
HETATM   23  C14 UNL     1      27.349   4.793  48.974  1.00  0.00     0.005 A 
HETATM   24  C15 UNL     1      26.630   3.755  49.377  1.00  0.00     0.032 A 
ENDBRANCH   9  21
TORSDOF 6
ENDMDL
MODEL 7
REMARK VINA RESULT:      -6.1     10.344     11.485
REMARK  6 active torsions:
REMARK  status: ('A' for Active; 'I' for Inactive)
REMARK    1  A    between atoms: O1_2  and  C2_3 
REMARK    2  A    between atoms: C2_3  and  C5_7 
REMARK    3  A    between atoms: C3_4  and  C4_5 
REMARK    4  A    between atoms: C4_5  and  N1_6 
REMARK    5  A    between atoms: C5_7  and  C6_8 
REMARK    6  A    between atoms: N4_16  and  C12_17 
ROOT
HETATM    1  C6  UNL     1      31.491   7.053  48.372  1.00  0.00     0.068 C 
HETATM    2  C7  UNL     1      32.006   6.031  49.370  1.00  0.00     0.185 C 
HETATM    3  N2  UNL     1      33.089   5.243  48.595  1.00  0.00    -0.369 N 
HETATM    4  C8  UNL     1      33.866   5.902  47.470  1.00  0.00     0.124 C 
HETATM    5  C9  UNL     1      34.345   7.144  47.798  1.00  0.00     0.060 C 
HETATM    6  C10 UNL     1      33.430   7.687  46.778  1.00  0.00     0.197 C 
HETATM    7  C11 UNL     1      34.012   7.091  45.511  1.00  0.00     0.148 C 
HETATM    8  N3  UNL     1      33.627   5.878  45.110  1.00  0.00    -0.179 NA
HETATM    9  N4  UNL     1      33.482   5.064  46.298  1.00  0.00    -0.219 N 
HETATM   10  O2  UNL     1      32.086   7.406  47.072  1.00  0.00    -0.339 OA
HETATM   11  H12 UNL     1      33.369   4.235  48.711  1.00  0.00     0.161 HD
ENDROOT
BRANCH   1  12
HETATM   12  C5  UNL     1      30.438   7.731  48.583  1.00  0.00     0.070 C 
BRANCH  12  13
HETATM   13  C2  UNL     1      29.449   8.584  49.110  1.00  0.00     0.068 C 
HETATM   14  C3  UNL     1      28.660   9.452  49.638  1.00  0.00     0.039 C 
BRANCH  13  15
HETATM   15  O1  UNL     1      28.361   7.769  48.686  1.00  0.00    -0.356 OA
HETATM   16  C1  UNL     1      28.333   7.371  47.311  1.00  0.00     0.210 C 
ENDBRANCH  13  15
BRANCH  14  17
HETATM   17  C4  UNL     1      27.193   9.503  49.734  1.00  0.00     0.297 C 
BRANCH  17  18
HETATM   18  N1  UNL     1      26.726   8.584  50.806  1.00  0.00     0.081 N 
HETATM   19  H7  UNL     1      26.691   9.130  51.711  1.00  0.00     0.313 HD
HETATM   20  H8  UNL     1      25.770   8.242  50.583  1.00  0.00     0.313 HD
ENDBRANCH  17  18
ENDBRANCH  14  17
ENDBRANCH  12  13
ENDBRANCH   1  12
BRANCH   9  21
HETATM   21  C12 UNL     1      33.121   3.742  46.538  1.00  0.00     0.060 A 
HETATM   22  C13 UNL     1      33.994   2.799  46.855  1.00  0.00     0.032 A 
HETATM   23  C14 UNL     1      32.859   1.919  46.898  1.00  0.00     0.005 A 
HETATM   24  C15 UNL     1      31.965   2.845  46.583  1.00  0.00     0.032 A 
ENDBRANCH   9  21
TORSDOF 6
ENDMDL
MODEL 8
REMARK VINA RESULT:      -6.0      4.138      7.077
REMARK  6 active torsions:
REMARK  status: ('A' for Active; 'I' for Inactive)
REMARK    1  A    between atoms: O1_2  and  C2_3 
REMARK    2  A    between atoms: C2_3  and  C5_7 
REMARK    3  A    between atoms: C3_4  and  C4_5 
REMARK    4  A    between atoms: C4_5  and  N1_6 
REMARK    5  A    between atoms: C5_7  and  C6_8 
REMARK    6  A    between atoms: N4_16  and  C12_17 
ROOT
HETATM    1  C6  UNL     1      23.754   2.768  52.190  1.00  0.00     0.068 C 
HETATM    2  C7  UNL     1      23.880   3.905  53.188  1.00  0.00     0.185 C 
HETATM    3  N2  UNL     1      23.059   5.060  52.569  1.00  0.00    -0.369 N 
HETATM    4  C8  UNL     1      21.885   4.768  51.654  1.00  0.00     0.124 C 
HETATM    5  C9  UNL     1      21.035   3.813  52.151  1.00  0.00     0.060 C 
HETATM    6  C10 UNL     1      21.451   2.959  51.023  1.00  0.00     0.197 C 
HETATM    7  C11 UNL     1      20.911   3.744  49.844  1.00  0.00     0.148 C 
HETATM    8  N3  UNL     1      21.649   4.709  49.294  1.00  0.00    -0.179 NA
HETATM    9  N4  UNL     1      22.327   5.394  50.375  1.00  0.00    -0.219 N 
HETATM   10  O2  UNL     1      22.827   2.686  51.048  1.00  0.00    -0.339 OA
HETATM   11  H12 UNL     1      23.220   6.097  52.662  1.00  0.00     0.161 HD
ENDROOT
BRANCH   1  12
HETATM   12  C5  UNL     1      24.481   1.730  52.253  1.00  0.00     0.070 C 
BRANCH  12  13
HETATM   13  C2  UNL     1      25.543   0.804  52.220  1.00  0.00     0.068 C 
HETATM   14  C3  UNL     1      26.565   0.037  52.068  1.00  0.00     0.039 C 
BRANCH  13  15
HETATM   15  O1  UNL     1      25.086   0.068  53.349  1.00  0.00    -0.356 OA
HETATM   16  C1  UNL     1      23.742  -0.426  53.314  1.00  0.00     0.210 C 
ENDBRANCH  13  15
BRANCH  14  17
HETATM   17  C4  UNL     1      27.014  -1.145  52.818  1.00  0.00     0.297 C 
BRANCH  17  18
HETATM   18  N1  UNL     1      27.865  -0.722  53.963  1.00  0.00     0.081 N 
HETATM   19  H7  UNL     1      27.409  -1.068  54.853  1.00  0.00     0.313 HD
HETATM   20  H8  UNL     1      28.806  -1.154  53.879  1.00  0.00     0.313 HD
ENDBRANCH  17  18
ENDBRANCH  14  17
ENDBRANCH  12  13
ENDBRANCH   1  12
BRANCH   9  21
HETATM   21  C12 UNL     1      23.211   6.465  50.450  1.00  0.00     0.060 A 
HETATM   22  C13 UNL     1      22.816   7.726  50.532  1.00  0.00     0.032 A 
HETATM   23  C14 UNL     1      24.217   8.045  50.559  1.00  0.00     0.005 A 
HETATM   24  C15 UNL     1      24.638   6.791  50.478  1.00  0.00     0.032 A 
ENDBRANCH   9  21
TORSDOF 6
ENDMDL
MODEL 9
REMARK VINA RESULT:      -5.9      8.078     10.845
REMARK  6 active torsions:
REMARK  status: ('A' for Active; 'I' for Inactive)
REMARK    1  A    between atoms: O1_2  and  C2_3 
REMARK    2  A    between atoms: C2_3  and  C5_7 
REMARK    3  A    between atoms: C3_4  and  C4_5 
REMARK    4  A    between atoms: C4_5  and  N1_6 
REMARK    5  A    between atoms: C5_7  and  C6_8 
REMARK    6  A    between atoms: N4_16  and  C12_17 
ROOT
HETATM    1  C6  UNL     1      29.093   6.631  47.795  1.00  0.00     0.068 C 
HETATM    2  C7  UNL     1      28.857   7.701  46.744  1.00  0.00     0.185 C 
HETATM    3  N2  UNL     1      30.163   8.530  46.734  1.00  0.00    -0.369 N 
HETATM    4  C8  UNL     1      31.486   7.892  47.113  1.00  0.00     0.124 C 
HETATM    5  C9  UNL     1      31.702   6.685  46.499  1.00  0.00     0.060 C 
HETATM    6  C10 UNL     1      31.621   6.071  47.836  1.00  0.00     0.197 C 
HETATM    7  C11 UNL     1      32.839   6.671  48.511  1.00  0.00     0.148 C 
HETATM    8  N3  UNL     1      32.744   7.852  49.124  1.00  0.00    -0.179 NA
HETATM    9  N4  UNL     1      31.876   8.682  48.316  1.00  0.00    -0.219 N 
HETATM   10  O2  UNL     1      30.371   6.283  48.440  1.00  0.00    -0.339 OA
HETATM   11  H12 UNL     1      30.282   9.555  46.522  1.00  0.00     0.161 HD
ENDROOT
BRANCH   1  12
HETATM   12  C5  UNL     1      28.154   5.901  48.238  1.00  0.00     0.070 C 
BRANCH  12  13
HETATM   13  C2  UNL     1      27.384   4.879  48.830  1.00  0.00     0.068 C 
HETATM   14  C3  UNL     1      26.810   3.865  49.375  1.00  0.00     0.039 C 
BRANCH  13  15
HETATM   15  O1  UNL     1      26.170   5.621  48.796  1.00  0.00    -0.356 OA
HETATM   16  C1  UNL     1      26.177   6.925  49.389  1.00  0.00     0.210 C 
ENDBRANCH  13  15
BRANCH  14  17
HETATM   17  C4  UNL     1      25.414   3.635  49.773  1.00  0.00     0.297 C 
BRANCH  17  18
HETATM   18  N1  UNL     1      25.241   3.958  51.215  1.00  0.00     0.081 N 
HETATM   19  H7  UNL     1      24.651   3.195  51.650  1.00  0.00     0.313 HD
HETATM   20  H8  UNL     1      26.167   3.976  51.684  1.00  0.00     0.313 HD
ENDBRANCH  17  18
ENDBRANCH  14  17
ENDBRANCH  12  13
ENDBRANCH   1  12
BRANCH   9  21
HETATM   21  C12 UNL     1      31.404   9.987  48.415  1.00  0.00     0.060 A 
HETATM   22  C13 UNL     1      30.509  10.368  49.314  1.00  0.00     0.032 A 
HETATM   23  C14 UNL     1      30.637  11.671  48.724  1.00  0.00     0.005 A 
HETATM   24  C15 UNL     1      31.533  11.315  47.815  1.00  0.00     0.032 A 
ENDBRANCH   9  21
TORSDOF 6
ENDMDL
