MODEL 1
REMARK VINA RESULT:      -6.1      0.000      0.000
REMARK  6 active torsions:
REMARK  status: ('A' for Active; 'I' for Inactive)
REMARK    1  A    between atoms: O1_2  and  C2_3 
REMARK    2  A    between atoms: C9_12  and  O2_13 
REMARK    3  A    between atoms: C12_16  and  O3_17 
REMARK    4  A    between atoms: C16_22  and  C17_23 
REMARK    5  A    between atoms: C17_23  and  C18_24 
REMARK    6  A    between atoms: C18_24  and  O5_25 
ROOT
HETATM    1  C2  UNL     1      19.013   2.518  49.946  1.00  0.00     0.065 C 
HETATM    2  C3  UNL     1      19.899   3.477  50.352  1.00  0.00     0.066 C 
HETATM    3  C4  UNL     1      20.892   3.302  51.467  1.00  0.00     0.067 C 
HETATM    4  N1  UNL     1      20.634   2.626  52.579  1.00  0.00    -0.270 NA
HETATM    5  C5  UNL     1      19.705   1.469  52.578  1.00  0.00     0.270 C 
HETATM    6  N2  UNL     1      20.021   0.825  51.269  1.00  0.00    -0.373 N 
HETATM    7  C6  UNL     1      18.900   1.035  50.321  1.00  0.00     0.184 C 
HETATM    8  C7  UNL     1      21.402   0.298  51.404  1.00  0.00     0.106 A 
HETATM    9  C8  UNL     1      21.327   0.851  50.154  1.00  0.00     0.122 A 
HETATM   10  C9  UNL     1      22.381   1.634  49.754  1.00  0.00     0.073 A 
HETATM   11  C11 UNL     1      22.649   1.203  50.996  1.00  0.00     0.153 A 
HETATM   12  C12 UNL     1      22.569   0.600  52.172  1.00  0.00     0.145 A 
HETATM   13  C14 UNL     1      21.558  -0.206  52.644  1.00  0.00     0.026 A 
HETATM   14  O4  UNL     1      23.851   2.000  51.019  1.00  0.00    -0.341 OA
HETATM   15  C15 UNL     1      23.516   3.411  51.203  1.00  0.00     0.150 C 
HETATM   16  C16 UNL     1      22.258   3.877  51.384  1.00  0.00     0.016 C 
ENDROOT
BRANCH  16  17
HETATM   17  C17 UNL     1      22.288   5.330  51.535  1.00  0.00     0.039 C 
BRANCH  17  18
HETATM   18  C18 UNL     1      23.411   6.010  51.598  1.00  0.00     0.132 C 
BRANCH  18  19
HETATM   19  O5  UNL     1      24.413   6.863  52.051  1.00  0.00    -0.373 OA
HETATM   20  H20 UNL     1      25.015   7.374  51.408  1.00  0.00     0.216 HD
ENDBRANCH  18  19
ENDBRANCH  17  18
ENDBRANCH  16  17
BRANCH   1  21
HETATM   21  O1  UNL     1      18.157   3.136  49.066  1.00  0.00    -0.358 OA
HETATM   22  C1  UNL     1      18.393   3.288  47.688  1.00  0.00     0.209 C 
ENDBRANCH   1  21
BRANCH  10  23
HETATM   23  O2  UNL     1      22.919   2.403  48.757  1.00  0.00    -0.361 OA
HETATM   24  C10 UNL     1      22.248   2.621  47.556  1.00  0.00     0.209 C 
ENDBRANCH  10  23
BRANCH  12  25
HETATM   25  O3  UNL     1      23.459   0.616  53.215  1.00  0.00    -0.375 OA
HETATM   26  C13 UNL     1      24.232  -0.497  53.539  1.00  0.00     0.203 C 
ENDBRANCH  12  25
TORSDOF 6
ENDMDL
MODEL 2
REMARK VINA RESULT:      -5.9      2.537      5.313
REMARK  6 active torsions:
REMARK  status: ('A' for Active; 'I' for Inactive)
REMARK    1  A    between atoms: O1_2  and  C2_3 
REMARK    2  A    between atoms: C9_12  and  O2_13 
REMARK    3  A    between atoms: C12_16  and  O3_17 
REMARK    4  A    between atoms: C16_22  and  C17_23 
REMARK    5  A    between atoms: C17_23  and  C18_24 
REMARK    6  A    between atoms: C18_24  and  O5_25 
ROOT
HETATM    1  C2  UNL     1      25.419   3.391  50.085  1.00  0.00     0.065 C 
HETATM    2  C3  UNL     1      24.635   3.993  49.140  1.00  0.00     0.066 C 
HETATM    3  C4  UNL     1      23.132   3.953  49.128  1.00  0.00     0.067 C 
HETATM    4  N1  UNL     1      22.425   2.890  49.487  1.00  0.00    -0.270 NA
HETATM    5  C5  UNL     1      22.922   1.947  50.520  1.00  0.00     0.270 C 
HETATM    6  N2  UNL     1      23.577   2.875  51.489  1.00  0.00    -0.373 N 
HETATM    7  C6  UNL     1      25.051   2.723  51.414  1.00  0.00     0.184 C 
HETATM    8  C7  UNL     1      22.477   3.669  52.091  1.00  0.00     0.106 A 
HETATM    9  C8  UNL     1      23.497   4.552  51.855  1.00  0.00     0.122 A 
HETATM   10  C9  UNL     1      23.160   5.757  51.292  1.00  0.00     0.073 A 
HETATM   11  C11 UNL     1      22.029   5.049  51.430  1.00  0.00     0.153 A 
HETATM   12  C12 UNL     1      21.163   4.090  51.719  1.00  0.00     0.145 A 
HETATM   13  C14 UNL     1      21.415   2.863  52.290  1.00  0.00     0.026 A 
HETATM   14  O4  UNL     1      21.288   6.092  50.765  1.00  0.00    -0.341 OA
HETATM   15  C15 UNL     1      21.550   6.056  49.326  1.00  0.00     0.150 C 
HETATM   16  C16 UNL     1      22.330   5.133  48.718  1.00  0.00     0.016 C 
ENDROOT
BRANCH  16  17
HETATM   17  C17 UNL     1      22.371   5.393  47.281  1.00  0.00     0.039 C 
BRANCH  17  18
HETATM   18  C18 UNL     1      22.036   4.486  46.390  1.00  0.00     0.132 C 
BRANCH  18  19
HETATM   19  O5  UNL     1      22.114   3.579  45.337  1.00  0.00    -0.373 OA
HETATM   20  H20 UNL     1      22.490   2.641  45.463  1.00  0.00     0.216 HD
ENDBRANCH  18  19
ENDBRANCH  17  18
ENDBRANCH  16  17
BRANCH   1  21
HETATM   21  O1  UNL     1      26.711   3.481  49.623  1.00  0.00    -0.358 OA
HETATM   22  C1  UNL     1      27.232   4.570  48.901  1.00  0.00     0.209 C 
ENDBRANCH   1  21
BRANCH  10  23
HETATM   23  O2  UNL     1      23.604   6.971  50.841  1.00  0.00    -0.361 OA
HETATM   24  C10 UNL     1      24.960   7.233  50.656  1.00  0.00     0.209 C 
ENDBRANCH  10  23
BRANCH  12  25
HETATM   25  O3  UNL     1      19.805   4.065  51.531  1.00  0.00    -0.375 OA
HETATM   26  C13 UNL     1      19.174   3.014  50.869  1.00  0.00     0.203 C 
ENDBRANCH  12  25
TORSDOF 6
ENDMDL
MODEL 3
REMARK VINA RESULT:      -5.8      1.809      4.699
REMARK  6 active torsions:
REMARK  status: ('A' for Active; 'I' for Inactive)
REMARK    1  A    between atoms: O1_2  and  C2_3 
REMARK    2  A    between atoms: C9_12  and  O2_13 
REMARK    3  A    between atoms: C12_16  and  O3_17 
REMARK    4  A    between atoms: C16_22  and  C17_23 
REMARK    5  A    between atoms: C17_23  and  C18_24 
REMARK    6  A    between atoms: C18_24  and  O5_25 
ROOT
HETATM    1  C2  UNL     1      23.140   0.908  52.726  1.00  0.00     0.065 C 
HETATM    2  C3  UNL     1      23.803   1.604  51.753  1.00  0.00     0.066 C 
HETATM    3  C4  UNL     1      23.174   2.099  50.481  1.00  0.00     0.067 C 
HETATM    4  N1  UNL     1      22.253   1.423  49.807  1.00  0.00    -0.270 NA
HETATM    5  C5  UNL     1      21.293   0.529  50.501  1.00  0.00     0.270 C 
HETATM    6  N2  UNL     1      21.012   1.294  51.751  1.00  0.00    -0.373 N 
HETATM    7  C6  UNL     1      21.646   0.619  52.909  1.00  0.00     0.184 C 
HETATM    8  C7  UNL     1      20.273   2.507  51.321  1.00  0.00     0.106 A 
HETATM    9  C8  UNL     1      21.165   2.924  52.272  1.00  0.00     0.122 A 
HETATM   10  C9  UNL     1      21.866   4.074  52.007  1.00  0.00     0.073 A 
HETATM   11  C11 UNL     1      21.064   3.843  50.957  1.00  0.00     0.153 A 
HETATM   12  C12 UNL     1      20.168   3.309  50.142  1.00  0.00     0.145 A 
HETATM   13  C14 UNL     1      19.418   2.171  50.335  1.00  0.00     0.026 A 
HETATM   14  O4  UNL     1      21.637   4.971  50.265  1.00  0.00    -0.341 OA
HETATM   15  C15 UNL     1      22.970   4.632  49.767  1.00  0.00     0.150 C 
HETATM   16  C16 UNL     1      23.543   3.413  49.896  1.00  0.00     0.016 C 
ENDROOT
BRANCH  16  17
HETATM   17  C17 UNL     1      24.870   3.426  49.287  1.00  0.00     0.039 C 
BRANCH  17  18
HETATM   18  C18 UNL     1      25.952   3.757  49.959  1.00  0.00     0.132 C 
BRANCH  18  19
HETATM   19  O5  UNL     1      27.178   3.670  50.610  1.00  0.00    -0.373 OA
HETATM   20  H20 UNL     1      27.948   4.299  50.392  1.00  0.00     0.216 HD
ENDBRANCH  18  19
ENDBRANCH  17  18
ENDBRANCH  16  17
BRANCH   1  21
HETATM   21  O1  UNL     1      24.103   0.464  53.601  1.00  0.00    -0.358 OA
HETATM   22  C1  UNL     1      25.458   0.842  53.566  1.00  0.00     0.209 C 
ENDBRANCH   1  21
BRANCH  10  23
HETATM   23  O2  UNL     1      22.801   4.969  52.453  1.00  0.00    -0.361 OA
HETATM   24  C10 UNL     1      23.705   4.645  53.463  1.00  0.00     0.209 C 
ENDBRANCH  10  23
BRANCH  12  25
HETATM   25  O3  UNL     1      19.755   3.741  48.908  1.00  0.00    -0.375 OA
HETATM   26  C13 UNL     1      19.937   2.971  47.760  1.00  0.00     0.203 C 
ENDBRANCH  12  25
TORSDOF 6
ENDMDL
MODEL 4
REMARK VINA RESULT:      -5.8      2.592      4.024
REMARK  6 active torsions:
REMARK  status: ('A' for Active; 'I' for Inactive)
REMARK    1  A    between atoms: O1_2  and  C2_3 
REMARK    2  A    between atoms: C9_12  and  O2_13 
REMARK    3  A    between atoms: C12_16  and  O3_17 
REMARK    4  A    between atoms: C16_22  and  C17_23 
REMARK    5  A    between atoms: C17_23  and  C18_24 
REMARK    6  A    between atoms: C18_24  and  O5_25 
ROOT
HETATM    1  C2  UNL     1      21.065   3.142  52.123  1.00  0.00     0.065 C 
HETATM    2  C3  UNL     1      21.086   4.448  51.719  1.00  0.00     0.066 C 
HETATM    3  C4  UNL     1      22.335   5.222  51.403  1.00  0.00     0.067 C 
HETATM    4  N1  UNL     1      23.471   5.086  52.073  1.00  0.00    -0.270 NA
HETATM    5  C5  UNL     1      23.853   3.789  52.687  1.00  0.00     0.270 C 
HETATM    6  N2  UNL     1      23.370   2.815  51.665  1.00  0.00    -0.373 N 
HETATM    7  C6  UNL     1      22.181   2.092  52.179  1.00  0.00     0.184 C 
HETATM    8  C7  UNL     1      24.230   3.024  50.474  1.00  0.00     0.106 A 
HETATM    9  C8  UNL     1      22.957   2.863  49.998  1.00  0.00     0.122 A 
HETATM   10  C9  UNL     1      22.542   3.732  49.020  1.00  0.00     0.073 A 
HETATM   11  C11 UNL     1      23.800   4.065  49.345  1.00  0.00     0.153 A 
HETATM   12  C12 UNL     1      24.998   4.088  49.908  1.00  0.00     0.145 A 
HETATM   13  C14 UNL     1      25.494   3.251  50.882  1.00  0.00     0.026 A 
HETATM   14  O4  UNL     1      23.737   5.197  48.455  1.00  0.00    -0.341 OA
HETATM   15  C15 UNL     1      22.930   6.261  49.050  1.00  0.00     0.150 C 
HETATM   16  C16 UNL     1      22.379   6.198  50.284  1.00  0.00     0.016 C 
ENDROOT
BRANCH  16  17
HETATM   17  C17 UNL     1      21.641   7.429  50.559  1.00  0.00     0.039 C 
BRANCH  17  18
HETATM   18  C18 UNL     1      20.537   7.748  49.920  1.00  0.00     0.132 C 
BRANCH  18  19
HETATM   19  O5  UNL     1      19.215   8.097  49.665  1.00  0.00    -0.373 OA
HETATM   20  H20 UNL     1      18.912   8.427  48.750  1.00  0.00     0.216 HD
ENDBRANCH  18  19
ENDBRANCH  17  18
ENDBRANCH  16  17
BRANCH   1  21
HETATM   21  O1  UNL     1      19.771   2.882  52.509  1.00  0.00    -0.358 OA
HETATM   22  C1  UNL     1      18.657   2.905  51.651  1.00  0.00     0.209 C 
ENDBRANCH   1  21
BRANCH  10  23
HETATM   23  O2  UNL     1      21.527   4.109  48.182  1.00  0.00    -0.361 OA
HETATM   24  C10 UNL     1      20.310   3.431  48.153  1.00  0.00     0.209 C 
ENDBRANCH  10  23
BRANCH  12  25
HETATM   25  O3  UNL     1      26.049   4.938  49.674  1.00  0.00    -0.375 OA
HETATM   26  C13 UNL     1      27.174   4.536  48.956  1.00  0.00     0.203 C 
ENDBRANCH  12  25
TORSDOF 6
ENDMDL
MODEL 5
REMARK VINA RESULT:      -5.7      2.471      3.166
REMARK  6 active torsions:
REMARK  status: ('A' for Active; 'I' for Inactive)
REMARK    1  A    between atoms: O1_2  and  C2_3 
REMARK    2  A    between atoms: C9_12  and  O2_13 
REMARK    3  A    between atoms: C12_16  and  O3_17 
REMARK    4  A    between atoms: C16_22  and  C17_23 
REMARK    5  A    between atoms: C17_23  and  C18_24 
REMARK    6  A    between atoms: C18_24  and  O5_25 
ROOT
HETATM    1  C2  UNL     1      20.973   5.165  50.720  1.00  0.00     0.065 C 
HETATM    2  C3  UNL     1      22.117   5.701  50.198  1.00  0.00     0.066 C 
HETATM    3  C4  UNL     1      23.501   5.425  50.716  1.00  0.00     0.067 C 
HETATM    4  N1  UNL     1      23.785   5.278  52.003  1.00  0.00    -0.270 NA
HETATM    5  C5  UNL     1      22.795   4.707  52.950  1.00  0.00     0.270 C 
HETATM    6  N2  UNL     1      22.150   3.650  52.116  1.00  0.00    -0.373 N 
HETATM    7  C6  UNL     1      20.769   4.061  51.763  1.00  0.00     0.184 C 
HETATM    8  C7  UNL     1      23.199   2.627  51.884  1.00  0.00     0.106 A 
HETATM    9  C8  UNL     1      22.545   2.777  50.691  1.00  0.00     0.122 A 
HETATM   10  C9  UNL     1      23.321   2.861  49.562  1.00  0.00     0.073 A 
HETATM   11  C11 UNL     1      24.149   2.726  50.608  1.00  0.00     0.153 A 
HETATM   12  C12 UNL     1      24.626   2.580  51.834  1.00  0.00     0.145 A 
HETATM   13  C14 UNL     1      23.921   2.478  53.012  1.00  0.00     0.026 A 
HETATM   14  O4  UNL     1      25.287   2.876  49.734  1.00  0.00    -0.341 OA
HETATM   15  C15 UNL     1      25.441   4.277  49.345  1.00  0.00     0.150 C 
HETATM   16  C16 UNL     1      24.658   5.283  49.797  1.00  0.00     0.016 C 
ENDROOT
BRANCH  16  17
HETATM   17  C17 UNL     1      25.091   6.547  49.207  1.00  0.00     0.039 C 
BRANCH  17  18
HETATM   18  C18 UNL     1      25.713   7.474  49.903  1.00  0.00     0.132 C 
BRANCH  18  19
HETATM   19  O5  UNL     1      26.684   8.132  50.651  1.00  0.00    -0.373 OA
HETATM   20  H20 UNL     1      26.491   8.493  51.583  1.00  0.00     0.216 HD
ENDBRANCH  18  19
ENDBRANCH  17  18
ENDBRANCH  16  17
BRANCH   1  21
HETATM   21  O1  UNL     1      19.930   5.824  50.112  1.00  0.00    -0.358 OA
HETATM   22  C1  UNL     1      20.051   7.024  49.389  1.00  0.00     0.209 C 
ENDBRANCH   1  21
BRANCH  10  23
HETATM   23  O2  UNL     1      23.344   2.995  48.199  1.00  0.00    -0.361 OA
HETATM   24  C10 UNL     1      22.172   3.088  47.451  1.00  0.00     0.209 C 
ENDBRANCH  10  23
BRANCH  12  25
HETATM   25  O3  UNL     1      25.930   2.492  52.251  1.00  0.00    -0.375 OA
HETATM   26  C13 UNL     1      26.270   1.961  53.494  1.00  0.00     0.203 C 
ENDBRANCH  12  25
TORSDOF 6
ENDMDL
MODEL 6
REMARK VINA RESULT:      -5.6      2.640      5.211
REMARK  6 active torsions:
REMARK  status: ('A' for Active; 'I' for Inactive)
REMARK    1  A    between atoms: O1_2  and  C2_3 
REMARK    2  A    between atoms: C9_12  and  O2_13 
REMARK    3  A    between atoms: C12_16  and  O3_17 
REMARK    4  A    between atoms: C16_22  and  C17_23 
REMARK    5  A    between atoms: C17_23  and  C18_24 
REMARK    6  A    between atoms: C18_24  and  O5_25 
ROOT
HETATM    1  C2  UNL     1      21.582   2.485  49.676  1.00  0.00     0.065 C 
HETATM    2  C3  UNL     1      22.874   2.856  49.421  1.00  0.00     0.066 C 
HETATM    3  C4  UNL     1      23.316   4.264  49.137  1.00  0.00     0.067 C 
HETATM    4  N1  UNL     1      22.600   5.128  48.431  1.00  0.00    -0.270 NA
HETATM    5  C5  UNL     1      21.116   5.083  48.433  1.00  0.00     0.270 C 
HETATM    6  N2  UNL     1      20.824   4.727  49.853  1.00  0.00    -0.373 N 
HETATM    7  C6  UNL     1      20.329   3.331  49.931  1.00  0.00     0.184 C 
HETATM    8  C7  UNL     1      21.243   5.903  50.655  1.00  0.00     0.106 A 
HETATM    9  C8  UNL     1      21.662   4.801  51.351  1.00  0.00     0.122 A 
HETATM   10  C9  UNL     1      22.933   4.836  51.869  1.00  0.00     0.073 A 
HETATM   11  C11 UNL     1      22.729   5.996  51.228  1.00  0.00     0.153 A 
HETATM   12  C12 UNL     1      22.177   6.978  50.532  1.00  0.00     0.145 A 
HETATM   13  C14 UNL     1      20.913   7.027  49.989  1.00  0.00     0.026 A 
HETATM   14  O4  UNL     1      24.091   6.388  51.491  1.00  0.00    -0.341 OA
HETATM   15  C15 UNL     1      25.003   5.659  50.611  1.00  0.00     0.150 C 
HETATM   16  C16 UNL     1      24.605   4.790  49.654  1.00  0.00     0.016 C 
ENDROOT
BRANCH  16  17
HETATM   17  C17 UNL     1      25.772   4.245  48.966  1.00  0.00     0.039 C 
BRANCH  17  18
HETATM   18  C18 UNL     1      27.003   4.546  49.317  1.00  0.00     0.132 C 
BRANCH  18  19
HETATM   19  O5  UNL     1      28.317   5.001  49.260  1.00  0.00    -0.373 OA
HETATM   20  H20 UNL     1      28.565   5.873  48.796  1.00  0.00     0.216 HD
ENDBRANCH  18  19
ENDBRANCH  17  18
ENDBRANCH  16  17
BRANCH   1  21
HETATM   21  O1  UNL     1      21.571   1.110  49.669  1.00  0.00    -0.358 OA
HETATM   22  C1  UNL     1      21.170   0.305  50.751  1.00  0.00     0.209 C 
ENDBRANCH   1  21
BRANCH  10  23
HETATM   23  O2  UNL     1      23.891   4.176  52.590  1.00  0.00    -0.361 OA
HETATM   24  C10 UNL     1      23.767   2.825  52.911  1.00  0.00     0.209 C 
ENDBRANCH  10  23
BRANCH  12  25
HETATM   25  O3  UNL     1      22.709   8.190  50.173  1.00  0.00    -0.375 OA
HETATM   26  C13 UNL     1      22.248   8.896  49.063  1.00  0.00     0.203 C 
ENDBRANCH  12  25
TORSDOF 6
ENDMDL
MODEL 7
REMARK VINA RESULT:      -5.6     23.641     26.307
REMARK  6 active torsions:
REMARK  status: ('A' for Active; 'I' for Inactive)
REMARK    1  A    between atoms: O1_2  and  C2_3 
REMARK    2  A    between atoms: C9_12  and  O2_13 
REMARK    3  A    between atoms: C12_16  and  O3_17 
REMARK    4  A    between atoms: C16_22  and  C17_23 
REMARK    5  A    between atoms: C17_23  and  C18_24 
REMARK    6  A    between atoms: C18_24  and  O5_25 
ROOT
HETATM    1  C2  UNL     1      40.304  -3.816  69.321  1.00  0.00     0.065 C 
HETATM    2  C3  UNL     1      39.515  -2.847  69.876  1.00  0.00     0.066 C 
HETATM    3  C4  UNL     1      39.936  -1.419  70.080  1.00  0.00     0.067 C 
HETATM    4  N1  UNL     1      41.163  -1.060  70.432  1.00  0.00    -0.270 NA
HETATM    5  C5  UNL     1      42.347  -1.854  70.018  1.00  0.00     0.270 C 
HETATM    6  N2  UNL     1      41.967  -2.269  68.635  1.00  0.00    -0.373 N 
HETATM    7  C6  UNL     1      41.659  -3.720  68.611  1.00  0.00     0.184 C 
HETATM    8  C7  UNL     1      41.955  -1.021  67.832  1.00  0.00     0.106 A 
HETATM    9  C8  UNL     1      40.856  -1.737  67.438  1.00  0.00     0.122 A 
HETATM   10  C9  UNL     1      39.679  -1.045  67.299  1.00  0.00     0.073 A 
HETATM   11  C11 UNL     1      40.615  -0.168  67.694  1.00  0.00     0.153 A 
HETATM   12  C12 UNL     1      41.763   0.375  68.067  1.00  0.00     0.145 A 
HETATM   13  C14 UNL     1      42.984  -0.242  68.220  1.00  0.00     0.026 A 
HETATM   14  O4  UNL     1      39.617   0.870  67.775  1.00  0.00    -0.341 OA
HETATM   15  C15 UNL     1      38.791   0.682  68.966  1.00  0.00     0.150 C 
HETATM   16  C16 UNL     1      38.985  -0.296  69.881  1.00  0.00     0.016 C 
ENDROOT
BRANCH  16  17
HETATM   17  C17 UNL     1      37.982  -0.190  70.937  1.00  0.00     0.039 C 
BRANCH  17  18
HETATM   18  C18 UNL     1      36.717   0.064  70.686  1.00  0.00     0.132 C 
BRANCH  18  19
HETATM   19  O5  UNL     1      35.471   0.685  70.682  1.00  0.00    -0.373 OA
HETATM   20  H20 UNL     1      35.359   1.663  70.423  1.00  0.00     0.216 HD
ENDBRANCH  18  19
ENDBRANCH  17  18
ENDBRANCH  16  17
BRANCH   1  21
HETATM   21  O1  UNL     1      39.640  -5.006  69.510  1.00  0.00    -0.358 OA
HETATM   22  C1  UNL     1      38.735  -5.574  68.596  1.00  0.00     0.209 C 
ENDBRANCH   1  21
BRANCH  10  23
HETATM   23  O2  UNL     1      38.351  -1.104  66.974  1.00  0.00    -0.361 OA
HETATM   24  C10 UNL     1      37.722  -2.312  66.678  1.00  0.00     0.209 C 
ENDBRANCH  10  23
BRANCH  12  25
HETATM   25  O3  UNL     1      42.038   1.679  68.393  1.00  0.00    -0.375 OA
HETATM   26  C13 UNL     1      42.393   2.053  69.688  1.00  0.00     0.203 C 
ENDBRANCH  12  25
TORSDOF 6
ENDMDL
MODEL 8
REMARK VINA RESULT:      -5.6      2.325      4.339
REMARK  6 active torsions:
REMARK  status: ('A' for Active; 'I' for Inactive)
REMARK    1  A    between atoms: O1_2  and  C2_3 
REMARK    2  A    between atoms: C9_12  and  O2_13 
REMARK    3  A    between atoms: C12_16  and  O3_17 
REMARK    4  A    between atoms: C16_22  and  C17_23 
REMARK    5  A    between atoms: C17_23  and  C18_24 
REMARK    6  A    between atoms: C18_24  and  O5_25 
ROOT
HETATM    1  C2  UNL     1      22.701   5.627  50.287  1.00  0.00     0.065 C 
HETATM    2  C3  UNL     1      22.409   4.522  49.538  1.00  0.00     0.066 C 
HETATM    3  C4  UNL     1      23.047   3.174  49.723  1.00  0.00     0.067 C 
HETATM    4  N1  UNL     1      24.323   3.005  50.043  1.00  0.00    -0.270 NA
HETATM    5  C5  UNL     1      25.046   3.997  50.877  1.00  0.00     0.270 C 
HETATM    6  N2  UNL     1      23.992   4.399  51.854  1.00  0.00    -0.373 N 
HETATM    7  C6  UNL     1      23.537   5.781  51.563  1.00  0.00     0.184 C 
HETATM    8  C7  UNL     1      23.742   3.200  52.691  1.00  0.00     0.106 A 
HETATM    9  C8  UNL     1      22.513   3.743  52.429  1.00  0.00     0.122 A 
HETATM   10  C9  UNL     1      21.512   2.875  52.068  1.00  0.00     0.073 A 
HETATM   11  C11 UNL     1      22.621   2.147  52.270  1.00  0.00     0.153 A 
HETATM   12  C12 UNL     1      23.861   1.782  52.554  1.00  0.00     0.145 A 
HETATM   13  C14 UNL     1      24.915   2.583  52.932  1.00  0.00     0.026 A 
HETATM   14  O4  UNL     1      21.925   0.959  51.843  1.00  0.00    -0.341 OA
HETATM   15  C15 UNL     1      21.770   0.962  50.389  1.00  0.00     0.150 C 
HETATM   16  C16 UNL     1      22.265   1.920  49.572  1.00  0.00     0.016 C 
ENDROOT
BRANCH  16  17
HETATM   17  C17 UNL     1      21.927   1.610  48.186  1.00  0.00     0.039 C 
BRANCH  17  18
HETATM   18  C18 UNL     1      22.220   2.417  47.190  1.00  0.00     0.132 C 
BRANCH  18  19
HETATM   19  O5  UNL     1      22.085   3.252  46.085  1.00  0.00    -0.373 OA
HETATM   20  H20 UNL     1      21.180   3.431  45.654  1.00  0.00     0.216 HD
ENDBRANCH  18  19
ENDBRANCH  17  18
ENDBRANCH  16  17
BRANCH   1  21
HETATM   21  O1  UNL     1      22.074   6.684  49.670  1.00  0.00    -0.358 OA
HETATM   22  C1  UNL     1      20.761   7.108  49.941  1.00  0.00     0.209 C 
ENDBRANCH   1  21
BRANCH  10  23
HETATM   23  O2  UNL     1      20.198   2.732  51.712  1.00  0.00    -0.361 OA
HETATM   24  C10 UNL     1      19.377   3.833  51.479  1.00  0.00     0.209 C 
ENDBRANCH  10  23
BRANCH  12  25
HETATM   25  O3  UNL     1      24.417   0.529  52.550  1.00  0.00    -0.375 OA
HETATM   26  C13 UNL     1      25.785   0.331  52.365  1.00  0.00     0.203 C 
ENDBRANCH  12  25
TORSDOF 6
ENDMDL
MODEL 9
REMARK VINA RESULT:      -5.4      2.497      4.972
REMARK  6 active torsions:
REMARK  status: ('A' for Active; 'I' for Inactive)
REMARK    1  A    between atoms: O1_2  and  C2_3 
REMARK    2  A    between atoms: C9_12  and  O2_13 
REMARK    3  A    between atoms: C12_16  and  O3_17 
REMARK    4  A    between atoms: C16_22  and  C17_23 
REMARK    5  A    between atoms: C17_23  and  C18_24 
REMARK    6  A    between atoms: C18_24  and  O5_25 
ROOT
HETATM    1  C2  UNL     1      24.161   5.740  49.083  1.00  0.00     0.065 C 
HETATM    2  C3  UNL     1      23.353   4.731  48.637  1.00  0.00     0.066 C 
HETATM    3  C4  UNL     1      23.171   3.413  49.336  1.00  0.00     0.067 C 
HETATM    4  N1  UNL     1      24.151   2.774  49.961  1.00  0.00    -0.270 NA
HETATM    5  C5  UNL     1      25.261   3.513  50.612  1.00  0.00     0.270 C 
HETATM    6  N2  UNL     1      24.548   4.696  51.179  1.00  0.00    -0.373 N 
HETATM    7  C6  UNL     1      24.905   5.915  50.412  1.00  0.00     0.184 C 
HETATM    8  C7  UNL     1      23.670   4.160  52.248  1.00  0.00     0.106 A 
HETATM    9  C8  UNL     1      22.926   5.096  51.580  1.00  0.00     0.122 A 
HETATM   10  C9  UNL     1      21.631   4.759  51.274  1.00  0.00     0.073 A 
HETATM   11  C11 UNL     1      22.176   3.713  51.913  1.00  0.00     0.153 A 
HETATM   12  C12 UNL     1      23.023   2.923  52.553  1.00  0.00     0.145 A 
HETATM   13  C14 UNL     1      24.328   3.185  52.906  1.00  0.00     0.026 A 
HETATM   14  O4  UNL     1      20.972   2.949  51.703  1.00  0.00    -0.341 OA
HETATM   15  C15 UNL     1      20.893   2.506  50.312  1.00  0.00     0.150 C 
HETATM   16  C16 UNL     1      21.850   2.738  49.384  1.00  0.00     0.016 C 
ENDROOT
BRANCH  16  17
HETATM   17  C17 UNL     1      21.448   2.157  48.105  1.00  0.00     0.039 C 
BRANCH  17  18
HETATM   18  C18 UNL     1      20.337   2.503  47.491  1.00  0.00     0.132 C 
BRANCH  18  19
HETATM   19  O5  UNL     1      19.003   2.819  47.258  1.00  0.00    -0.373 OA
HETATM   20  H20 UNL     1      18.517   2.514  46.417  1.00  0.00     0.216 HD
ENDBRANCH  18  19
ENDBRANCH  17  18
ENDBRANCH  16  17
BRANCH   1  21
HETATM   21  O1  UNL     1      24.212   6.666  48.068  1.00  0.00    -0.358 OA
HETATM   22  C1  UNL     1      25.338   7.447  47.749  1.00  0.00     0.209 C 
ENDBRANCH   1  21
BRANCH  10  23
HETATM   23  O2  UNL     1      20.454   5.154  50.696  1.00  0.00    -0.361 OA
HETATM   24  C10 UNL     1      20.376   6.293  49.896  1.00  0.00     0.209 C 
ENDBRANCH  10  23
BRANCH  12  25
HETATM   25  O3  UNL     1      22.829   1.651  53.029  1.00  0.00    -0.375 OA
HETATM   26  C13 UNL     1      23.788   0.652  52.870  1.00  0.00     0.203 C 
ENDBRANCH  12  25
TORSDOF 6
ENDMDL
