MODEL 1
REMARK VINA RESULT:      -8.1      0.000      0.000
REMARK  6 active torsions:
REMARK  status: ('A' for Active; 'I' for Inactive)
REMARK    1  A    between atoms: S1_2  and  C1_4 
REMARK    2  A    between atoms: S1_2  and  C3_7 
REMARK    3  A    between atoms: C1_4  and  C2_5 
REMARK    4  A    between atoms: C2_5  and  O3_6 
REMARK    5  A    between atoms: C6_10  and  N1_11 
REMARK    6  A    between atoms: N1_11  and  C7_12 
ROOT
HETATM    1  C3  UNL     1      25.542  -0.591  54.165  1.00  0.00     0.151 A 
HETATM    2  C4  UNL     1      24.553  -0.154  53.302  1.00  0.00     0.061 A 
HETATM    3  C5  UNL     1      23.218  -0.343  53.588  1.00  0.00     0.043 A 
HETATM    4  C6  UNL     1      22.287   0.118  52.682  1.00  0.00     0.142 A 
HETATM    5  N2  UNL     1      20.996  -0.052  52.933  1.00  0.00    -0.224 NA
HETATM    6  C12 UNL     1      20.625  -0.679  54.079  1.00  0.00     0.236 A 
HETATM    7  N3  UNL     1      21.549  -1.131  54.970  1.00  0.00    -0.240 NA
HETATM    8  C13 UNL     1      22.866  -0.977  54.748  1.00  0.00     0.089 A 
HETATM    9  C14 UNL     1      23.866  -1.404  55.596  1.00  0.00     0.150 A 
HETATM   10  N4  UNL     1      25.176  -1.212  55.304  1.00  0.00    -0.247 NA
ENDROOT
BRANCH   4  11
HETATM   11  N1  UNL     1      22.602   0.780  51.463  1.00  0.00    -0.339 N 
HETATM   12  H7  UNL     1      22.585   0.444  50.479  1.00  0.00     0.167 HD
BRANCH  11  13
HETATM   13  C7  UNL     1      23.034   2.145  51.378  1.00  0.00     0.046 C 
HETATM   14  C8  UNL     1      22.770   3.177  52.163  1.00  0.00     0.004 C 
HETATM   15  C9  UNL     1      23.700   4.117  52.122  1.00  0.00     0.033 C 
HETATM   16  C10 UNL     1      24.319   3.951  50.800  1.00  0.00     0.014 C 
HETATM   17 BR1  UNL     1      25.479   5.014  49.708  1.00  0.00    -0.051 Br
HETATM   18  C11 UNL     1      23.913   2.755  50.356  1.00  0.00     0.049 C 
ENDBRANCH  11  13
ENDBRANCH   4  11
BRANCH   1  19
HETATM   19  S1  UNL     1      27.244  -0.365  53.832  1.00  0.00     0.194 S 
HETATM   20  O1  UNL     1      27.788  -1.612  53.195  1.00  0.00    -0.221 OA
HETATM   21  O2  UNL     1      28.011  -0.080  55.103  1.00  0.00    -0.221 OA
BRANCH  19  22
HETATM   22  C1  UNL     1      27.527   0.978  52.705  1.00  0.00     0.173 C 
BRANCH  22  23
HETATM   23  C2  UNL     1      28.356   2.076  53.305  1.00  0.00     0.179 C 
BRANCH  23  24
HETATM   24  O3  UNL     1      27.555   2.833  54.188  1.00  0.00    -0.400 OA
HETATM   25  H5  UNL     1      26.625   2.495  54.211  1.00  0.00     0.209 HD
ENDBRANCH  23  24
ENDBRANCH  22  23
ENDBRANCH  19  22
ENDBRANCH   1  19
TORSDOF 6
ENDMDL
MODEL 2
REMARK VINA RESULT:      -8.0      1.185      1.476
REMARK  6 active torsions:
REMARK  status: ('A' for Active; 'I' for Inactive)
REMARK    1  A    between atoms: S1_2  and  C1_4 
REMARK    2  A    between atoms: S1_2  and  C3_7 
REMARK    3  A    between atoms: C1_4  and  C2_5 
REMARK    4  A    between atoms: C2_5  and  O3_6 
REMARK    5  A    between atoms: C6_10  and  N1_11 
REMARK    6  A    between atoms: N1_11  and  C7_12 
ROOT
HETATM    1  C3  UNL     1      25.780  -0.222  54.171  1.00  0.00     0.151 A 
HETATM    2  C4  UNL     1      24.705   0.053  53.345  1.00  0.00     0.061 A 
HETATM    3  C5  UNL     1      23.431  -0.362  53.667  1.00  0.00     0.043 A 
HETATM    4  C6  UNL     1      22.407  -0.054  52.797  1.00  0.00     0.142 A 
HETATM    5  N2  UNL     1      21.172  -0.442  53.084  1.00  0.00    -0.224 NA
HETATM    6  C12 UNL     1      20.948  -1.136  54.229  1.00  0.00     0.236 A 
HETATM    7  N3  UNL     1      21.963  -1.437  55.084  1.00  0.00    -0.240 NA
HETATM    8  C13 UNL     1      23.228  -1.060  54.826  1.00  0.00     0.089 A 
HETATM    9  C14 UNL     1      24.312  -1.324  55.636  1.00  0.00     0.150 A 
HETATM   10  N4  UNL     1      25.561  -0.910  55.309  1.00  0.00    -0.247 NA
ENDROOT
BRANCH   4  11
HETATM   11  N1  UNL     1      22.566   0.667  51.582  1.00  0.00    -0.339 N 
HETATM   12  H7  UNL     1      22.426   0.378  50.592  1.00  0.00     0.167 HD
BRANCH  11  13
HETATM   13  C7  UNL     1      22.985   2.037  51.507  1.00  0.00     0.046 C 
HETATM   14  C8  UNL     1      22.686   3.066  52.284  1.00  0.00     0.004 C 
HETATM   15  C9  UNL     1      23.606   4.017  52.269  1.00  0.00     0.033 C 
HETATM   16  C10 UNL     1      24.265   3.858  50.966  1.00  0.00     0.014 C 
HETATM   17 BR1  UNL     1      25.442   4.934  49.907  1.00  0.00    -0.051 Br
HETATM   18  C11 UNL     1      23.885   2.657  50.511  1.00  0.00     0.049 C 
ENDBRANCH  11  13
ENDBRANCH   4  11
BRANCH   1  19
HETATM   19  S1  UNL     1      27.409   0.291  53.791  1.00  0.00     0.194 S 
HETATM   20  O1  UNL     1      28.025   0.909  55.014  1.00  0.00    -0.221 OA
HETATM   21  O2  UNL     1      27.410   1.303  52.668  1.00  0.00    -0.221 OA
BRANCH  19  22
HETATM   22  C1  UNL     1      28.437  -1.073  53.305  1.00  0.00     0.173 C 
BRANCH  22  23
HETATM   23  C2  UNL     1      29.887  -0.852  53.627  1.00  0.00     0.179 C 
BRANCH  23  24
HETATM   24  O3  UNL     1      30.220   0.495  53.364  1.00  0.00    -0.400 OA
HETATM   25  H5  UNL     1      30.670   0.591  52.489  1.00  0.00     0.209 HD
ENDBRANCH  23  24
ENDBRANCH  22  23
ENDBRANCH  19  22
ENDBRANCH   1  19
TORSDOF 6
ENDMDL
MODEL 3
REMARK VINA RESULT:      -7.6      2.934      4.910
REMARK  6 active torsions:
REMARK  status: ('A' for Active; 'I' for Inactive)
REMARK    1  A    between atoms: S1_2  and  C1_4 
REMARK    2  A    between atoms: S1_2  and  C3_7 
REMARK    3  A    between atoms: C1_4  and  C2_5 
REMARK    4  A    between atoms: C2_5  and  O3_6 
REMARK    5  A    between atoms: C6_10  and  N1_11 
REMARK    6  A    between atoms: N1_11  and  C7_12 
ROOT
HETATM    1  C3  UNL     1      26.700   1.124  52.961  1.00  0.00     0.151 A 
HETATM    2  C4  UNL     1      25.334   1.290  53.111  1.00  0.00     0.061 A 
HETATM    3  C5  UNL     1      24.592   1.992  52.187  1.00  0.00     0.043 A 
HETATM    4  C6  UNL     1      23.236   2.118  52.401  1.00  0.00     0.142 A 
HETATM    5  N2  UNL     1      22.499   2.788  51.525  1.00  0.00    -0.224 NA
HETATM    6  C12 UNL     1      23.102   3.335  50.438  1.00  0.00     0.236 A 
HETATM    7  N3  UNL     1      24.442   3.206  50.232  1.00  0.00    -0.240 NA
HETATM    8  C13 UNL     1      25.220   2.534  51.098  1.00  0.00     0.089 A 
HETATM    9  C14 UNL     1      26.580   2.357  50.965  1.00  0.00     0.150 A 
HETATM   10  N4  UNL     1      27.301   1.665  51.883  1.00  0.00    -0.247 NA
ENDROOT
BRANCH   4  11
HETATM   11  N1  UNL     1      22.539   1.575  53.515  1.00  0.00    -0.339 N 
HETATM   12  H7  UNL     1      22.490   1.882  54.507  1.00  0.00     0.167 HD
BRANCH  11  13
HETATM   13  C7  UNL     1      21.710   0.406  53.453  1.00  0.00     0.046 C 
HETATM   14  C8  UNL     1      22.008  -0.866  53.670  1.00  0.00     0.004 C 
HETATM   15  C9  UNL     1      20.964  -1.591  54.040  1.00  0.00     0.033 C 
HETATM   16  C10 UNL     1      19.812  -0.877  53.474  1.00  0.00     0.014 C 
HETATM   17 BR1  UNL     1      17.970  -1.305  53.179  1.00  0.00    -0.051 Br
HETATM   18  C11 UNL     1      20.270   0.331  53.122  1.00  0.00     0.049 C 
ENDBRANCH  11  13
ENDBRANCH   4  11
BRANCH   1  19
HETATM   19  S1  UNL     1      27.670   0.239  54.116  1.00  0.00     0.194 S 
HETATM   20  O1  UNL     1      26.761  -0.463  55.084  1.00  0.00    -0.221 OA
HETATM   21  O2  UNL     1      28.585   1.169  54.879  1.00  0.00    -0.221 OA
BRANCH  19  22
HETATM   22  C1  UNL     1      28.673  -0.998  53.330  1.00  0.00     0.173 C 
BRANCH  22  23
HETATM   23  C2  UNL     1      27.885  -2.205  52.911  1.00  0.00     0.179 C 
BRANCH  23  24
HETATM   24  O3  UNL     1      28.544  -3.369  53.364  1.00  0.00    -0.400 OA
HETATM   25  H5  UNL     1      29.416  -3.152  53.776  1.00  0.00     0.209 HD
ENDBRANCH  23  24
ENDBRANCH  22  23
ENDBRANCH  19  22
ENDBRANCH   1  19
TORSDOF 6
ENDMDL
MODEL 4
REMARK VINA RESULT:      -7.5      2.398      2.702
REMARK  6 active torsions:
REMARK  status: ('A' for Active; 'I' for Inactive)
REMARK    1  A    between atoms: S1_2  and  C1_4 
REMARK    2  A    between atoms: S1_2  and  C3_7 
REMARK    3  A    between atoms: C1_4  and  C2_5 
REMARK    4  A    between atoms: C2_5  and  O3_6 
REMARK    5  A    between atoms: C6_10  and  N1_11 
REMARK    6  A    between atoms: N1_11  and  C7_12 
ROOT
HETATM    1  C3  UNL     1      25.424   0.052  54.117  1.00  0.00     0.151 A 
HETATM    2  C4  UNL     1      24.262   0.264  53.396  1.00  0.00     0.061 A 
HETATM    3  C5  UNL     1      23.080  -0.353  53.743  1.00  0.00     0.043 A 
HETATM    4  C6  UNL     1      21.963  -0.096  52.979  1.00  0.00     0.142 A 
HETATM    5  N2  UNL     1      20.813  -0.677  53.293  1.00  0.00    -0.224 NA
HETATM    6  C12 UNL     1      20.768  -1.514  54.362  1.00  0.00     0.236 A 
HETATM    7  N3  UNL     1      21.875  -1.764  55.113  1.00  0.00    -0.240 NA
HETATM    8  C13 UNL     1      23.057  -1.192  54.824  1.00  0.00     0.089 A 
HETATM    9  C14 UNL     1      24.224  -1.391  55.531  1.00  0.00     0.150 A 
HETATM   10  N4  UNL     1      25.382  -0.778  55.179  1.00  0.00    -0.247 NA
ENDROOT
BRANCH   4  11
HETATM   11  N1  UNL     1      21.936   0.765  51.848  1.00  0.00    -0.339 N 
HETATM   12  H7  UNL     1      22.539   0.801  51.001  1.00  0.00     0.167 HD
BRANCH  11  13
HETATM   13  C7  UNL     1      20.989   1.827  51.668  1.00  0.00     0.046 C 
HETATM   14  C8  UNL     1      20.858   2.976  52.313  1.00  0.00     0.004 C 
HETATM   15  C9  UNL     1      20.264   3.914  51.594  1.00  0.00     0.033 C 
HETATM   16  C10 UNL     1      19.445   3.165  50.632  1.00  0.00     0.014 C 
HETATM   17 BR1  UNL     1      18.010   3.610  49.445  1.00  0.00    -0.051 Br
HETATM   18  C11 UNL     1      19.889   1.903  50.681  1.00  0.00     0.049 C 
ENDBRANCH  11  13
ENDBRANCH   4  11
BRANCH   1  19
HETATM   19  S1  UNL     1      26.939   0.820  53.702  1.00  0.00     0.194 S 
HETATM   20  O1  UNL     1      26.923   2.237  54.199  1.00  0.00    -0.221 OA
HETATM   21  O2  UNL     1      27.154   0.820  52.206  1.00  0.00    -0.221 OA
BRANCH  19  22
HETATM   22  C1  UNL     1      28.325   0.004  54.457  1.00  0.00     0.173 C 
BRANCH  22  23
HETATM   23  C2  UNL     1      29.614   0.254  53.730  1.00  0.00     0.179 C 
BRANCH  23  24
HETATM   24  O3  UNL     1      29.627   1.584  53.254  1.00  0.00    -0.400 OA
HETATM   25  H5  UNL     1      29.239   2.208  53.916  1.00  0.00     0.209 HD
ENDBRANCH  23  24
ENDBRANCH  22  23
ENDBRANCH  19  22
ENDBRANCH   1  19
TORSDOF 6
ENDMDL
MODEL 5
REMARK VINA RESULT:      -7.4      2.501      3.767
REMARK  6 active torsions:
REMARK  status: ('A' for Active; 'I' for Inactive)
REMARK    1  A    between atoms: S1_2  and  C1_4 
REMARK    2  A    between atoms: S1_2  and  C3_7 
REMARK    3  A    between atoms: C1_4  and  C2_5 
REMARK    4  A    between atoms: C2_5  and  O3_6 
REMARK    5  A    between atoms: C6_10  and  N1_11 
REMARK    6  A    between atoms: N1_11  and  C7_12 
ROOT
HETATM    1  C3  UNL     1      25.143   1.665  53.367  1.00  0.00     0.151 A 
HETATM    2  C4  UNL     1      24.682   2.933  53.058  1.00  0.00     0.061 A 
HETATM    3  C5  UNL     1      23.383   3.144  52.651  1.00  0.00     0.043 A 
HETATM    4  C6  UNL     1      22.993   4.433  52.358  1.00  0.00     0.142 A 
HETATM    5  N2  UNL     1      21.748   4.662  51.965  1.00  0.00    -0.224 NA
HETATM    6  C12 UNL     1      20.888   3.617  51.858  1.00  0.00     0.236 A 
HETATM    7  N3  UNL     1      21.278   2.346  52.149  1.00  0.00    -0.240 NA
HETATM    8  C13 UNL     1      22.533   2.076  52.551  1.00  0.00     0.089 A 
HETATM    9  C14 UNL     1      23.009   0.821  52.864  1.00  0.00     0.150 A 
HETATM   10  N4  UNL     1      24.290   0.626  53.263  1.00  0.00    -0.247 NA
ENDROOT
BRANCH   4  11
HETATM   11  N1  UNL     1      23.838   5.574  52.446  1.00  0.00    -0.339 N 
HETATM   12  H7  UNL     1      24.298   6.023  53.264  1.00  0.00     0.167 HD
BRANCH  11  13
HETATM   13  C7  UNL     1      24.235   6.370  51.321  1.00  0.00     0.046 C 
HETATM   14  C8  UNL     1      23.830   7.570  50.937  1.00  0.00     0.004 C 
HETATM   15  C9  UNL     1      24.726   8.216  50.209  1.00  0.00     0.033 C 
HETATM   16  C10 UNL     1      25.529   7.148  49.599  1.00  0.00     0.014 C 
HETATM   17 BR1  UNL     1      26.796   7.062  48.165  1.00  0.00    -0.051 Br
HETATM   18  C11 UNL     1      25.228   6.034  50.277  1.00  0.00     0.049 C 
ENDBRANCH  11  13
ENDBRANCH   4  11
BRANCH   1  19
HETATM   19  S1  UNL     1      26.785   1.365  53.887  1.00  0.00     0.194 S 
HETATM   20  O1  UNL     1      26.758   0.633  55.198  1.00  0.00    -0.221 OA
HETATM   21  O2  UNL     1      27.545   2.660  54.056  1.00  0.00    -0.221 OA
BRANCH  19  22
HETATM   22  C1  UNL     1      27.673   0.353  52.728  1.00  0.00     0.173 C 
BRANCH  22  23
HETATM   23  C2  UNL     1      27.735  -1.088  53.143  1.00  0.00     0.179 C 
BRANCH  23  24
HETATM   24  O3  UNL     1      26.452  -1.507  53.559  1.00  0.00    -0.400 OA
HETATM   25  H5  UNL     1      26.413  -1.631  54.539  1.00  0.00     0.209 HD
ENDBRANCH  23  24
ENDBRANCH  22  23
ENDBRANCH  19  22
ENDBRANCH   1  19
TORSDOF 6
ENDMDL
MODEL 6
REMARK VINA RESULT:      -7.1      3.499      5.216
REMARK  6 active torsions:
REMARK  status: ('A' for Active; 'I' for Inactive)
REMARK    1  A    between atoms: S1_2  and  C1_4 
REMARK    2  A    between atoms: S1_2  and  C3_7 
REMARK    3  A    between atoms: C1_4  and  C2_5 
REMARK    4  A    between atoms: C2_5  and  O3_6 
REMARK    5  A    between atoms: C6_10  and  N1_11 
REMARK    6  A    between atoms: N1_11  and  C7_12 
ROOT
HETATM    1  C3  UNL     1      22.563   2.581  51.287  1.00  0.00     0.151 A 
HETATM    2  C4  UNL     1      23.171   1.454  51.809  1.00  0.00     0.061 A 
HETATM    3  C5  UNL     1      22.568   0.707  52.798  1.00  0.00     0.043 A 
HETATM    4  C6  UNL     1      23.233  -0.403  53.272  1.00  0.00     0.142 A 
HETATM    5  N2  UNL     1      22.674  -1.138  54.224  1.00  0.00    -0.224 NA
HETATM    6  C12 UNL     1      21.458  -0.775  54.708  1.00  0.00     0.236 A 
HETATM    7  N3  UNL     1      20.807   0.323  54.236  1.00  0.00    -0.240 NA
HETATM    8  C13 UNL     1      21.343   1.091  53.272  1.00  0.00     0.089 A 
HETATM    9  C14 UNL     1      20.752   2.217  52.739  1.00  0.00     0.150 A 
HETATM   10  N4  UNL     1      21.356   2.943  51.765  1.00  0.00    -0.247 NA
ENDROOT
BRANCH   4  11
HETATM   11  N1  UNL     1      24.505  -0.842  52.814  1.00  0.00    -0.339 N 
HETATM   12  H7  UNL     1      24.768  -1.524  52.073  1.00  0.00     0.167 HD
BRANCH  11  13
HETATM   13  C7  UNL     1      25.755  -0.379  53.344  1.00  0.00     0.046 C 
HETATM   14  C8  UNL     1      26.005   0.490  54.311  1.00  0.00     0.004 C 
HETATM   15  C9  UNL     1      27.180   0.304  54.890  1.00  0.00     0.033 C 
HETATM   16  C10 UNL     1      27.987  -0.360  53.858  1.00  0.00     0.014 C 
HETATM   17 BR1  UNL     1      29.854  -0.712  53.623  1.00  0.00    -0.051 Br
HETATM   18  C11 UNL     1      27.119  -0.772  52.926  1.00  0.00     0.049 C 
ENDBRANCH  11  13
ENDBRANCH   4  11
BRANCH   1  19
HETATM   19  S1  UNL     1      23.302   3.549  50.031  1.00  0.00     0.194 S 
HETATM   20  O1  UNL     1      22.482   3.434  48.778  1.00  0.00    -0.221 OA
HETATM   21  O2  UNL     1      24.712   3.084  49.749  1.00  0.00    -0.221 OA
BRANCH  19  22
HETATM   22  C1  UNL     1      23.366   5.269  50.472  1.00  0.00     0.173 C 
BRANCH  22  23
HETATM   23  C2  UNL     1      23.691   5.486  51.921  1.00  0.00     0.179 C 
BRANCH  23  24
HETATM   24  O3  UNL     1      24.372   6.714  52.064  1.00  0.00    -0.400 OA
HETATM   25  H5  UNL     1      24.476   6.960  53.017  1.00  0.00     0.209 HD
ENDBRANCH  23  24
ENDBRANCH  22  23
ENDBRANCH  19  22
ENDBRANCH   1  19
TORSDOF 6
ENDMDL
MODEL 7
REMARK VINA RESULT:      -7.0      3.639      5.382
REMARK  6 active torsions:
REMARK  status: ('A' for Active; 'I' for Inactive)
REMARK    1  A    between atoms: S1_2  and  C1_4 
REMARK    2  A    between atoms: S1_2  and  C3_7 
REMARK    3  A    between atoms: C1_4  and  C2_5 
REMARK    4  A    between atoms: C2_5  and  O3_6 
REMARK    5  A    between atoms: C6_10  and  N1_11 
REMARK    6  A    between atoms: N1_11  and  C7_12 
ROOT
HETATM    1  C3  UNL     1      23.564   1.975  51.683  1.00  0.00     0.151 A 
HETATM    2  C4  UNL     1      22.546   1.454  52.463  1.00  0.00     0.061 A 
HETATM    3  C5  UNL     1      22.791   0.476  53.402  1.00  0.00     0.043 A 
HETATM    4  C6  UNL     1      21.729   0.003  54.142  1.00  0.00     0.142 A 
HETATM    5  N2  UNL     1      21.939  -0.938  55.052  1.00  0.00    -0.224 NA
HETATM    6  C12 UNL     1      23.199  -1.413  55.230  1.00  0.00     0.236 A 
HETATM    7  N3  UNL     1      24.244  -0.942  54.496  1.00  0.00    -0.240 NA
HETATM    8  C13 UNL     1      24.068   0.012  53.565  1.00  0.00     0.089 A 
HETATM    9  C14 UNL     1      25.069   0.543  52.780  1.00  0.00     0.150 A 
HETATM   10  N4  UNL     1      24.815   1.506  51.859  1.00  0.00    -0.247 NA
ENDROOT
BRANCH   4  11
HETATM   11  N1  UNL     1      20.387   0.452  54.009  1.00  0.00    -0.339 N 
HETATM   12  H7  UNL     1      19.892   1.265  54.430  1.00  0.00     0.167 HD
BRANCH  11  13
HETATM   13  C7  UNL     1      19.397  -0.199  53.200  1.00  0.00     0.046 C 
HETATM   14  C8  UNL     1      18.693  -1.297  53.428  1.00  0.00     0.004 C 
HETATM   15  C9  UNL     1      17.546  -1.328  52.768  1.00  0.00     0.033 C 
HETATM   16  C10 UNL     1      17.781  -0.470  51.600  1.00  0.00     0.014 C 
HETATM   17 BR1  UNL     1      16.878  -0.175  49.938  1.00  0.00    -0.051 Br
HETATM   18  C11 UNL     1      18.902   0.211  51.868  1.00  0.00     0.049 C 
ENDBRANCH  11  13
ENDBRANCH   4  11
BRANCH   1  19
HETATM   19  S1  UNL     1      23.285   3.217  50.484  1.00  0.00     0.194 S 
HETATM   20  O1  UNL     1      21.807   3.455  50.359  1.00  0.00    -0.221 OA
HETATM   21  O2  UNL     1      23.838   2.804  49.139  1.00  0.00    -0.221 OA
BRANCH  19  22
HETATM   22  C1  UNL     1      24.039   4.759  50.940  1.00  0.00     0.173 C 
BRANCH  22  23
HETATM   23  C2  UNL     1      25.339   5.003  50.230  1.00  0.00     0.179 C 
BRANCH  23  24
HETATM   24  O3  UNL     1      26.275   4.023  50.628  1.00  0.00    -0.400 OA
HETATM   25  H5  UNL     1      26.142   3.760  51.573  1.00  0.00     0.209 HD
ENDBRANCH  23  24
ENDBRANCH  22  23
ENDBRANCH  19  22
ENDBRANCH   1  19
TORSDOF 6
ENDMDL
MODEL 8
REMARK VINA RESULT:      -6.9      1.736      2.391
REMARK  6 active torsions:
REMARK  status: ('A' for Active; 'I' for Inactive)
REMARK    1  A    between atoms: S1_2  and  C1_4 
REMARK    2  A    between atoms: S1_2  and  C3_7 
REMARK    3  A    between atoms: C1_4  and  C2_5 
REMARK    4  A    between atoms: C2_5  and  O3_6 
REMARK    5  A    between atoms: C6_10  and  N1_11 
REMARK    6  A    between atoms: N1_11  and  C7_12 
ROOT
HETATM    1  C3  UNL     1      24.769   0.015  53.871  1.00  0.00     0.151 A 
HETATM    2  C4  UNL     1      24.045   0.730  52.933  1.00  0.00     0.061 A 
HETATM    3  C5  UNL     1      22.690   0.537  52.776  1.00  0.00     0.043 A 
HETATM    4  C6  UNL     1      22.033   1.284  51.822  1.00  0.00     0.142 A 
HETATM    5  N2  UNL     1      20.728   1.118  51.651  1.00  0.00    -0.224 NA
HETATM    6  C12 UNL     1      20.073   0.213  52.423  1.00  0.00     0.236 A 
HETATM    7  N3  UNL     1      20.727  -0.521  53.364  1.00  0.00    -0.240 NA
HETATM    8  C13 UNL     1      22.049  -0.379  53.565  1.00  0.00     0.089 A 
HETATM    9  C14 UNL     1      22.787  -1.081  54.494  1.00  0.00     0.150 A 
HETATM   10  N4  UNL     1      24.121  -0.883  54.639  1.00  0.00    -0.247 NA
ENDROOT
BRANCH   4  11
HETATM   11  N1  UNL     1      22.653   2.246  50.978  1.00  0.00    -0.339 N 
HETATM   12  H7  UNL     1      23.153   2.140  50.072  1.00  0.00     0.167 HD
BRANCH  11  13
HETATM   13  C7  UNL     1      22.698   3.652  51.259  1.00  0.00     0.046 C 
HETATM   14  C8  UNL     1      23.541   4.348  52.006  1.00  0.00     0.004 C 
HETATM   15  C9  UNL     1      23.631   5.618  51.647  1.00  0.00     0.033 C 
HETATM   16  C10 UNL     1      22.344   5.900  50.998  1.00  0.00     0.014 C 
HETATM   17 BR1  UNL     1      21.413   7.490  50.477  1.00  0.00    -0.051 Br
HETATM   18  C11 UNL     1      21.785   4.706  50.766  1.00  0.00     0.049 C 
ENDBRANCH  11  13
ENDBRANCH   4  11
BRANCH   1  19
HETATM   19  S1  UNL     1      26.489   0.236  54.095  1.00  0.00     0.194 S 
HETATM   20  O1  UNL     1      26.923  -0.511  55.324  1.00  0.00    -0.221 OA
HETATM   21  O2  UNL     1      26.830   1.700  54.256  1.00  0.00    -0.221 OA
BRANCH  19  22
HETATM   22  C1  UNL     1      27.423  -0.399  52.725  1.00  0.00     0.173 C 
BRANCH  22  23
HETATM   23  C2  UNL     1      28.362  -1.501  53.122  1.00  0.00     0.179 C 
BRANCH  23  24
HETATM   24  O3  UNL     1      27.656  -2.724  53.148  1.00  0.00    -0.400 OA
HETATM   25  H5  UNL     1      27.906  -3.269  53.936  1.00  0.00     0.209 HD
ENDBRANCH  23  24
ENDBRANCH  22  23
ENDBRANCH  19  22
ENDBRANCH   1  19
TORSDOF 6
ENDMDL
MODEL 9
REMARK VINA RESULT:      -6.9      3.283      4.962
REMARK  6 active torsions:
REMARK  status: ('A' for Active; 'I' for Inactive)
REMARK    1  A    between atoms: S1_2  and  C1_4 
REMARK    2  A    between atoms: S1_2  and  C3_7 
REMARK    3  A    between atoms: C1_4  and  C2_5 
REMARK    4  A    between atoms: C2_5  and  O3_6 
REMARK    5  A    between atoms: C6_10  and  N1_11 
REMARK    6  A    between atoms: N1_11  and  C7_12 
ROOT
HETATM    1  C3  UNL     1      24.194  -0.385  54.236  1.00  0.00     0.151 A 
HETATM    2  C4  UNL     1      24.635   0.481  53.252  1.00  0.00     0.061 A 
HETATM    3  C5  UNL     1      25.914   0.992  53.268  1.00  0.00     0.043 A 
HETATM    4  C6  UNL     1      26.285   1.850  52.255  1.00  0.00     0.142 A 
HETATM    5  N2  UNL     1      27.511   2.355  52.248  1.00  0.00    -0.224 NA
HETATM    6  C12 UNL     1      28.371   2.013  53.242  1.00  0.00     0.236 A 
HETATM    7  N3  UNL     1      27.999   1.164  54.239  1.00  0.00    -0.240 NA
HETATM    8  C13 UNL     1      26.764   0.633  54.279  1.00  0.00     0.089 A 
HETATM    9  C14 UNL     1      26.308  -0.232  55.250  1.00  0.00     0.150 A 
HETATM   10  N4  UNL     1      25.045  -0.728  55.224  1.00  0.00    -0.247 NA
ENDROOT
BRANCH   4  11
HETATM   11  N1  UNL     1      25.440   2.253  51.185  1.00  0.00    -0.339 N 
HETATM   12  H7  UNL     1      24.759   1.714  50.612  1.00  0.00     0.167 HD
BRANCH  11  13
HETATM   13  C7  UNL     1      25.376   3.589  50.669  1.00  0.00     0.046 C 
HETATM   14  C8  UNL     1      26.056   4.159  49.685  1.00  0.00     0.004 C 
HETATM   15  C9  UNL     1      25.419   5.180  49.134  1.00  0.00     0.033 C 
HETATM   16  C10 UNL     1      24.529   5.664  50.197  1.00  0.00     0.014 C 
HETATM   17 BR1  UNL     1      23.501   7.255  50.477  1.00  0.00    -0.051 Br
HETATM   18  C11 UNL     1      24.507   4.697  51.122  1.00  0.00     0.049 C 
ENDBRANCH  11  13
ENDBRANCH   4  11
BRANCH   1  19
HETATM   19  S1  UNL     1      22.577  -1.051  54.244  1.00  0.00     0.194 S 
HETATM   20  O1  UNL     1      22.454  -2.028  55.379  1.00  0.00    -0.221 OA
HETATM   21  O2  UNL     1      22.276  -1.759  52.943  1.00  0.00    -0.221 OA
BRANCH  19  22
HETATM   22  C1  UNL     1      21.344   0.205  54.485  1.00  0.00     0.173 C 
BRANCH  22  23
HETATM   23  C2  UNL     1      20.524   0.458  53.254  1.00  0.00     0.179 C 
BRANCH  23  24
HETATM   24  O3  UNL     1      19.540  -0.549  53.137  1.00  0.00    -0.400 OA
HETATM   25  H5  UNL     1      19.002  -0.433  52.315  1.00  0.00     0.209 HD
ENDBRANCH  23  24
ENDBRANCH  22  23
ENDBRANCH  19  22
ENDBRANCH   1  19
TORSDOF 6
ENDMDL
