MODEL 1
REMARK VINA RESULT:      -8.5      0.000      0.000
REMARK  2 active torsions:
REMARK  status: ('A' for Active; 'I' for Inactive)
REMARK    1  A    between atoms: C5_5  and  C6_6 
REMARK    2  A    between atoms: C6_6  and  C7_7 
ROOT
HETATM    1  C1  UNL     1      18.127   0.267  50.198  1.00  0.00     0.045 C 
HETATM    2  C2  UNL     1      19.441   0.954  50.241  1.00  0.00    -0.066 C 
HETATM    3  C3  UNL     1      20.140   0.329  51.243  1.00  0.00     0.005 C 
HETATM    4  C4  UNL     1      21.416   0.352  51.913  1.00  0.00     0.008 C 
HETATM    5  C5  UNL     1      22.496   0.230  52.631  1.00  0.00    -0.044 C 
HETATM    6  C8  UNL     1      23.777   0.939  52.587  1.00  0.00    -0.016 A 
HETATM    7  C9  UNL     1      24.796   0.007  52.456  1.00  0.00     0.013 A 
HETATM    8  C10 UNL     1      26.169   0.146  52.346  1.00  0.00     0.001 A 
HETATM    9  C11 UNL     1      26.584   1.494  52.377  1.00  0.00     0.001 A 
HETATM   10  C12 UNL     1      25.575   2.465  52.508  1.00  0.00     0.016 A 
HETATM   11  C13 UNL     1      24.207   2.271  52.613  1.00  0.00     0.026 A 
HETATM   12  C14 UNL     1      23.812   3.693  52.670  1.00  0.00     0.195 C 
HETATM   13  O2  UNL     1      23.921   4.609  53.474  1.00  0.00    -0.287 OA
HETATM   14  C15 UNL     1      23.116   4.084  51.415  1.00  0.00     0.041 A 
HETATM   15  C16 UNL     1      23.869   4.551  50.360  1.00  0.00     0.135 A 
HETATM   16  N1  UNL     1      23.004   4.632  49.321  1.00  0.00    -0.239 N 
HETATM   17  N2  UNL     1      23.061   4.936  48.062  1.00  0.00    -0.161 NA
HETATM   18  C17 UNL     1      22.028   4.864  47.209  1.00  0.00     0.258 A 
HETATM   19  N3  UNL     1      20.809   4.433  47.674  1.00  0.00    -0.221 NA
HETATM   20  C18 UNL     1      20.726   4.098  49.019  1.00  0.00     0.154 A 
HETATM   21  C19 UNL     1      21.867   4.219  49.853  1.00  0.00     0.110 A 
HETATM   22  C20 UNL     1      21.776   3.851  51.169  1.00  0.00    -0.014 A 
HETATM   23  C21 UNL     1      20.950   3.478  52.321  1.00  0.00     0.052 C 
HETATM   24  N4  UNL     1      19.589   3.403  49.636  1.00  0.00    -0.369 N 
HETATM   25  C22 UNL     1      20.105   2.054  49.576  1.00  0.00     0.155 C 
HETATM   26  H18 UNL     1      19.091   4.289  49.747  1.00  0.00     0.161 HD
ENDROOT
BRANCH   5  27
HETATM   27  C6  UNL     1      22.280  -0.817  53.642  1.00  0.00     0.076 C 
BRANCH  27  28
HETATM   28  C7  UNL     1      21.351  -0.138  54.649  1.00  0.00     0.395 C 
HETATM   29  O1  UNL     1      20.599   0.590  55.275  1.00  0.00    -0.429 OA
ENDBRANCH  27  28
ENDBRANCH   5  27
TORSDOF 2
ENDMDL
MODEL 2
REMARK VINA RESULT:      -8.2      2.113      3.739
REMARK  2 active torsions:
REMARK  status: ('A' for Active; 'I' for Inactive)
REMARK    1  A    between atoms: C5_5  and  C6_6 
REMARK    2  A    between atoms: C6_6  and  C7_7 
ROOT
HETATM    1  C1  UNL     1      21.759  -0.234  52.090  1.00  0.00     0.045 C 
HETATM    2  C2  UNL     1      22.096   1.032  51.394  1.00  0.00    -0.066 C 
HETATM    3  C3  UNL     1      23.441   1.207  51.602  1.00  0.00     0.005 C 
HETATM    4  C4  UNL     1      24.523   2.109  51.296  1.00  0.00     0.008 C 
HETATM    5  C5  UNL     1      25.611   2.805  51.127  1.00  0.00    -0.044 C 
HETATM    6  C8  UNL     1      25.866   4.046  50.391  1.00  0.00    -0.016 A 
HETATM    7  C9  UNL     1      26.899   3.824  49.492  1.00  0.00     0.013 A 
HETATM    8  C10 UNL     1      27.503   4.644  48.555  1.00  0.00     0.001 A 
HETATM    9  C11 UNL     1      26.950   5.941  48.530  1.00  0.00     0.001 A 
HETATM   10  C12 UNL     1      25.901   6.200  49.429  1.00  0.00     0.016 A 
HETATM   11  C13 UNL     1      25.328   5.337  50.350  1.00  0.00     0.026 A 
HETATM   12  C14 UNL     1      24.303   6.263  50.874  1.00  0.00     0.195 C 
HETATM   13  O2  UNL     1      24.296   7.277  51.558  1.00  0.00    -0.287 OA
HETATM   14  C15 UNL     1      22.949   5.831  50.436  1.00  0.00     0.041 A 
HETATM   15  C16 UNL     1      22.461   6.301  49.237  1.00  0.00     0.135 A 
HETATM   16  N1  UNL     1      21.325   5.595  49.020  1.00  0.00    -0.239 N 
HETATM   17  N2  UNL     1      20.432   5.502  48.085  1.00  0.00    -0.161 NA
HETATM   18  C17 UNL     1      19.406   4.638  48.090  1.00  0.00     0.258 A 
HETATM   19  N3  UNL     1      19.268   3.774  49.149  1.00  0.00    -0.221 NA
HETATM   20  C18 UNL     1      20.216   3.854  50.161  1.00  0.00     0.154 A 
HETATM   21  C19 UNL     1      21.262   4.809  50.079  1.00  0.00     0.110 A 
HETATM   22  C20 UNL     1      22.208   4.851  51.069  1.00  0.00    -0.014 A 
HETATM   23  C21 UNL     1      22.657   4.443  52.403  1.00  0.00     0.052 C 
HETATM   24  N4  UNL     1      20.369   2.869  51.239  1.00  0.00    -0.369 N 
HETATM   25  C22 UNL     1      21.415   2.066  50.647  1.00  0.00     0.155 C 
HETATM   26  H18 UNL     1      19.637   3.332  51.783  1.00  0.00     0.161 HD
ENDROOT
BRANCH   5  27
HETATM   27  C6  UNL     1      26.710   2.155  51.857  1.00  0.00     0.076 C 
BRANCH  27  28
HETATM   28  C7  UNL     1      26.248   2.229  53.313  1.00  0.00     0.395 C 
HETATM   29  O1  UNL     1      26.112   2.189  54.525  1.00  0.00    -0.429 OA
ENDBRANCH  27  28
ENDBRANCH   5  27
TORSDOF 2
ENDMDL
MODEL 3
REMARK VINA RESULT:      -8.1      2.100      4.801
REMARK  2 active torsions:
REMARK  status: ('A' for Active; 'I' for Inactive)
REMARK    1  A    between atoms: C5_5  and  C6_6 
REMARK    2  A    between atoms: C6_6  and  C7_7 
ROOT
HETATM    1  C1  UNL     1      26.164   2.483  53.935  1.00  0.00     0.045 C 
HETATM    2  C2  UNL     1      24.871   2.665  53.231  1.00  0.00    -0.066 C 
HETATM    3  C3  UNL     1      24.271   1.431  53.258  1.00  0.00     0.005 C 
HETATM    4  C4  UNL     1      23.072   0.749  52.840  1.00  0.00     0.008 C 
HETATM    5  C5  UNL     1      22.071  -0.027  52.539  1.00  0.00    -0.044 C 
HETATM    6  C8  UNL     1      20.802   0.244  51.858  1.00  0.00    -0.016 A 
HETATM    7  C9  UNL     1      19.761  -0.175  52.674  1.00  0.00     0.013 A 
HETATM    8  C10 UNL     1      18.387  -0.127  52.519  1.00  0.00     0.001 A 
HETATM    9  C11 UNL     1      17.997   0.458  51.297  1.00  0.00     0.001 A 
HETATM   10  C12 UNL     1      19.027   0.894  50.445  1.00  0.00     0.016 A 
HETATM   11  C13 UNL     1      20.395   0.825  50.651  1.00  0.00     0.026 A 
HETATM   12  C14 UNL     1      20.815   1.491  49.400  1.00  0.00     0.195 C 
HETATM   13  O2  UNL     1      20.803   1.219  48.207  1.00  0.00    -0.287 OA
HETATM   14  C15 UNL     1      21.382   2.833  49.698  1.00  0.00     0.041 A 
HETATM   15  C16 UNL     1      20.530   3.915  49.745  1.00  0.00     0.135 A 
HETATM   16  N1  UNL     1      21.285   4.934  50.222  1.00  0.00    -0.239 N 
HETATM   17  N2  UNL     1      21.102   6.174  50.551  1.00  0.00    -0.161 NA
HETATM   18  C17 UNL     1      22.040   6.971  51.085  1.00  0.00     0.258 A 
HETATM   19  N3  UNL     1      23.294   6.461  51.317  1.00  0.00    -0.221 NA
HETATM   20  C18 UNL     1      23.511   5.132  50.975  1.00  0.00     0.154 A 
HETATM   21  C19 UNL     1      22.464   4.367  50.401  1.00  0.00     0.110 A 
HETATM   22  C20 UNL     1      22.686   3.049  50.102  1.00  0.00    -0.014 A 
HETATM   23  C21 UNL     1      23.621   1.933  49.933  1.00  0.00     0.052 C 
HETATM   24  N4  UNL     1      24.696   4.356  51.362  1.00  0.00    -0.369 N 
HETATM   25  C22 UNL     1      24.158   3.718  52.542  1.00  0.00     0.155 C 
HETATM   26  H18 UNL     1      25.215   4.727  50.562  1.00  0.00     0.161 HD
ENDROOT
BRANCH   5  27
HETATM   27  C6  UNL     1      22.374  -1.394  52.989  1.00  0.00     0.076 C 
BRANCH  27  28
HETATM   28  C7  UNL     1      22.517  -1.233  54.504  1.00  0.00     0.395 C 
HETATM   29  O1  UNL     1      22.668  -1.360  55.707  1.00  0.00    -0.429 OA
ENDBRANCH  27  28
ENDBRANCH   5  27
TORSDOF 2
ENDMDL
MODEL 4
REMARK VINA RESULT:      -7.9      2.867      6.395
REMARK  2 active torsions:
REMARK  status: ('A' for Active; 'I' for Inactive)
REMARK    1  A    between atoms: C5_5  and  C6_6 
REMARK    2  A    between atoms: C6_6  and  C7_7 
ROOT
HETATM    1  C1  UNL     1      28.046   0.490  52.662  1.00  0.00     0.045 C 
HETATM    2  C2  UNL     1      26.618   0.740  52.347  1.00  0.00    -0.066 C 
HETATM    3  C3  UNL     1      26.628   1.742  51.409  1.00  0.00     0.005 C 
HETATM    4  C4  UNL     1      25.742   2.543  50.603  1.00  0.00     0.008 C 
HETATM    5  C5  UNL     1      25.103   3.355  49.810  1.00  0.00    -0.044 C 
HETATM    6  C8  UNL     1      23.673   3.517  49.533  1.00  0.00    -0.016 A 
HETATM    7  C9  UNL     1      23.469   3.402  48.166  1.00  0.00     0.013 A 
HETATM    8  C10 UNL     1      22.322   3.452  47.394  1.00  0.00     0.001 A 
HETATM    9  C11 UNL     1      21.158   3.661  48.162  1.00  0.00     0.001 A 
HETATM   10  C12 UNL     1      21.329   3.783  49.552  1.00  0.00     0.016 A 
HETATM   11  C13 UNL     1      22.506   3.722  50.279  1.00  0.00     0.026 A 
HETATM   12  C14 UNL     1      21.915   3.880  51.624  1.00  0.00     0.195 C 
HETATM   13  O2  UNL     1      21.370   4.779  52.249  1.00  0.00    -0.287 OA
HETATM   14  C15 UNL     1      22.013   2.604  52.382  1.00  0.00     0.041 A 
HETATM   15  C16 UNL     1      20.992   1.687  52.267  1.00  0.00     0.135 A 
HETATM   16  N1  UNL     1      21.448   0.575  52.894  1.00  0.00    -0.239 N 
HETATM   17  N2  UNL     1      21.029  -0.633  53.103  1.00  0.00    -0.161 NA
HETATM   18  C17 UNL     1      21.736  -1.594  53.717  1.00  0.00     0.258 A 
HETATM   19  N3  UNL     1      23.003  -1.306  54.164  1.00  0.00    -0.221 NA
HETATM   20  C18 UNL     1      23.474  -0.017  53.947  1.00  0.00     0.154 A 
HETATM   21  C19 UNL     1      22.650   0.940  53.301  1.00  0.00     0.110 A 
HETATM   22  C20 UNL     1      23.144   2.196  53.064  1.00  0.00    -0.014 A 
HETATM   23  C21 UNL     1      24.176   3.211  53.296  1.00  0.00     0.052 C 
HETATM   24  N4  UNL     1      24.868   0.403  54.137  1.00  0.00    -0.369 N 
HETATM   25  C22 UNL     1      25.321   0.262  52.771  1.00  0.00     0.155 C 
HETATM   26  H18 UNL     1      24.701   0.549  55.135  1.00  0.00     0.161 HD
ENDROOT
BRANCH   5  27
HETATM   27  C6  UNL     1      26.076   4.226  49.134  1.00  0.00     0.076 C 
BRANCH  27  28
HETATM   28  C7  UNL     1      25.838   5.585  49.796  1.00  0.00     0.395 C 
HETATM   29  O1  UNL     1      25.433   6.558  50.410  1.00  0.00    -0.429 OA
ENDBRANCH  27  28
ENDBRANCH   5  27
TORSDOF 2
ENDMDL
MODEL 5
REMARK VINA RESULT:      -7.8      2.821      6.505
REMARK  2 active torsions:
REMARK  status: ('A' for Active; 'I' for Inactive)
REMARK    1  A    between atoms: C5_5  and  C6_6 
REMARK    2  A    between atoms: C6_6  and  C7_7 
ROOT
HETATM    1  C1  UNL     1      27.488   4.736  48.964  1.00  0.00     0.045 C 
HETATM    2  C2  UNL     1      26.365   3.957  49.541  1.00  0.00    -0.066 C 
HETATM    3  C3  UNL     1      25.233   4.486  48.972  1.00  0.00     0.005 C 
HETATM    4  C4  UNL     1      23.800   4.337  48.961  1.00  0.00     0.008 C 
HETATM    5  C5  UNL     1      22.505   4.354  48.827  1.00  0.00    -0.044 C 
HETATM    6  C8  UNL     1      21.456   3.518  49.419  1.00  0.00    -0.016 A 
HETATM    7  C9  UNL     1      20.689   2.978  48.398  1.00  0.00     0.013 A 
HETATM    8  C10 UNL     1      19.606   2.116  48.410  1.00  0.00     0.001 A 
HETATM    9  C11 UNL     1      19.232   1.731  49.713  1.00  0.00     0.001 A 
HETATM   10  C12 UNL     1      19.989   2.261  50.773  1.00  0.00     0.016 A 
HETATM   11  C13 UNL     1      21.071   3.123  50.706  1.00  0.00     0.026 A 
HETATM   12  C14 UNL     1      21.355   3.195  52.154  1.00  0.00     0.195 C 
HETATM   13  O2  UNL     1      20.810   3.675  53.138  1.00  0.00    -0.287 OA
HETATM   14  C15 UNL     1      22.626   2.487  52.464  1.00  0.00     0.041 A 
HETATM   15  C16 UNL     1      22.580   1.140  52.750  1.00  0.00     0.135 A 
HETATM   16  N1  UNL     1      23.876   0.746  52.790  1.00  0.00    -0.239 N 
HETATM   17  N2  UNL     1      24.523  -0.365  52.951  1.00  0.00    -0.161 NA
HETATM   18  C17 UNL     1      25.856  -0.493  52.873  1.00  0.00     0.258 A 
HETATM   19  N3  UNL     1      26.617   0.617  52.598  1.00  0.00    -0.221 NA
HETATM   20  C18 UNL     1      25.943   1.818  52.417  1.00  0.00     0.154 A 
HETATM   21  C19 UNL     1      24.530   1.864  52.533  1.00  0.00     0.110 A 
HETATM   22  C20 UNL     1      23.880   3.050  52.318  1.00  0.00    -0.014 A 
HETATM   23  C21 UNL     1      23.932   4.505  52.140  1.00  0.00     0.052 C 
HETATM   24  N4  UNL     1      26.555   3.045  51.889  1.00  0.00    -0.369 N 
HETATM   25  C22 UNL     1      26.171   2.895  50.504  1.00  0.00     0.155 C 
HETATM   26  H18 UNL     1      26.899   3.289  52.821  1.00  0.00     0.161 HD
ENDROOT
BRANCH   5  27
HETATM   27  C6  UNL     1      22.133   5.448  47.917  1.00  0.00     0.076 C 
BRANCH  27  28
HETATM   28  C7  UNL     1      21.933   6.631  48.865  1.00  0.00     0.395 C 
HETATM   29  O1  UNL     1      21.643   7.405  49.762  1.00  0.00    -0.429 OA
ENDBRANCH  27  28
ENDBRANCH   5  27
TORSDOF 2
ENDMDL
MODEL 6
REMARK VINA RESULT:      -7.8      2.322      4.935
REMARK  2 active torsions:
REMARK  status: ('A' for Active; 'I' for Inactive)
REMARK    1  A    between atoms: C5_5  and  C6_6 
REMARK    2  A    between atoms: C6_6  and  C7_7 
ROOT
HETATM    1  C1  UNL     1      26.985   5.938  48.815  1.00  0.00     0.045 C 
HETATM    2  C2  UNL     1      25.711   5.355  49.302  1.00  0.00    -0.066 C 
HETATM    3  C3  UNL     1      26.059   4.153  49.866  1.00  0.00     0.005 C 
HETATM    4  C4  UNL     1      25.488   3.014  50.540  1.00  0.00     0.008 C 
HETATM    5  C5  UNL     1      25.154   1.913  51.150  1.00  0.00    -0.044 C 
HETATM    6  C8  UNL     1      23.859   1.422  51.629  1.00  0.00    -0.016 A 
HETATM    7  C9  UNL     1      23.970   1.118  52.978  1.00  0.00     0.013 A 
HETATM    8  C10 UNL     1      23.051   0.649  53.899  1.00  0.00     0.001 A 
HETATM    9  C11 UNL     1      21.772   0.450  53.340  1.00  0.00     0.001 A 
HETATM   10  C12 UNL     1      21.624   0.749  51.973  1.00  0.00     0.016 A 
HETATM   11  C13 UNL     1      22.583   1.220  51.091  1.00  0.00     0.026 A 
HETATM   12  C14 UNL     1      21.715   1.333  49.901  1.00  0.00     0.195 C 
HETATM   13  O2  UNL     1      21.148   0.556  49.144  1.00  0.00    -0.287 OA
HETATM   14  C15 UNL     1      21.480   2.763  49.568  1.00  0.00     0.041 A 
HETATM   15  C16 UNL     1      20.414   3.411  50.151  1.00  0.00     0.135 A 
HETATM   16  N1  UNL     1      20.574   4.716  49.822  1.00  0.00    -0.239 N 
HETATM   17  N2  UNL     1      19.978   5.838  50.079  1.00  0.00    -0.161 NA
HETATM   18  C17 UNL     1      20.402   7.042  49.668  1.00  0.00     0.258 A 
HETATM   19  N3  UNL     1      21.553   7.124  48.922  1.00  0.00    -0.221 NA
HETATM   20  C18 UNL     1      22.211   5.934  48.639  1.00  0.00     0.154 A 
HETATM   21  C19 UNL     1      21.682   4.703  49.103  1.00  0.00     0.110 A 
HETATM   22  C20 UNL     1      22.362   3.542  48.843  1.00  0.00    -0.014 A 
HETATM   23  C21 UNL     1      23.424   2.836  48.119  1.00  0.00     0.052 C 
HETATM   24  N4  UNL     1      23.561   5.845  48.068  1.00  0.00    -0.369 N 
HETATM   25  C22 UNL     1      24.302   5.685  49.299  1.00  0.00     0.155 C 
HETATM   26  H18 UNL     1      23.183   5.950  47.124  1.00  0.00     0.161 HD
ENDROOT
BRANCH   5  27
HETATM   27  C6  UNL     1      26.355   1.082  51.327  1.00  0.00     0.076 C 
BRANCH  27  28
HETATM   28  C7  UNL     1      27.257   1.962  52.195  1.00  0.00     0.395 C 
HETATM   29  O1  UNL     1      28.166   2.524  52.783  1.00  0.00    -0.429 OA
ENDBRANCH  27  28
ENDBRANCH   5  27
TORSDOF 2
ENDMDL
MODEL 7
REMARK VINA RESULT:      -7.5     10.140     12.530
REMARK  2 active torsions:
REMARK  status: ('A' for Active; 'I' for Inactive)
REMARK    1  A    between atoms: C5_5  and  C6_6 
REMARK    2  A    between atoms: C6_6  and  C7_7 
ROOT
HETATM    1  C1  UNL     1      28.415   5.176  48.622  1.00  0.00     0.045 C 
HETATM    2  C2  UNL     1      29.314   6.234  48.097  1.00  0.00    -0.066 C 
HETATM    3  C3  UNL     1      30.333   5.560  47.473  1.00  0.00     0.005 C 
HETATM    4  C4  UNL     1      31.551   5.786  46.736  1.00  0.00     0.008 C 
HETATM    5  C5  UNL     1      32.668   5.796  46.067  1.00  0.00    -0.044 C 
HETATM    6  C8  UNL     1      33.485   6.900  45.555  1.00  0.00    -0.016 A 
HETATM    7  C9  UNL     1      33.673   6.719  44.193  1.00  0.00     0.013 A 
HETATM    8  C10 UNL     1      34.338   7.474  43.242  1.00  0.00     0.001 A 
HETATM    9  C11 UNL     1      34.925   8.636  43.783  1.00  0.00     0.001 A 
HETATM   10  C12 UNL     1      34.753   8.851  45.162  1.00  0.00     0.016 A 
HETATM   11  C13 UNL     1      34.073   8.060  46.074  1.00  0.00     0.026 A 
HETATM   12  C14 UNL     1      34.277   8.912  47.263  1.00  0.00     0.195 C 
HETATM   13  O2  UNL     1      35.223   9.224  47.974  1.00  0.00    -0.287 OA
HETATM   14  C15 UNL     1      32.994   9.544  47.670  1.00  0.00     0.041 A 
HETATM   15  C16 UNL     1      32.650  10.757  47.115  1.00  0.00     0.135 A 
HETATM   16  N1  UNL     1      31.373  10.975  47.514  1.00  0.00    -0.239 N 
HETATM   17  N2  UNL     1      30.458  11.871  47.313  1.00  0.00    -0.161 NA
HETATM   18  C17 UNL     1      29.206  11.807  47.790  1.00  0.00     0.258 A 
HETATM   19  N3  UNL     1      28.836  10.721  48.545  1.00  0.00    -0.221 NA
HETATM   20  C18 UNL     1      29.799   9.746  48.769  1.00  0.00     0.154 A 
HETATM   21  C19 UNL     1      31.105   9.904  48.238  1.00  0.00     0.110 A 
HETATM   22  C20 UNL     1      32.033   8.916  48.440  1.00  0.00    -0.014 A 
HETATM   23  C21 UNL     1      32.441   7.690  49.132  1.00  0.00     0.052 C 
HETATM   24  N4  UNL     1      29.527   8.422  49.342  1.00  0.00    -0.369 N 
HETATM   25  C22 UNL     1      29.402   7.678  48.109  1.00  0.00     0.155 C 
HETATM   26  H18 UNL     1      29.584   8.805  50.289  1.00  0.00     0.161 HD
ENDROOT
BRANCH   5  27
HETATM   27  C6  UNL     1      33.109   4.409  45.853  1.00  0.00     0.076 C 
BRANCH  27  28
HETATM   28  C7  UNL     1      34.125   4.193  46.976  1.00  0.00     0.395 C 
HETATM   29  O1  UNL     1      34.939   3.780  47.785  1.00  0.00    -0.429 OA
ENDBRANCH  27  28
ENDBRANCH   5  27
TORSDOF 2
ENDMDL
MODEL 8
REMARK VINA RESULT:      -7.4      3.560      5.627
REMARK  2 active torsions:
REMARK  status: ('A' for Active; 'I' for Inactive)
REMARK    1  A    between atoms: C5_5  and  C6_6 
REMARK    2  A    between atoms: C6_6  and  C7_7 
ROOT
HETATM    1  C1  UNL     1      20.452   2.854  47.689  1.00  0.00     0.045 C 
HETATM    2  C2  UNL     1      21.545   3.802  47.365  1.00  0.00    -0.066 C 
HETATM    3  C3  UNL     1      22.479   3.624  48.354  1.00  0.00     0.005 C 
HETATM    4  C4  UNL     1      23.770   4.098  48.788  1.00  0.00     0.008 C 
HETATM    5  C5  UNL     1      24.913   4.404  49.330  1.00  0.00    -0.044 C 
HETATM    6  C8  UNL     1      25.961   5.345  48.923  1.00  0.00    -0.016 A 
HETATM    7  C9  UNL     1      27.164   4.660  48.839  1.00  0.00     0.013 A 
HETATM    8  C10 UNL     1      28.438   5.066  48.481  1.00  0.00     0.001 A 
HETATM    9  C11 UNL     1      28.498   6.434  48.144  1.00  0.00     0.001 A 
HETATM   10  C12 UNL     1      27.294   7.159  48.218  1.00  0.00     0.016 A 
HETATM   11  C13 UNL     1      26.039   6.700  48.582  1.00  0.00     0.026 A 
HETATM   12  C14 UNL     1      25.303   7.966  48.386  1.00  0.00     0.195 C 
HETATM   13  O2  UNL     1      25.259   9.057  48.938  1.00  0.00    -0.287 OA
HETATM   14  C15 UNL     1      24.406   7.861  47.204  1.00  0.00     0.041 A 
HETATM   15  C16 UNL     1      24.903   8.198  45.965  1.00  0.00     0.135 A 
HETATM   16  N1  UNL     1      23.943   7.818  45.087  1.00  0.00    -0.239 N 
HETATM   17  N2  UNL     1      23.790   7.796  43.800  1.00  0.00    -0.161 NA
HETATM   18  C17 UNL     1      22.728   7.283  43.163  1.00  0.00     0.258 A 
HETATM   19  N3  UNL     1      21.713   6.726  43.903  1.00  0.00    -0.221 NA
HETATM   20  C18 UNL     1      21.857   6.734  45.285  1.00  0.00     0.154 A 
HETATM   21  C19 UNL     1      23.009   7.314  45.875  1.00  0.00     0.110 A 
HETATM   22  C20 UNL     1      23.151   7.282  47.237  1.00  0.00    -0.014 A 
HETATM   23  C21 UNL     1      22.570   7.041  48.561  1.00  0.00     0.052 C 
HETATM   24  N4  UNL     1      21.003   5.986  46.216  1.00  0.00    -0.369 N 
HETATM   25  C22 UNL     1      21.836   4.815  46.374  1.00  0.00     0.155 C 
HETATM   26  H18 UNL     1      20.311   6.738  46.206  1.00  0.00     0.161 HD
ENDROOT
BRANCH   5  27
HETATM   27  C6  UNL     1      25.076   3.628  50.569  1.00  0.00     0.076 C 
BRANCH  27  28
HETATM   28  C7  UNL     1      24.155   4.353  51.553  1.00  0.00     0.395 C 
HETATM   29  O1  UNL     1      23.613   5.101  52.349  1.00  0.00    -0.429 OA
ENDBRANCH  27  28
ENDBRANCH   5  27
TORSDOF 2
ENDMDL
MODEL 9
REMARK VINA RESULT:      -7.2      2.754      5.644
REMARK  2 active torsions:
REMARK  status: ('A' for Active; 'I' for Inactive)
REMARK    1  A    between atoms: C5_5  and  C6_6 
REMARK    2  A    between atoms: C6_6  and  C7_7 
ROOT
HETATM    1  C1  UNL     1      21.385  -1.535  54.237  1.00  0.00     0.045 C 
HETATM    2  C2  UNL     1      21.173  -0.302  53.440  1.00  0.00    -0.066 C 
HETATM    3  C3  UNL     1      19.966  -0.484  52.813  1.00  0.00     0.005 C 
HETATM    4  C4  UNL     1      19.051   0.172  51.913  1.00  0.00     0.008 C 
HETATM    5  C5  UNL     1      18.117   0.602  51.114  1.00  0.00    -0.044 C 
HETATM    6  C8  UNL     1      17.970   1.862  50.381  1.00  0.00    -0.016 A 
HETATM    7  C9  UNL     1      16.747   2.429  50.712  1.00  0.00     0.013 A 
HETATM    8  C10 UNL     1      16.139   3.610  50.325  1.00  0.00     0.001 A 
HETATM    9  C11 UNL     1      16.926   4.358  49.425  1.00  0.00     0.001 A 
HETATM   10  C12 UNL     1      18.172   3.812  49.067  1.00  0.00     0.016 A 
HETATM   11  C13 UNL     1      18.738   2.620  49.489  1.00  0.00     0.026 A 
HETATM   12  C14 UNL     1      20.017   2.741  48.759  1.00  0.00     0.195 C 
HETATM   13  O2  UNL     1      20.374   2.700  47.590  1.00  0.00    -0.287 OA
HETATM   14  C15 UNL     1      21.132   2.983  49.713  1.00  0.00     0.041 A 
HETATM   15  C16 UNL     1      21.441   4.282  50.053  1.00  0.00     0.135 A 
HETATM   16  N1  UNL     1      22.338   4.176  51.062  1.00  0.00    -0.239 N 
HETATM   17  N2  UNL     1      22.976   4.983  51.851  1.00  0.00    -0.161 NA
HETATM   18  C17 UNL     1      23.783   4.598  52.850  1.00  0.00     0.258 A 
HETATM   19  N3  UNL     1      23.962   3.256  53.082  1.00  0.00    -0.221 NA
HETATM   20  C18 UNL     1      23.285   2.373  52.251  1.00  0.00     0.154 A 
HETATM   21  C19 UNL     1      22.462   2.869  51.208  1.00  0.00     0.110 A 
HETATM   22  C20 UNL     1      21.775   1.985  50.420  1.00  0.00    -0.014 A 
HETATM   23  C21 UNL     1      21.543   0.607  49.974  1.00  0.00     0.052 C 
HETATM   24  N4  UNL     1      23.165   0.929  52.491  1.00  0.00    -0.369 N 
HETATM   25  C22 UNL     1      21.877   0.927  53.147  1.00  0.00     0.155 C 
HETATM   26  H18 UNL     1      24.074   0.768  52.050  1.00  0.00     0.161 HD
ENDROOT
BRANCH   5  27
HETATM   27  C6  UNL     1      17.087  -0.440  50.980  1.00  0.00     0.076 C 
BRANCH  27  28
HETATM   28  C7  UNL     1      16.373  -0.393  52.333  1.00  0.00     0.395 C 
HETATM   29  O1  UNL     1      15.697  -0.142  53.316  1.00  0.00    -0.429 OA
ENDBRANCH  27  28
ENDBRANCH   5  27
TORSDOF 2
ENDMDL
