MODEL 1
REMARK VINA RESULT:      -8.4      0.000      0.000
REMARK  4 active torsions:
REMARK  status: ('A' for Active; 'I' for Inactive)
REMARK    1  A    between atoms: C5_5  and  C6_6 
REMARK    2  A    between atoms: N2_8  and  C7_9 
REMARK    3  A    between atoms: C8_11  and  O1_12 
REMARK    4  A    between atoms: C10_15  and  C11_16 
ROOT
HETATM    1  C6  UNL     1      25.487   1.228  52.542  1.00  0.00     0.085 C 
HETATM    2  N1  UNL     1      25.417   2.470  52.232  1.00  0.00    -0.172 NA
HETATM    3  N2  UNL     1      24.096   2.895  52.077  1.00  0.00    -0.236 N 
HETATM    4  C10 UNL     1      23.262   1.889  52.694  1.00  0.00     0.151 C 
HETATM    5  C17 UNL     1      24.112   0.658  52.631  1.00  0.00     0.096 C 
ENDROOT
BRANCH   1   6
HETATM    6  C5  UNL     1      26.668   0.376  52.797  1.00  0.00     0.078 A 
HETATM    7  C4  UNL     1      26.541  -0.992  52.634  1.00  0.00     0.035 A 
HETATM    8  C3  UNL     1      27.769  -1.582  52.928  1.00  0.00     0.028 A 
HETATM    9  C2  UNL     1      28.590  -0.514  53.259  1.00  0.00     0.025 A 
HETATM   10  C1  UNL     1      30.025  -0.550  53.663  1.00  0.00     0.070 C 
HETATM   11  N4  UNL     1      27.913   0.645  53.175  1.00  0.00    -0.257 N 
HETATM   12 CL2  UNL     1      28.411   2.282  53.468  1.00  0.00     0.019 Cl
ENDBRANCH   1   6
BRANCH   3  13
HETATM   13  C7  UNL     1      23.896   4.163  51.378  1.00  0.00     0.192 A 
HETATM   14  N3  UNL     1      23.981   5.364  51.809  1.00  0.00    -0.198 NA
HETATM   15  C8  UNL     1      23.748   6.349  50.960  1.00  0.00     0.171 A 
HETATM   16  C9  UNL     1      23.403   6.192  49.579  1.00  0.00     0.111 A 
HETATM   17  S1  UNL     1      23.428   4.303  49.533  1.00  0.00    -0.058 SA
BRANCH  15  18
HETATM   18  O1  UNL     1      23.875   7.618  51.561  1.00  0.00    -0.344 OA
HETATM   19  H6  UNL     1      23.190   8.341  51.441  1.00  0.00     0.219 HD
ENDBRANCH  15  18
ENDBRANCH   3  13
BRANCH   4  20
HETATM   20  C11 UNL     1      21.953   1.708  52.031  1.00  0.00    -0.033 A 
HETATM   21  C12 UNL     1      20.793   2.205  52.588  1.00  0.00     0.011 A 
HETATM   22  C13 UNL     1      19.557   2.044  51.977  1.00  0.00     0.024 A 
HETATM   23  C14 UNL     1      19.485   1.367  50.779  1.00  0.00     0.034 A 
HETATM   24 CL1  UNL     1      17.932   1.146  49.981  1.00  0.00    -0.084 Cl
HETATM   25  C15 UNL     1      20.647   0.857  50.202  1.00  0.00     0.024 A 
HETATM   26  C16 UNL     1      21.879   1.024  50.821  1.00  0.00     0.011 A 
ENDBRANCH   4  20
TORSDOF 4
ENDMDL
MODEL 2
REMARK VINA RESULT:      -8.3      3.493      7.445
REMARK  4 active torsions:
REMARK  status: ('A' for Active; 'I' for Inactive)
REMARK    1  A    between atoms: C5_5  and  C6_6 
REMARK    2  A    between atoms: N2_8  and  C7_9 
REMARK    3  A    between atoms: C8_11  and  O1_12 
REMARK    4  A    between atoms: C10_15  and  C11_16 
ROOT
HETATM    1  C6  UNL     1      23.451   2.828  50.718  1.00  0.00     0.085 C 
HETATM    2  N1  UNL     1      22.742   2.157  51.550  1.00  0.00    -0.172 NA
HETATM    3  N2  UNL     1      23.527   1.544  52.530  1.00  0.00    -0.236 N 
HETATM    4  C10 UNL     1      24.819   2.191  52.490  1.00  0.00     0.151 C 
HETATM    5  C17 UNL     1      24.890   2.719  51.090  1.00  0.00     0.096 C 
ENDROOT
BRANCH   1   6
HETATM    6  C5  UNL     1      23.040   3.622  49.542  1.00  0.00     0.078 A 
HETATM    7  C4  UNL     1      23.191   4.996  49.589  1.00  0.00     0.035 A 
HETATM    8  C3  UNL     1      22.741   5.526  48.381  1.00  0.00     0.028 A 
HETATM    9  C2  UNL     1      22.333   4.418  47.653  1.00  0.00     0.025 A 
HETATM   10  C1  UNL     1      21.759   4.384  46.278  1.00  0.00     0.070 C 
HETATM   11  N4  UNL     1      22.520   3.292  48.364  1.00  0.00    -0.257 N 
HETATM   12 CL2  UNL     1      22.199   1.630  47.977  1.00  0.00     0.019 Cl
ENDBRANCH   1   6
BRANCH   3  13
HETATM   13  C7  UNL     1      22.894   0.475  53.299  1.00  0.00     0.192 A 
HETATM   14  N3  UNL     1      23.346  -0.218  54.273  1.00  0.00    -0.198 NA
HETATM   15  C8  UNL     1      22.561  -1.139  54.802  1.00  0.00     0.171 A 
HETATM   16  C9  UNL     1      21.225  -1.437  54.376  1.00  0.00     0.111 A 
HETATM   17  S1  UNL     1      21.122  -0.161  52.986  1.00  0.00    -0.058 SA
BRANCH  15  18
HETATM   18  O1  UNL     1      23.179  -1.829  55.864  1.00  0.00    -0.344 OA
HETATM   19  H6  UNL     1      24.164  -2.023  55.879  1.00  0.00     0.219 HD
ENDBRANCH  15  18
ENDBRANCH   3  13
BRANCH   4  20
HETATM   20  C11 UNL     1      25.947   1.295  52.816  1.00  0.00    -0.033 A 
HETATM   21  C12 UNL     1      26.776   1.546  53.889  1.00  0.00     0.011 A 
HETATM   22  C13 UNL     1      27.839   0.713  54.208  1.00  0.00     0.024 A 
HETATM   23  C14 UNL     1      28.075  -0.399  53.431  1.00  0.00     0.034 A 
HETATM   24 CL1  UNL     1      29.416  -1.475  53.810  1.00  0.00    -0.084 Cl
HETATM   25  C15 UNL     1      27.248  -0.670  52.342  1.00  0.00     0.024 A 
HETATM   26  C16 UNL     1      26.186   0.170  52.031  1.00  0.00     0.011 A 
ENDBRANCH   4  20
TORSDOF 4
ENDMDL
MODEL 3
REMARK VINA RESULT:      -8.3      2.539      6.343
REMARK  4 active torsions:
REMARK  status: ('A' for Active; 'I' for Inactive)
REMARK    1  A    between atoms: C5_5  and  C6_6 
REMARK    2  A    between atoms: N2_8  and  C7_9 
REMARK    3  A    between atoms: C8_11  and  O1_12 
REMARK    4  A    between atoms: C10_15  and  C11_16 
ROOT
HETATM    1  C6  UNL     1      21.128   1.210  51.760  1.00  0.00     0.085 C 
HETATM    2  N1  UNL     1      21.208   2.414  51.328  1.00  0.00    -0.172 NA
HETATM    3  N2  UNL     1      22.534   2.836  51.198  1.00  0.00    -0.236 N 
HETATM    4  C10 UNL     1      23.351   1.644  51.228  1.00  0.00     0.151 C 
HETATM    5  C17 UNL     1      22.499   0.667  51.977  1.00  0.00     0.096 C 
ENDROOT
BRANCH   1   6
HETATM    6  C5  UNL     1      19.941   0.377  52.040  1.00  0.00     0.078 A 
HETATM    7  C4  UNL     1      18.861   0.457  51.178  1.00  0.00     0.035 A 
HETATM    8  C3  UNL     1      17.870  -0.408  51.639  1.00  0.00     0.028 A 
HETATM    9  C2  UNL     1      18.416  -0.976  52.780  1.00  0.00     0.025 A 
HETATM   10  C1  UNL     1      17.798  -1.982  53.691  1.00  0.00     0.070 C 
HETATM   11  N4  UNL     1      19.652  -0.494  53.001  1.00  0.00    -0.257 N 
HETATM   12 CL2  UNL     1      20.802  -0.832  54.257  1.00  0.00     0.019 Cl
ENDBRANCH   1   6
BRANCH   3  13
HETATM   13  C7  UNL     1      22.752   4.275  51.073  1.00  0.00     0.192 A 
HETATM   14  N3  UNL     1      23.545   5.047  51.714  1.00  0.00    -0.198 NA
HETATM   15  C8  UNL     1      23.550   6.331  51.405  1.00  0.00     0.171 A 
HETATM   16  C9  UNL     1      22.736   6.949  50.401  1.00  0.00     0.111 A 
HETATM   17  S1  UNL     1      21.829   5.392  49.832  1.00  0.00    -0.058 SA
BRANCH  15  18
HETATM   18  O1  UNL     1      24.466   7.068  52.184  1.00  0.00    -0.344 OA
HETATM   19  H6  UNL     1      24.441   7.069  53.187  1.00  0.00     0.219 HD
ENDBRANCH  15  18
ENDBRANCH   3  13
BRANCH   4  20
HETATM   20  C11 UNL     1      24.674   1.842  51.857  1.00  0.00    -0.033 A 
HETATM   21  C12 UNL     1      25.799   2.091  51.098  1.00  0.00     0.011 A 
HETATM   22  C13 UNL     1      27.047   2.280  51.674  1.00  0.00     0.024 A 
HETATM   23  C14 UNL     1      27.169   2.217  53.045  1.00  0.00     0.034 A 
HETATM   24 CL1  UNL     1      28.740   2.451  53.804  1.00  0.00    -0.084 Cl
HETATM   25  C15 UNL     1      26.044   1.966  53.828  1.00  0.00     0.024 A 
HETATM   26  C16 UNL     1      24.798   1.778  53.242  1.00  0.00     0.011 A 
ENDBRANCH   4  20
TORSDOF 4
ENDMDL
MODEL 4
REMARK VINA RESULT:      -8.2      3.538      6.887
REMARK  4 active torsions:
REMARK  status: ('A' for Active; 'I' for Inactive)
REMARK    1  A    between atoms: C5_5  and  C6_6 
REMARK    2  A    between atoms: N2_8  and  C7_9 
REMARK    3  A    between atoms: C8_11  and  O1_12 
REMARK    4  A    between atoms: C10_15  and  C11_16 
ROOT
HETATM    1  C6  UNL     1      22.202   0.877  52.705  1.00  0.00     0.085 C 
HETATM    2  N1  UNL     1      23.262   0.506  53.324  1.00  0.00    -0.172 NA
HETATM    3  N2  UNL     1      24.342   1.354  53.066  1.00  0.00    -0.236 N 
HETATM    4  C10 UNL     1      23.791   2.565  52.500  1.00  0.00     0.151 C 
HETATM    5  C17 UNL     1      22.494   2.104  51.910  1.00  0.00     0.096 C 
ENDROOT
BRANCH   1   6
HETATM    6  C5  UNL     1      20.850   0.281  52.692  1.00  0.00     0.078 A 
HETATM    7  C4  UNL     1      19.927   0.761  51.780  1.00  0.00     0.035 A 
HETATM    8  C3  UNL     1      18.737   0.056  51.951  1.00  0.00     0.028 A 
HETATM    9  C2  UNL     1      19.012  -0.831  52.981  1.00  0.00     0.025 A 
HETATM   10  C1  UNL     1      18.099  -1.841  53.590  1.00  0.00     0.070 C 
HETATM   11  N4  UNL     1      20.278  -0.681  53.408  1.00  0.00    -0.257 N 
HETATM   12 CL2  UNL     1      21.169  -1.501  54.652  1.00  0.00     0.019 Cl
ENDBRANCH   1   6
BRANCH   3  13
HETATM   13  C7  UNL     1      25.668   0.843  53.405  1.00  0.00     0.192 A 
HETATM   14  N3  UNL     1      26.587   1.356  54.132  1.00  0.00    -0.198 NA
HETATM   15  C8  UNL     1      27.713   0.682  54.282  1.00  0.00     0.171 A 
HETATM   16  C9  UNL     1      28.003  -0.594  53.696  1.00  0.00     0.111 A 
HETATM   17  S1  UNL     1      26.361  -0.824  52.789  1.00  0.00    -0.058 SA
BRANCH  15  18
HETATM   18  O1  UNL     1      28.639   1.357  55.103  1.00  0.00    -0.344 OA
HETATM   19  H6  UNL     1      29.127   0.900  55.852  1.00  0.00     0.219 HD
ENDBRANCH  15  18
ENDBRANCH   3  13
BRANCH   4  20
HETATM   20  C11 UNL     1      24.669   3.212  51.503  1.00  0.00    -0.033 A 
HETATM   21  C12 UNL     1      25.704   2.524  50.905  1.00  0.00     0.011 A 
HETATM   22  C13 UNL     1      26.537   3.118  49.967  1.00  0.00     0.024 A 
HETATM   23  C14 UNL     1      26.324   4.434  49.621  1.00  0.00     0.034 A 
HETATM   24 CL1  UNL     1      27.364   5.216  48.435  1.00  0.00    -0.084 Cl
HETATM   25  C15 UNL     1      25.284   5.147  50.216  1.00  0.00     0.024 A 
HETATM   26  C16 UNL     1      24.456   4.542  51.154  1.00  0.00     0.011 A 
ENDBRANCH   4  20
TORSDOF 4
ENDMDL
MODEL 5
REMARK VINA RESULT:      -8.2      3.153      4.453
REMARK  4 active torsions:
REMARK  status: ('A' for Active; 'I' for Inactive)
REMARK    1  A    between atoms: C5_5  and  C6_6 
REMARK    2  A    between atoms: N2_8  and  C7_9 
REMARK    3  A    between atoms: C8_11  and  O1_12 
REMARK    4  A    between atoms: C10_15  and  C11_16 
ROOT
HETATM    1  C6  UNL     1      26.058   0.935  52.489  1.00  0.00     0.085 C 
HETATM    2  N1  UNL     1      24.917   0.362  52.606  1.00  0.00    -0.172 NA
HETATM    3  N2  UNL     1      23.895   1.109  52.016  1.00  0.00    -0.236 N 
HETATM    4  C10 UNL     1      24.534   2.073  51.149  1.00  0.00     0.151 C 
HETATM    5  C17 UNL     1      25.896   2.221  51.753  1.00  0.00     0.096 C 
ENDROOT
BRANCH   1   6
HETATM    6  C5  UNL     1      27.391   0.505  52.960  1.00  0.00     0.078 A 
HETATM    7  C4  UNL     1      28.268   1.469  53.427  1.00  0.00     0.035 A 
HETATM    8  C3  UNL     1      29.448   0.835  53.811  1.00  0.00     0.028 A 
HETATM    9  C2  UNL     1      29.216  -0.508  53.549  1.00  0.00     0.025 A 
HETATM   10  C1  UNL     1      30.139  -1.658  53.765  1.00  0.00     0.070 C 
HETATM   11  N4  UNL     1      27.982  -0.682  53.041  1.00  0.00    -0.257 N 
HETATM   12 CL2  UNL     1      27.150  -2.118  52.531  1.00  0.00     0.019 Cl
ENDBRANCH   1   6
BRANCH   3  13
HETATM   13  C7  UNL     1      22.528   0.758  52.393  1.00  0.00     0.192 A 
HETATM   14  N3  UNL     1      22.027   0.516  53.545  1.00  0.00    -0.198 NA
HETATM   15  C8  UNL     1      20.743   0.217  53.616  1.00  0.00     0.171 A 
HETATM   16  C9  UNL     1      19.844   0.136  52.503  1.00  0.00     0.111 A 
HETATM   17  S1  UNL     1      21.091   0.570  51.151  1.00  0.00    -0.058 SA
BRANCH  15  18
HETATM   18  O1  UNL     1      20.320  -0.026  54.939  1.00  0.00    -0.344 OA
HETATM   19  H6  UNL     1      19.967   0.702  55.534  1.00  0.00     0.219 HD
ENDBRANCH  15  18
ENDBRANCH   3  13
BRANCH   4  20
HETATM   20  C11 UNL     1      23.814   3.360  51.051  1.00  0.00    -0.033 A 
HETATM   21  C12 UNL     1      23.226   3.765  49.871  1.00  0.00     0.011 A 
HETATM   22  C13 UNL     1      22.547   4.970  49.763  1.00  0.00     0.024 A 
HETATM   23  C14 UNL     1      22.454   5.787  50.869  1.00  0.00     0.034 A 
HETATM   24 CL1  UNL     1      21.598   7.322  50.764  1.00  0.00    -0.084 Cl
HETATM   25  C15 UNL     1      23.042   5.395  52.070  1.00  0.00     0.024 A 
HETATM   26  C16 UNL     1      23.721   4.187  52.167  1.00  0.00     0.011 A 
ENDBRANCH   4  20
TORSDOF 4
ENDMDL
MODEL 6
REMARK VINA RESULT:      -8.1      2.748      3.100
REMARK  4 active torsions:
REMARK  status: ('A' for Active; 'I' for Inactive)
REMARK    1  A    between atoms: C5_5  and  C6_6 
REMARK    2  A    between atoms: N2_8  and  C7_9 
REMARK    3  A    between atoms: C8_11  and  O1_12 
REMARK    4  A    between atoms: C10_15  and  C11_16 
ROOT
HETATM    1  C6  UNL     1      25.543   0.667  52.941  1.00  0.00     0.085 C 
HETATM    2  N1  UNL     1      25.071   1.466  52.056  1.00  0.00    -0.172 NA
HETATM    3  N2  UNL     1      23.680   1.567  52.133  1.00  0.00    -0.236 N 
HETATM    4  C10 UNL     1      23.297   1.038  53.422  1.00  0.00     0.151 C 
HETATM    5  C17 UNL     1      24.425   0.113  53.758  1.00  0.00     0.096 C 
ENDROOT
BRANCH   1   6
HETATM    6  C5  UNL     1      26.939   0.270  53.216  1.00  0.00     0.078 A 
HETATM    7  C4  UNL     1      27.791   1.205  53.778  1.00  0.00     0.035 A 
HETATM    8  C3  UNL     1      29.041   0.610  53.943  1.00  0.00     0.028 A 
HETATM    9  C2  UNL     1      28.873  -0.680  53.462  1.00  0.00     0.025 A 
HETATM   10  C1  UNL     1      29.884  -1.772  53.390  1.00  0.00     0.070 C 
HETATM   11  N4  UNL     1      27.611  -0.861  53.032  1.00  0.00    -0.257 N 
HETATM   12 CL2  UNL     1      26.829  -2.248  52.340  1.00  0.00     0.019 Cl
ENDBRANCH   1   6
BRANCH   3  13
HETATM   13  C7  UNL     1      23.002   2.142  50.973  1.00  0.00     0.192 A 
HETATM   14  N3  UNL     1      22.716   1.618  49.842  1.00  0.00    -0.198 NA
HETATM   15  C8  UNL     1      22.091   2.364  48.949  1.00  0.00     0.171 A 
HETATM   16  C9  UNL     1      21.696   3.728  49.135  1.00  0.00     0.111 A 
HETATM   17  S1  UNL     1      22.351   3.934  50.896  1.00  0.00    -0.058 SA
BRANCH  15  18
HETATM   18  O1  UNL     1      21.836   1.667  47.750  1.00  0.00    -0.344 OA
HETATM   19  H6  UNL     1      21.068   1.029  47.650  1.00  0.00     0.219 HD
ENDBRANCH  15  18
ENDBRANCH   3  13
BRANCH   4  20
HETATM   20  C11 UNL     1      21.986   0.355  53.423  1.00  0.00    -0.033 A 
HETATM   21  C12 UNL     1      20.884   0.918  52.812  1.00  0.00     0.011 A 
HETATM   22  C13 UNL     1      19.647   0.290  52.804  1.00  0.00     0.024 A 
HETATM   23  C14 UNL     1      19.513  -0.934  53.423  1.00  0.00     0.034 A 
HETATM   24 CL1  UNL     1      17.956  -1.755  53.430  1.00  0.00    -0.084 Cl
HETATM   25  C15 UNL     1      20.615  -1.518  54.047  1.00  0.00     0.024 A 
HETATM   26  C16 UNL     1      21.849  -0.880  54.049  1.00  0.00     0.011 A 
ENDBRANCH   4  20
TORSDOF 4
ENDMDL
MODEL 7
REMARK VINA RESULT:      -7.5      2.976      4.462
REMARK  4 active torsions:
REMARK  status: ('A' for Active; 'I' for Inactive)
REMARK    1  A    between atoms: C5_5  and  C6_6 
REMARK    2  A    between atoms: N2_8  and  C7_9 
REMARK    3  A    between atoms: C8_11  and  O1_12 
REMARK    4  A    between atoms: C10_15  and  C11_16 
ROOT
HETATM    1  C6  UNL     1      25.970   1.673  51.924  1.00  0.00     0.085 C 
HETATM    2  N1  UNL     1      24.820   1.119  51.810  1.00  0.00    -0.172 NA
HETATM    3  N2  UNL     1      23.941   1.893  51.047  1.00  0.00    -0.236 N 
HETATM    4  C10 UNL     1      24.751   2.857  50.336  1.00  0.00     0.151 C 
HETATM    5  C17 UNL     1      25.973   2.971  51.192  1.00  0.00     0.096 C 
ENDROOT
BRANCH   1   6
HETATM    6  C5  UNL     1      27.181   1.211  52.634  1.00  0.00     0.078 A 
HETATM    7  C4  UNL     1      28.011   2.159  53.206  1.00  0.00     0.035 A 
HETATM    8  C3  UNL     1      29.077   1.496  53.813  1.00  0.00     0.028 A 
HETATM    9  C2  UNL     1      28.827   0.154  53.569  1.00  0.00     0.025 A 
HETATM   10  C1  UNL     1      29.643  -1.022  53.987  1.00  0.00     0.070 C 
HETATM   11  N4  UNL     1      27.691   0.006  52.864  1.00  0.00    -0.257 N 
HETATM   12 CL2  UNL     1      26.889  -1.417  52.277  1.00  0.00     0.019 Cl
ENDBRANCH   1   6
BRANCH   3  13
HETATM   13  C7  UNL     1      22.522   1.562  51.150  1.00  0.00     0.192 A 
HETATM   14  N3  UNL     1      21.631   1.461  50.238  1.00  0.00    -0.198 NA
HETATM   15  C8  UNL     1      20.401   1.145  50.600  1.00  0.00     0.171 A 
HETATM   16  C9  UNL     1      19.966   0.901  51.943  1.00  0.00     0.111 A 
HETATM   17  S1  UNL     1      21.630   1.182  52.794  1.00  0.00    -0.058 SA
BRANCH  15  18
HETATM   18  O1  UNL     1      19.520   1.067  49.502  1.00  0.00    -0.344 OA
HETATM   19  H6  UNL     1      19.293   1.864  48.936  1.00  0.00     0.219 HD
ENDBRANCH  15  18
ENDBRANCH   3  13
BRANCH   4  20
HETATM   20  C11 UNL     1      24.083   4.158  50.124  1.00  0.00    -0.033 A 
HETATM   21  C12 UNL     1      23.787   4.993  51.182  1.00  0.00     0.011 A 
HETATM   22  C13 UNL     1      23.160   6.218  50.999  1.00  0.00     0.024 A 
HETATM   23  C14 UNL     1      22.824   6.614  49.723  1.00  0.00     0.034 A 
HETATM   24 CL1  UNL     1      22.028   8.162  49.460  1.00  0.00    -0.084 Cl
HETATM   25  C15 UNL     1      23.114   5.783  48.642  1.00  0.00     0.024 A 
HETATM   26  C16 UNL     1      23.741   4.559  48.836  1.00  0.00     0.011 A 
ENDBRANCH   4  20
TORSDOF 4
ENDMDL
MODEL 8
REMARK VINA RESULT:      -7.5      3.093      6.786
REMARK  4 active torsions:
REMARK  status: ('A' for Active; 'I' for Inactive)
REMARK    1  A    between atoms: C5_5  and  C6_6 
REMARK    2  A    between atoms: N2_8  and  C7_9 
REMARK    3  A    between atoms: C8_11  and  O1_12 
REMARK    4  A    between atoms: C10_15  and  C11_16 
ROOT
HETATM    1  C6  UNL     1      21.300   1.231  52.450  1.00  0.00     0.085 C 
HETATM    2  N1  UNL     1      22.390   0.981  53.077  1.00  0.00    -0.172 NA
HETATM    3  N2  UNL     1      23.352   1.972  52.871  1.00  0.00    -0.236 N 
HETATM    4  C10 UNL     1      22.654   3.120  52.337  1.00  0.00     0.151 C 
HETATM    5  C17 UNL     1      21.439   2.515  51.705  1.00  0.00     0.096 C 
ENDROOT
BRANCH   1   6
HETATM    6  C5  UNL     1      20.040   0.463  52.388  1.00  0.00     0.078 A 
HETATM    7  C4  UNL     1      19.729  -0.380  53.441  1.00  0.00     0.035 A 
HETATM    8  C3  UNL     1      18.508  -0.992  53.164  1.00  0.00     0.028 A 
HETATM    9  C2  UNL     1      18.139  -0.475  51.931  1.00  0.00     0.025 A 
HETATM   10  C1  UNL     1      16.912  -0.776  51.139  1.00  0.00     0.070 C 
HETATM   11  N4  UNL     1      19.067   0.392  51.486  1.00  0.00    -0.257 N 
HETATM   12 CL2  UNL     1      19.145   1.332  50.029  1.00  0.00     0.019 Cl
ENDBRANCH   1   6
BRANCH   3  13
HETATM   13  C7  UNL     1      24.728   1.629  53.219  1.00  0.00     0.192 A 
HETATM   14  N3  UNL     1      25.713   2.384  53.531  1.00  0.00    -0.198 NA
HETATM   15  C8  UNL     1      26.873   1.816  53.806  1.00  0.00     0.171 A 
HETATM   16  C9  UNL     1      27.133   0.407  53.787  1.00  0.00     0.111 A 
HETATM   17  S1  UNL     1      25.400  -0.156  53.287  1.00  0.00    -0.058 SA
BRANCH  15  18
HETATM   18  O1  UNL     1      27.869   2.758  54.133  1.00  0.00    -0.344 OA
HETATM   19  H6  UNL     1      28.776   2.488  54.467  1.00  0.00     0.219 HD
ENDBRANCH  15  18
ENDBRANCH   3  13
BRANCH   4  20
HETATM   20  C11 UNL     1      23.454   3.915  51.381  1.00  0.00    -0.033 A 
HETATM   21  C12 UNL     1      23.743   5.243  51.619  1.00  0.00     0.011 A 
HETATM   22  C13 UNL     1      24.493   6.002  50.731  1.00  0.00     0.024 A 
HETATM   23  C14 UNL     1      24.964   5.413  49.579  1.00  0.00     0.034 A 
HETATM   24 CL1  UNL     1      25.918   6.350  48.433  1.00  0.00    -0.084 Cl
HETATM   25  C15 UNL     1      24.682   4.073  49.321  1.00  0.00     0.024 A 
HETATM   26  C16 UNL     1      23.930   3.321  50.216  1.00  0.00     0.011 A 
ENDBRANCH   4  20
TORSDOF 4
ENDMDL
MODEL 9
REMARK VINA RESULT:      -7.4      3.472      7.397
REMARK  4 active torsions:
REMARK  status: ('A' for Active; 'I' for Inactive)
REMARK    1  A    between atoms: C5_5  and  C6_6 
REMARK    2  A    between atoms: N2_8  and  C7_9 
REMARK    3  A    between atoms: C8_11  and  O1_12 
REMARK    4  A    between atoms: C10_15  and  C11_16 
ROOT
HETATM    1  C6  UNL     1      22.961   3.954  51.377  1.00  0.00     0.085 C 
HETATM    2  N1  UNL     1      22.222   3.088  51.968  1.00  0.00    -0.172 NA
HETATM    3  N2  UNL     1      22.972   2.211  52.755  1.00  0.00    -0.236 N 
HETATM    4  C10 UNL     1      24.271   2.822  52.932  1.00  0.00     0.151 C 
HETATM    5  C17 UNL     1      24.388   3.721  51.740  1.00  0.00     0.096 C 
ENDROOT
BRANCH   1   6
HETATM    6  C5  UNL     1      22.591   5.053  50.462  1.00  0.00     0.078 A 
HETATM    7  C4  UNL     1      22.109   6.230  51.007  1.00  0.00     0.035 A 
HETATM    8  C3  UNL     1      21.830   7.111  49.963  1.00  0.00     0.028 A 
HETATM    9  C2  UNL     1      22.167   6.403  48.819  1.00  0.00     0.025 A 
HETATM   10  C1  UNL     1      22.074   6.853  47.401  1.00  0.00     0.070 C 
HETATM   11  N4  UNL     1      22.619   5.178  49.139  1.00  0.00    -0.257 N 
HETATM   12 CL2  UNL     1      23.177   3.870  48.143  1.00  0.00     0.019 Cl
ENDBRANCH   1   6
BRANCH   3  13
HETATM   13  C7  UNL     1      22.308   0.980  53.175  1.00  0.00     0.192 A 
HETATM   14  N3  UNL     1      21.065   0.729  53.343  1.00  0.00    -0.198 NA
HETATM   15  C8  UNL     1      20.720  -0.484  53.735  1.00  0.00     0.171 A 
HETATM   16  C9  UNL     1      21.626  -1.563  53.993  1.00  0.00     0.111 A 
HETATM   17  S1  UNL     1      23.226  -0.640  53.595  1.00  0.00    -0.058 SA
BRANCH  15  18
HETATM   18  O1  UNL     1      19.325  -0.626  53.881  1.00  0.00    -0.344 OA
HETATM   19  H6  UNL     1      18.874  -0.608  54.777  1.00  0.00     0.219 HD
ENDBRANCH  15  18
ENDBRANCH   3  13
BRANCH   4  20
HETATM   20  C11 UNL     1      25.381   1.851  53.021  1.00  0.00    -0.033 A 
HETATM   21  C12 UNL     1      26.054   1.638  54.206  1.00  0.00     0.011 A 
HETATM   22  C13 UNL     1      27.099   0.730  54.306  1.00  0.00     0.024 A 
HETATM   23  C14 UNL     1      27.475   0.017  53.188  1.00  0.00     0.034 A 
HETATM   24 CL1  UNL     1      28.797  -1.142  53.283  1.00  0.00    -0.084 Cl
HETATM   25  C15 UNL     1      26.807   0.219  51.982  1.00  0.00     0.024 A 
HETATM   26  C16 UNL     1      25.763   1.131  51.893  1.00  0.00     0.011 A 
ENDBRANCH   4  20
TORSDOF 4
ENDMDL
