MODEL 1
REMARK VINA RESULT:      -9.0      0.000      0.000
REMARK  2 active torsions:
REMARK  status: ('A' for Active; 'I' for Inactive)
REMARK    1  A    between atoms: C11_16  and  N4_17 
REMARK    2  A    between atoms: N4_17  and  C12_18 
ROOT
HETATM    1  O1  UNL     1      25.507   5.890  49.873  1.00  0.00    -0.273 OA
HETATM    2  C1  UNL     1      26.259   6.671  49.191  1.00  0.00     0.222 C 
HETATM    3  C2  UNL     1      27.462   5.905  48.700  1.00  0.00     0.122 C 
HETATM    4  C3  UNL     1      27.194   4.422  48.849  1.00  0.00     0.123 C 
HETATM    5  N1  UNL     1      26.767   4.131  50.176  1.00  0.00    -0.419 N 
HETATM    6  C4  UNL     1      26.467   2.759  50.452  1.00  0.00     0.140 C 
HETATM    7  C5  UNL     1      25.771   2.769  51.823  1.00  0.00     0.186 C 
HETATM    8  O2  UNL     1      24.632   3.583  51.756  1.00  0.00    -0.387 OA
HETATM    9  C6  UNL     1      23.746   3.134  50.812  1.00  0.00     0.208 C 
HETATM   10  C7  UNL     1      22.499   4.031  50.693  1.00  0.00     0.286 C 
HETATM   11  C8  UNL     1      21.364   3.120  50.348  1.00  0.00     0.050 A 
HETATM   12  C9  UNL     1      21.080   3.198  49.002  1.00  0.00     0.076 A 
HETATM   13  N2  UNL     1      20.089   2.453  48.499  1.00  0.00    -0.244 NA
HETATM   14  C10 UNL     1      19.350   1.623  49.256  1.00  0.00     0.235 A 
HETATM   15  N3  UNL     1      19.651   1.570  50.558  1.00  0.00    -0.224 NA
HETATM   16  C11 UNL     1      20.615   2.267  51.163  1.00  0.00     0.140 A 
HETATM   17  C18 UNL     1      22.026   4.169  48.405  1.00  0.00     0.333 C 
HETATM   18  N5  UNL     1      22.653   4.809  49.514  1.00  0.00     0.110 N 
HETATM   19  C19 UNL     1      22.408   6.208  49.615  1.00  0.00     0.326 C 
HETATM   20  P1  UNL     1      23.728   6.968  50.651  1.00  0.00     0.002 P 
HETATM   21  N6  UNL     1      25.133   7.414  49.642  1.00  0.00    -0.337 N 
HETATM   22  H5  UNL     1      27.298   4.583  50.932  1.00  0.00     0.153 HD
HETATM   23  H22 UNL     1      24.059   6.241  51.839  1.00  0.00     0.082 HD
HETATM   24  H23 UNL     1      25.162   8.421  49.298  1.00  0.00     0.167 HD
ENDROOT
BRANCH  16  25
HETATM   25  N4  UNL     1      20.925   2.189  52.547  1.00  0.00    -0.340 N 
HETATM   26  H14 UNL     1      20.724   3.032  53.131  1.00  0.00     0.167 HD
BRANCH  25  27
HETATM   27  C12 UNL     1      21.481   1.106  53.275  1.00  0.00     0.035 A 
HETATM   28  C13 UNL     1      20.748   0.339  54.186  1.00  0.00     0.032 A 
HETATM   29  C14 UNL     1      21.282  -0.722  54.886  1.00  0.00     0.046 A 
HETATM   30  C15 UNL     1      22.603  -1.065  54.695  1.00  0.00     0.138 A 
HETATM   31  F1  UNL     1      23.122  -2.093  55.372  1.00  0.00    -0.204 F 
HETATM   32  C16 UNL     1      23.335  -0.319  53.802  1.00  0.00     0.074 A 
HETATM   33 CL1  UNL     1      25.024  -0.705  53.514  1.00  0.00    -0.081 Cl
HETATM   34  C17 UNL     1      22.795   0.732  53.114  1.00  0.00     0.056 A 
ENDBRANCH  25  27
ENDBRANCH  16  25
TORSDOF 2
ENDMDL
MODEL 2
REMARK VINA RESULT:      -8.7      3.228      5.136
REMARK  2 active torsions:
REMARK  status: ('A' for Active; 'I' for Inactive)
REMARK    1  A    between atoms: C11_16  and  N4_17 
REMARK    2  A    between atoms: N4_17  and  C12_18 
ROOT
HETATM    1  O1  UNL     1      21.026   5.118  49.399  1.00  0.00    -0.273 OA
HETATM    2  C1  UNL     1      20.196   6.041  49.080  1.00  0.00     0.222 C 
HETATM    3  C2  UNL     1      19.352   5.577  47.920  1.00  0.00     0.122 C 
HETATM    4  C3  UNL     1      19.502   4.078  47.773  1.00  0.00     0.123 C 
HETATM    5  N1  UNL     1      20.880   3.724  47.722  1.00  0.00    -0.419 N 
HETATM    6  C4  UNL     1      21.166   2.328  47.594  1.00  0.00     0.140 C 
HETATM    7  C5  UNL     1      22.676   2.202  47.853  1.00  0.00     0.186 C 
HETATM    8  O2  UNL     1      22.971   2.714  49.125  1.00  0.00    -0.387 OA
HETATM    9  C6  UNL     1      22.295   2.041  50.108  1.00  0.00     0.208 C 
HETATM   10  C7  UNL     1      22.573   2.606  51.514  1.00  0.00     0.286 C 
HETATM   11  C8  UNL     1      22.520   1.440  52.448  1.00  0.00     0.050 A 
HETATM   12  C9  UNL     1      21.313   1.414  53.113  1.00  0.00     0.076 A 
HETATM   13  N2  UNL     1      21.075   0.439  53.998  1.00  0.00    -0.244 NA
HETATM   14  C10 UNL     1      21.971  -0.527  54.271  1.00  0.00     0.235 A 
HETATM   15  N3  UNL     1      23.132  -0.473  53.609  1.00  0.00    -0.224 NA
HETATM   16  C11 UNL     1      23.472   0.451  52.708  1.00  0.00     0.140 A 
HETATM   17  C18 UNL     1      20.519   2.571  52.636  1.00  0.00     0.333 C 
HETATM   18  N5  UNL     1      21.435   3.370  51.892  1.00  0.00     0.110 N 
HETATM   19  C19 UNL     1      21.666   4.670  52.425  1.00  0.00     0.326 C 
HETATM   20  P1  UNL     1      22.322   5.752  51.086  1.00  0.00     0.002 P 
HETATM   21  N6  UNL     1      20.980   6.500  50.175  1.00  0.00    -0.337 N 
HETATM   22  H5  UNL     1      21.476   4.310  47.122  1.00  0.00     0.153 HD
HETATM   23  H22 UNL     1      23.334   5.156  50.268  1.00  0.00     0.082 HD
HETATM   24  H23 UNL     1      20.689   7.475  50.487  1.00  0.00     0.167 HD
ENDROOT
BRANCH  16  25
HETATM   25  N4  UNL     1      24.707   0.484  52.009  1.00  0.00    -0.340 N 
HETATM   26  H14 UNL     1      24.675   0.709  50.988  1.00  0.00     0.167 HD
BRANCH  25  27
HETATM   27  C12 UNL     1      26.017   0.254  52.503  1.00  0.00     0.035 A 
HETATM   28  C13 UNL     1      26.580  -1.022  52.615  1.00  0.00     0.032 A 
HETATM   29  C14 UNL     1      27.857  -1.248  53.083  1.00  0.00     0.046 A 
HETATM   30  C15 UNL     1      28.639  -0.180  53.465  1.00  0.00     0.138 A 
HETATM   31  F1  UNL     1      29.877  -0.396  53.918  1.00  0.00    -0.204 F 
HETATM   32  C16 UNL     1      28.097   1.080  53.360  1.00  0.00     0.074 A 
HETATM   33 CL1  UNL     1      29.042   2.482  53.832  1.00  0.00    -0.081 Cl
HETATM   34  C17 UNL     1      26.829   1.293  52.896  1.00  0.00     0.056 A 
ENDBRANCH  25  27
ENDBRANCH  16  25
TORSDOF 2
ENDMDL
MODEL 3
REMARK VINA RESULT:      -8.2      3.985      7.856
REMARK  2 active torsions:
REMARK  status: ('A' for Active; 'I' for Inactive)
REMARK    1  A    between atoms: C11_16  and  N4_17 
REMARK    2  A    between atoms: N4_17  and  C12_18 
ROOT
HETATM    1  O1  UNL     1      22.272   1.060  50.991  1.00  0.00    -0.273 OA
HETATM    2  C1  UNL     1      21.269   0.334  51.323  1.00  0.00     0.222 C 
HETATM    3  C2  UNL     1      21.472  -0.188  52.723  1.00  0.00     0.122 C 
HETATM    4  C3  UNL     1      22.574   0.607  53.389  1.00  0.00     0.123 C 
HETATM    5  N1  UNL     1      23.731   0.633  52.560  1.00  0.00    -0.419 N 
HETATM    6  C4  UNL     1      24.852   1.365  53.067  1.00  0.00     0.140 C 
HETATM    7  C5  UNL     1      25.827   1.476  51.884  1.00  0.00     0.186 C 
HETATM    8  O2  UNL     1      25.185   2.116  50.815  1.00  0.00    -0.387 OA
HETATM    9  C6  UNL     1      24.761   3.373  51.160  1.00  0.00     0.208 C 
HETATM   10  C7  UNL     1      24.020   4.086  50.013  1.00  0.00     0.286 C 
HETATM   11  C8  UNL     1      24.341   5.540  50.154  1.00  0.00     0.050 A 
HETATM   12  C9  UNL     1      23.287   6.208  50.740  1.00  0.00     0.076 A 
HETATM   13  N2  UNL     1      23.385   7.526  50.950  1.00  0.00    -0.244 NA
HETATM   14  C10 UNL     1      24.475   8.236  50.611  1.00  0.00     0.235 A 
HETATM   15  N3  UNL     1      25.480   7.558  50.044  1.00  0.00    -0.224 NA
HETATM   16  C11 UNL     1      25.489   6.248  49.789  1.00  0.00     0.140 A 
HETATM   17  C18 UNL     1      22.226   5.210  51.012  1.00  0.00     0.333 C 
HETATM   18  N5  UNL     1      22.632   4.034  50.315  1.00  0.00     0.110 N 
HETATM   19  C19 UNL     1      21.751   3.620  49.276  1.00  0.00     0.326 C 
HETATM   20  P1  UNL     1      22.048   1.836  48.922  1.00  0.00     0.002 P 
HETATM   21  N6  UNL     1      21.056   0.814  50.001  1.00  0.00    -0.337 N 
HETATM   22  H5  UNL     1      24.001  -0.262  52.130  1.00  0.00     0.153 HD
HETATM   23  H22 UNL     1      23.426   1.456  48.848  1.00  0.00     0.082 HD
HETATM   24  H23 UNL     1      20.123   0.487  49.608  1.00  0.00     0.167 HD
ENDROOT
BRANCH  16  25
HETATM   25  N4  UNL     1      26.571   5.546  49.195  1.00  0.00    -0.340 N 
HETATM   26  H14 UNL     1      26.586   4.506  49.304  1.00  0.00     0.167 HD
BRANCH  25  27
HETATM   27  C12 UNL     1      27.665   6.059  48.452  1.00  0.00     0.035 A 
HETATM   28  C13 UNL     1      27.587   7.221  47.677  1.00  0.00     0.032 A 
HETATM   29  C14 UNL     1      28.651   7.730  46.964  1.00  0.00     0.046 A 
HETATM   30  C15 UNL     1      29.866   7.079  47.001  1.00  0.00     0.138 A 
HETATM   31  F1  UNL     1      30.900   7.570  46.312  1.00  0.00    -0.204 F 
HETATM   32  C16 UNL     1      29.956   5.935  47.759  1.00  0.00     0.074 A 
HETATM   33 CL1  UNL     1      31.476   5.060  47.847  1.00  0.00    -0.081 Cl
HETATM   34  C17 UNL     1      28.893   5.439  48.462  1.00  0.00     0.056 A 
ENDBRANCH  25  27
ENDBRANCH  16  25
TORSDOF 2
ENDMDL
MODEL 4
REMARK VINA RESULT:      -7.9      8.372     11.246
REMARK  2 active torsions:
REMARK  status: ('A' for Active; 'I' for Inactive)
REMARK    1  A    between atoms: C11_16  and  N4_17 
REMARK    2  A    between atoms: N4_17  and  C12_18 
ROOT
HETATM    1  O1  UNL     1      30.559  11.994  46.313  1.00  0.00    -0.273 OA
HETATM    2  C1  UNL     1      30.109  13.153  46.002  1.00  0.00     0.222 C 
HETATM    3  C2  UNL     1      30.030  13.272  44.501  1.00  0.00     0.122 C 
HETATM    4  C3  UNL     1      30.142  11.891  43.892  1.00  0.00     0.123 C 
HETATM    5  N1  UNL     1      31.288  11.219  44.406  1.00  0.00    -0.419 N 
HETATM    6  C4  UNL     1      31.508   9.891  43.919  1.00  0.00     0.140 C 
HETATM    7  C5  UNL     1      32.604   9.308  44.826  1.00  0.00     0.186 C 
HETATM    8  O2  UNL     1      32.168   9.345  46.158  1.00  0.00    -0.387 OA
HETATM    9  C6  UNL     1      31.017   8.623  46.332  1.00  0.00     0.208 C 
HETATM   10  C7  UNL     1      30.496   8.675  47.781  1.00  0.00     0.286 C 
HETATM   11  C8  UNL     1      29.857   7.349  48.041  1.00  0.00     0.050 A 
HETATM   12  C9  UNL     1      28.486   7.452  47.948  1.00  0.00     0.076 A 
HETATM   13  N2  UNL     1      27.733   6.365  48.150  1.00  0.00    -0.244 NA
HETATM   14  C10 UNL     1      28.260   5.162  48.443  1.00  0.00     0.235 A 
HETATM   15  N3  UNL     1      29.593   5.095  48.526  1.00  0.00    -0.224 NA
HETATM   16  C11 UNL     1      30.437   6.114  48.343  1.00  0.00     0.140 A 
HETATM   17  C18 UNL     1      28.169   8.862  47.619  1.00  0.00     0.333 C 
HETATM   18  N5  UNL     1      29.393   9.571  47.798  1.00  0.00     0.110 N 
HETATM   19  C19 UNL     1      29.367  10.560  48.822  1.00  0.00     0.326 C 
HETATM   20  P1  UNL     1      30.727  11.766  48.516  1.00  0.00     0.002 P 
HETATM   21  N6  UNL     1      30.174  13.064  47.421  1.00  0.00    -0.337 N 
HETATM   22  H5  UNL     1      32.153  11.773  44.457  1.00  0.00     0.153 HD
HETATM   23  H22 UNL     1      31.983  11.182  48.156  1.00  0.00     0.082 HD
HETATM   24  H23 UNL     1      29.820  13.952  47.888  1.00  0.00     0.167 HD
ENDROOT
BRANCH  16  25
HETATM   25  N4  UNL     1      31.851   6.019  48.426  1.00  0.00    -0.340 N 
HETATM   26  H14 UNL     1      32.320   6.527  49.210  1.00  0.00     0.167 HD
BRANCH  25  27
HETATM   27  C12 UNL     1      32.748   5.316  47.581  1.00  0.00     0.035 A 
HETATM   28  C13 UNL     1      33.833   4.577  48.062  1.00  0.00     0.032 A 
HETATM   29  C14 UNL     1      34.699   3.882  47.244  1.00  0.00     0.046 A 
HETATM   30  C15 UNL     1      34.505   3.901  45.880  1.00  0.00     0.138 A 
HETATM   31  F1  UNL     1      35.342   3.228  45.085  1.00  0.00    -0.204 F 
HETATM   32  C16 UNL     1      33.441   4.625  45.394  1.00  0.00     0.074 A 
HETATM   33 CL1  UNL     1      33.142   4.689  43.665  1.00  0.00    -0.081 Cl
HETATM   34  C17 UNL     1      32.590   5.311  46.214  1.00  0.00     0.056 A 
ENDBRANCH  25  27
ENDBRANCH  16  25
TORSDOF 2
ENDMDL
MODEL 5
REMARK VINA RESULT:      -7.7      4.207      8.132
REMARK  2 active torsions:
REMARK  status: ('A' for Active; 'I' for Inactive)
REMARK    1  A    between atoms: C11_16  and  N4_17 
REMARK    2  A    between atoms: N4_17  and  C12_18 
ROOT
HETATM    1  O1  UNL     1      22.468   2.396  50.531  1.00  0.00    -0.273 OA
HETATM    2  C1  UNL     1      22.034   1.229  50.834  1.00  0.00     0.222 C 
HETATM    3  C2  UNL     1      21.309   0.642  49.650  1.00  0.00     0.122 C 
HETATM    4  C3  UNL     1      21.659   1.443  48.414  1.00  0.00     0.123 C 
HETATM    5  N1  UNL     1      21.445   2.831  48.651  1.00  0.00    -0.419 N 
HETATM    6  C4  UNL     1      21.748   3.709  47.562  1.00  0.00     0.140 C 
HETATM    7  C5  UNL     1      21.711   5.122  48.164  1.00  0.00     0.186 C 
HETATM    8  O2  UNL     1      22.636   5.202  49.214  1.00  0.00    -0.387 OA
HETATM    9  C6  UNL     1      23.910   4.935  48.785  1.00  0.00     0.208 C 
HETATM   10  C7  UNL     1      24.943   4.981  49.927  1.00  0.00     0.286 C 
HETATM   11  C8  UNL     1      26.211   5.491  49.319  1.00  0.00     0.050 A 
HETATM   12  C9  UNL     1      27.082   4.449  49.084  1.00  0.00     0.076 A 
HETATM   13  N2  UNL     1      28.278   4.706  48.541  1.00  0.00    -0.244 NA
HETATM   14  C10 UNL     1      28.672   5.949  48.211  1.00  0.00     0.235 A 
HETATM   15  N3  UNL     1      27.803   6.938  48.452  1.00  0.00    -0.224 NA
HETATM   16  C11 UNL     1      26.589   6.795  48.988  1.00  0.00     0.140 A 
HETATM   17  C18 UNL     1      26.414   3.204  49.530  1.00  0.00     0.333 C 
HETATM   18  N5  UNL     1      25.265   3.636  50.255  1.00  0.00     0.110 N 
HETATM   19  C19 UNL     1      25.257   3.278  51.633  1.00  0.00     0.326 C 
HETATM   20  P1  UNL     1      23.522   3.329  52.249  1.00  0.00     0.002 P 
HETATM   21  N6  UNL     1      22.712   1.763  51.966  1.00  0.00    -0.337 N 
HETATM   22  H5  UNL     1      20.569   3.078  49.131  1.00  0.00     0.153 HD
HETATM   23  H22 UNL     1      22.765   4.471  51.831  1.00  0.00     0.082 HD
HETATM   24  H23 UNL     1      22.723   1.076  52.778  1.00  0.00     0.167 HD
ENDROOT
BRANCH  16  25
HETATM   25  N4  UNL     1      25.678   7.857  49.226  1.00  0.00    -0.340 N 
HETATM   26  H14 UNL     1      25.843   8.450  50.071  1.00  0.00     0.167 HD
BRANCH  25  27
HETATM   27  C12 UNL     1      24.545   8.247  48.465  1.00  0.00     0.035 A 
HETATM   28  C13 UNL     1      24.489   8.150  47.071  1.00  0.00     0.032 A 
HETATM   29  C14 UNL     1      23.386   8.516  46.330  1.00  0.00     0.046 A 
HETATM   30  C15 UNL     1      22.268   9.004  46.973  1.00  0.00     0.138 A 
HETATM   31  F1  UNL     1      21.197   9.358  46.257  1.00  0.00    -0.204 F 
HETATM   32  C16 UNL     1      22.311   9.105  48.344  1.00  0.00     0.074 A 
HETATM   33 CL1  UNL     1      20.920   9.720  49.221  1.00  0.00    -0.081 Cl
HETATM   34  C17 UNL     1      23.411   8.740  49.068  1.00  0.00     0.056 A 
ENDBRANCH  25  27
ENDBRANCH  16  25
TORSDOF 2
ENDMDL
MODEL 6
REMARK VINA RESULT:      -7.6      4.141      5.883
REMARK  2 active torsions:
REMARK  status: ('A' for Active; 'I' for Inactive)
REMARK    1  A    between atoms: C11_16  and  N4_17 
REMARK    2  A    between atoms: N4_17  and  C12_18 
ROOT
HETATM    1  O1  UNL     1      23.800   1.903  53.050  1.00  0.00    -0.273 OA
HETATM    2  C1  UNL     1      25.022   1.574  53.250  1.00  0.00     0.222 C 
HETATM    3  C2  UNL     1      25.104   0.092  53.513  1.00  0.00     0.122 C 
HETATM    4  C3  UNL     1      23.804  -0.555  53.088  1.00  0.00     0.123 C 
HETATM    5  N1  UNL     1      22.700   0.123  53.679  1.00  0.00    -0.419 N 
HETATM    6  C4  UNL     1      21.402  -0.382  53.349  1.00  0.00     0.140 C 
HETATM    7  C5  UNL     1      20.417   0.679  53.866  1.00  0.00     0.186 C 
HETATM    8  O2  UNL     1      20.703   1.910  53.258  1.00  0.00    -0.387 OA
HETATM    9  C6  UNL     1      20.601   1.835  51.894  1.00  0.00     0.208 C 
HETATM   10  C7  UNL     1      20.945   3.166  51.199  1.00  0.00     0.286 C 
HETATM   11  C8  UNL     1      20.074   3.238  49.986  1.00  0.00     0.050 A 
HETATM   12  C9  UNL     1      20.794   2.902  48.859  1.00  0.00     0.076 A 
HETATM   13  N2  UNL     1      20.185   2.909  47.668  1.00  0.00    -0.244 NA
HETATM   14  C10 UNL     1      18.888   3.232  47.518  1.00  0.00     0.235 A 
HETATM   15  N3  UNL     1      18.217   3.553  48.630  1.00  0.00    -0.224 NA
HETATM   16  C11 UNL     1      18.724   3.578  49.865  1.00  0.00     0.140 A 
HETATM   17  C18 UNL     1      22.177   2.593  49.293  1.00  0.00     0.333 C 
HETATM   18  N5  UNL     1      22.249   3.027  50.649  1.00  0.00     0.110 N 
HETATM   19  C19 UNL     1      23.178   4.078  50.893  1.00  0.00     0.326 C 
HETATM   20  P1  UNL     1      23.608   4.086  52.685  1.00  0.00     0.002 P 
HETATM   21  N6  UNL     1      24.970   2.975  53.003  1.00  0.00    -0.337 N 
HETATM   22  H5  UNL     1      22.796   0.359  54.676  1.00  0.00     0.153 HD
HETATM   23  H22 UNL     1      22.497   3.931  53.574  1.00  0.00     0.082 HD
HETATM   24  H23 UNL     1      25.939   3.414  53.018  1.00  0.00     0.167 HD
ENDROOT
BRANCH  16  25
HETATM   25  N4  UNL     1      17.992   3.912  51.035  1.00  0.00    -0.340 N 
HETATM   26  H14 UNL     1      18.317   4.740  51.585  1.00  0.00     0.167 HD
BRANCH  25  27
HETATM   27  C12 UNL     1      16.850   3.273  51.583  1.00  0.00     0.035 A 
HETATM   28  C13 UNL     1      16.594   1.906  51.440  1.00  0.00     0.032 A 
HETATM   29  C14 UNL     1      15.493   1.279  51.982  1.00  0.00     0.046 A 
HETATM   30  C15 UNL     1      14.582   2.017  52.707  1.00  0.00     0.138 A 
HETATM   31  F1  UNL     1      13.513   1.412  53.235  1.00  0.00    -0.204 F 
HETATM   32  C16 UNL     1      14.821   3.363  52.856  1.00  0.00     0.074 A 
HETATM   33 CL1  UNL     1      13.698   4.357  53.768  1.00  0.00    -0.081 Cl
HETATM   34  C17 UNL     1      15.917   3.974  52.313  1.00  0.00     0.056 A 
ENDBRANCH  25  27
ENDBRANCH  16  25
TORSDOF 2
ENDMDL
MODEL 7
REMARK VINA RESULT:      -7.6      6.311      9.674
REMARK  2 active torsions:
REMARK  status: ('A' for Active; 'I' for Inactive)
REMARK    1  A    between atoms: C11_16  and  N4_17 
REMARK    2  A    between atoms: N4_17  and  C12_18 
ROOT
HETATM    1  O1  UNL     1      29.424  12.069  46.164  1.00  0.00    -0.273 OA
HETATM    2  C1  UNL     1      29.763  13.260  45.835  1.00  0.00     0.222 C 
HETATM    3  C2  UNL     1      29.237  14.231  46.862  1.00  0.00     0.122 C 
HETATM    4  C3  UNL     1      28.829  13.463  48.100  1.00  0.00     0.123 C 
HETATM    5  N1  UNL     1      27.956  12.393  47.749  1.00  0.00    -0.419 N 
HETATM    6  C4  UNL     1      27.500  11.574  48.830  1.00  0.00     0.140 C 
HETATM    7  C5  UNL     1      26.835  10.360  48.161  1.00  0.00     0.186 C 
HETATM    8  O2  UNL     1      27.770   9.719  47.336  1.00  0.00    -0.387 OA
HETATM    9  C6  UNL     1      28.861   9.291  48.046  1.00  0.00     0.208 C 
HETATM   10  C7  UNL     1      29.921   8.614  47.157  1.00  0.00     0.286 C 
HETATM   11  C8  UNL     1      30.550   7.551  48.000  1.00  0.00     0.050 A 
HETATM   12  C9  UNL     1      31.772   7.977  48.474  1.00  0.00     0.076 A 
HETATM   13  N2  UNL     1      32.493   7.160  49.251  1.00  0.00    -0.244 NA
HETATM   14  C10 UNL     1      32.074   5.928  49.593  1.00  0.00     0.235 A 
HETATM   15  N3  UNL     1      30.885   5.544  49.117  1.00  0.00    -0.224 NA
HETATM   16  C11 UNL     1      30.086   6.276  48.337  1.00  0.00     0.140 A 
HETATM   17  C18 UNL     1      31.993   9.348  47.959  1.00  0.00     0.333 C 
HETATM   18  N5  UNL     1      30.978   9.547  46.979  1.00  0.00     0.110 N 
HETATM   19  C19 UNL     1      31.456   9.750  45.653  1.00  0.00     0.326 C 
HETATM   20  P1  UNL     1      30.144  10.591  44.670  1.00  0.00     0.002 P 
HETATM   21  N6  UNL     1      30.268  12.363  44.853  1.00  0.00    -0.337 N 
HETATM   22  H5  UNL     1      27.211  12.619  47.077  1.00  0.00     0.153 HD
HETATM   23  H22 UNL     1      28.824  10.068  44.852  1.00  0.00     0.082 HD
HETATM   24  H23 UNL     1      30.820  12.874  44.100  1.00  0.00     0.167 HD
ENDROOT
BRANCH  16  25
HETATM   25  N4  UNL     1      28.821   5.854  47.849  1.00  0.00    -0.340 N 
HETATM   26  H14 UNL     1      28.733   5.692  46.820  1.00  0.00     0.167 HD
BRANCH  25  27
HETATM   27  C12 UNL     1      27.624   5.609  48.572  1.00  0.00     0.035 A 
HETATM   28  C13 UNL     1      27.211   4.331  48.959  1.00  0.00     0.032 A 
HETATM   29  C14 UNL     1      26.056   4.091  49.672  1.00  0.00     0.046 A 
HETATM   30  C15 UNL     1      25.250   5.149  50.034  1.00  0.00     0.138 A 
HETATM   31  F1  UNL     1      24.130   4.920  50.725  1.00  0.00    -0.204 F 
HETATM   32  C16 UNL     1      25.645   6.412  49.658  1.00  0.00     0.074 A 
HETATM   33 CL1  UNL     1      24.661   7.802  50.088  1.00  0.00    -0.081 Cl
HETATM   34  C17 UNL     1      26.793   6.638  48.950  1.00  0.00     0.056 A 
ENDBRANCH  25  27
ENDBRANCH  16  25
TORSDOF 2
ENDMDL
MODEL 8
REMARK VINA RESULT:      -7.5      3.029      5.931
REMARK  2 active torsions:
REMARK  status: ('A' for Active; 'I' for Inactive)
REMARK    1  A    between atoms: C11_16  and  N4_17 
REMARK    2  A    between atoms: N4_17  and  C12_18 
ROOT
HETATM    1  O1  UNL     1      19.679   3.543  46.301  1.00  0.00    -0.273 OA
HETATM    2  C1  UNL     1      18.599   3.689  45.628  1.00  0.00     0.222 C 
HETATM    3  C2  UNL     1      17.430   3.196  46.443  1.00  0.00     0.122 C 
HETATM    4  C3  UNL     1      17.864   3.054  47.886  1.00  0.00     0.123 C 
HETATM    5  N1  UNL     1      19.054   2.277  47.968  1.00  0.00    -0.419 N 
HETATM    6  C4  UNL     1      19.582   2.073  49.282  1.00  0.00     0.140 C 
HETATM    7  C5  UNL     1      20.981   1.473  49.064  1.00  0.00     0.186 C 
HETATM    8  O2  UNL     1      21.746   2.357  48.290  1.00  0.00    -0.387 OA
HETATM    9  C6  UNL     1      21.877   3.578  48.898  1.00  0.00     0.208 C 
HETATM   10  C7  UNL     1      22.684   4.581  48.053  1.00  0.00     0.286 C 
HETATM   11  C8  UNL     1      23.425   5.441  49.025  1.00  0.00     0.050 A 
HETATM   12  C9  UNL     1      22.791   6.656  49.169  1.00  0.00     0.076 A 
HETATM   13  N2  UNL     1      23.307   7.569  50.001  1.00  0.00    -0.244 NA
HETATM   14  C10 UNL     1      24.428   7.351  50.711  1.00  0.00     0.235 A 
HETATM   15  N3  UNL     1      25.020   6.162  50.549  1.00  0.00    -0.224 NA
HETATM   16  C11 UNL     1      24.593   5.183  49.748  1.00  0.00     0.140 A 
HETATM   17  C18 UNL     1      21.598   6.640  48.291  1.00  0.00     0.333 C 
HETATM   18  N5  UNL     1      21.753   5.484  47.471  1.00  0.00     0.110 N 
HETATM   19  C19 UNL     1      21.881   5.750  46.079  1.00  0.00     0.326 C 
HETATM   20  P1  UNL     1      21.445   4.226  45.140  1.00  0.00     0.002 P 
HETATM   21  N6  UNL     1      19.686   4.161  44.839  1.00  0.00    -0.337 N 
HETATM   22  H5  UNL     1      19.079   1.425  47.391  1.00  0.00     0.153 HD
HETATM   23  H22 UNL     1      22.002   3.014  45.662  1.00  0.00     0.082 HD
HETATM   24  H23 UNL     1      19.357   4.539  43.901  1.00  0.00     0.167 HD
ENDROOT
BRANCH  16  25
HETATM   25  N4  UNL     1      25.231   3.923  49.598  1.00  0.00    -0.340 N 
HETATM   26  H14 UNL     1      25.683   3.721  48.677  1.00  0.00     0.167 HD
BRANCH  25  27
HETATM   27  C12 UNL     1      25.351   2.868  50.539  1.00  0.00     0.035 A 
HETATM   28  C13 UNL     1      26.581   2.356  50.963  1.00  0.00     0.032 A 
HETATM   29  C14 UNL     1      26.702   1.340  51.886  1.00  0.00     0.046 A 
HETATM   30  C15 UNL     1      25.567   0.783  52.435  1.00  0.00     0.138 A 
HETATM   31  F1  UNL     1      25.681  -0.201  53.331  1.00  0.00    -0.204 F 
HETATM   32  C16 UNL     1      24.350   1.277  52.026  1.00  0.00     0.074 A 
HETATM   33 CL1  UNL     1      22.867   0.610  52.687  1.00  0.00    -0.081 Cl
HETATM   34  C17 UNL     1      24.242   2.285  51.109  1.00  0.00     0.056 A 
ENDBRANCH  25  27
ENDBRANCH  16  25
TORSDOF 2
ENDMDL
MODEL 9
REMARK VINA RESULT:      -7.4      2.397      3.222
REMARK  2 active torsions:
REMARK  status: ('A' for Active; 'I' for Inactive)
REMARK    1  A    between atoms: C11_16  and  N4_17 
REMARK    2  A    between atoms: N4_17  and  C12_18 
ROOT
HETATM    1  O1  UNL     1      22.992   7.889  48.902  1.00  0.00    -0.273 OA
HETATM    2  C1  UNL     1      22.741   8.882  48.131  1.00  0.00     0.222 C 
HETATM    3  C2  UNL     1      23.850   9.021  47.119  1.00  0.00     0.122 C 
HETATM    4  C3  UNL     1      24.669   7.748  47.109  1.00  0.00     0.123 C 
HETATM    5  N1  UNL     1      25.072   7.413  48.433  1.00  0.00    -0.419 N 
HETATM    6  C4  UNL     1      25.849   6.219  48.571  1.00  0.00     0.140 C 
HETATM    7  C5  UNL     1      25.895   5.943  50.083  1.00  0.00     0.186 C 
HETATM    8  O2  UNL     1      24.587   5.813  50.569  1.00  0.00    -0.387 OA
HETATM    9  C6  UNL     1      23.919   4.788  49.951  1.00  0.00     0.208 C 
HETATM   10  C7  UNL     1      22.465   4.645  50.442  1.00  0.00     0.286 C 
HETATM   11  C8  UNL     1      22.152   3.184  50.388  1.00  0.00     0.050 A 
HETATM   12  C9  UNL     1      21.400   2.897  49.270  1.00  0.00     0.076 A 
HETATM   13  N2  UNL     1      21.017   1.634  49.046  1.00  0.00    -0.244 NA
HETATM   14  C10 UNL     1      21.336   0.622  49.873  1.00  0.00     0.235 A 
HETATM   15  N3  UNL     1      22.066   0.934  50.950  1.00  0.00    -0.224 NA
HETATM   16  C11 UNL     1      22.500   2.156  51.268  1.00  0.00     0.140 A 
HETATM   17  C18 UNL     1      21.191   4.168  48.538  1.00  0.00     0.333 C 
HETATM   18  N5  UNL     1      21.626   5.189  49.432  1.00  0.00     0.110 N 
HETATM   19  C19 UNL     1      20.610   6.098  49.843  1.00  0.00     0.326 C 
HETATM   20  P1  UNL     1      21.407   7.649  50.439  1.00  0.00     0.002 P 
HETATM   21  N6  UNL     1      21.684   8.770  49.076  1.00  0.00    -0.337 N 
HETATM   22  H5  UNL     1      25.428   8.189  49.008  1.00  0.00     0.153 HD
HETATM   23  H22 UNL     1      22.543   7.457  51.288  1.00  0.00     0.082 HD
HETATM   24  H23 UNL     1      20.932   9.506  48.915  1.00  0.00     0.167 HD
ENDROOT
BRANCH  16  25
HETATM   25  N4  UNL     1      23.283   2.464  52.412  1.00  0.00    -0.340 N 
HETATM   26  H14 UNL     1      23.023   3.318  52.955  1.00  0.00     0.167 HD
BRANCH  25  27
HETATM   27  C12 UNL     1      24.398   1.765  52.943  1.00  0.00     0.035 A 
HETATM   28  C13 UNL     1      24.314   0.466  53.456  1.00  0.00     0.032 A 
HETATM   29  C14 UNL     1      25.396  -0.221  53.961  1.00  0.00     0.046 A 
HETATM   30  C15 UNL     1      26.636   0.381  53.972  1.00  0.00     0.138 A 
HETATM   31  F1  UNL     1      27.688  -0.283  54.461  1.00  0.00    -0.204 F 
HETATM   32  C16 UNL     1      26.733   1.658  53.471  1.00  0.00     0.074 A 
HETATM   33 CL1  UNL     1      28.285   2.480  53.458  1.00  0.00    -0.081 Cl
HETATM   34  C17 UNL     1      25.652   2.330  52.973  1.00  0.00     0.056 A 
ENDBRANCH  25  27
ENDBRANCH  16  25
TORSDOF 2
ENDMDL
