MODEL 1
REMARK VINA RESULT:      -7.6      0.000      0.000
REMARK  7 active torsions:
REMARK  status: ('A' for Active; 'I' for Inactive)
REMARK    1  A    between atoms: O1_1  and  C1_2 
REMARK    2  A    between atoms: C1_2  and  C2_3 
REMARK    3  A    between atoms: C2_3  and  N1_4 
REMARK    4  A    between atoms: C2_3  and  C11_17 
REMARK    5  A    between atoms: N1_4  and  C3_5 
REMARK    6  A    between atoms: N2_6  and  C4_7 
REMARK    7  A    between atoms: N3_8  and  C5_9 
ROOT
HETATM    1  C3  UNL     1      25.592   2.781  51.510  1.00  0.00     0.204 C 
HETATM    2  N2  UNL     1      24.490   3.151  51.114  1.00  0.00    -0.238 NA
ENDROOT
BRANCH   1   3
HETATM    3  N1  UNL     1      26.003   1.918  52.538  1.00  0.00    -0.374 N 
HETATM    4  H5  UNL     1      25.168   1.553  53.103  1.00  0.00     0.161 HD
BRANCH   3   5
HETATM    5  C2  UNL     1      27.359   1.642  52.728  1.00  0.00     0.139 C 
BRANCH   5   6
HETATM    6  C1  UNL     1      28.264   2.368  53.616  1.00  0.00     0.194 C 
BRANCH   6   7
HETATM    7  O1  UNL     1      29.317   3.055  52.987  1.00  0.00    -0.399 OA
HETATM    8  H1  UNL     1      30.099   2.493  52.835  1.00  0.00     0.209 HD
ENDBRANCH   6   7
ENDBRANCH   5   6
BRANCH   5   9
HETATM    9  C11 UNL     1      27.644   0.152  52.808  1.00  0.00    -0.034 A 
HETATM   10  C12 UNL     1      26.738  -0.803  52.377  1.00  0.00     0.009 A 
HETATM   11  C13 UNL     1      26.987  -2.156  52.445  1.00  0.00     0.001 A 
HETATM   12  C14 UNL     1      28.166  -2.596  52.954  1.00  0.00     0.000 A 
HETATM   13  C15 UNL     1      29.100  -1.699  53.397  1.00  0.00     0.001 A 
HETATM   14  C16 UNL     1      28.841  -0.347  53.324  1.00  0.00     0.009 A 
ENDBRANCH   5   9
ENDBRANCH   3   5
ENDBRANCH   1   3
BRANCH   2  15
HETATM   15  C4  UNL     1      23.237   2.810  51.596  1.00  0.00     0.229 C 
HETATM   16  N3  UNL     1      23.227   1.610  51.135  1.00  0.00    -0.262 NA
BRANCH  16  17
HETATM   17  C5  UNL     1      22.047   0.763  51.383  1.00  0.00     0.205 A 
HETATM   18  S1  UNL     1      20.634   1.683  51.919  1.00  0.00    -0.100 SA
HETATM   19  C6  UNL     1      21.095   0.606  53.203  1.00  0.00     0.014 A 
HETATM   20  C7  UNL     1      22.090   0.065  52.627  1.00  0.00    -0.029 A 
HETATM   21  C10 UNL     1      20.667   0.237  54.580  1.00  0.00     0.315 C 
HETATM   22  C8  UNL     1      22.937  -0.999  53.279  1.00  0.00     0.068 C 
HETATM   23  C9  UNL     1      22.546  -1.131  54.741  1.00  0.00     0.274 C 
HETATM   24  N4  UNL     1      21.106  -1.143  54.802  1.00  0.00     0.088 N 
HETATM   25  H13 UNL     1      20.719  -1.727  54.008  1.00  0.00     0.316 HD
ENDBRANCH  16  17
ENDBRANCH   2  15
TORSDOF 7
ENDMDL
MODEL 2
REMARK VINA RESULT:      -7.4      2.869      6.123
REMARK  7 active torsions:
REMARK  status: ('A' for Active; 'I' for Inactive)
REMARK    1  A    between atoms: O1_1  and  C1_2 
REMARK    2  A    between atoms: C1_2  and  C2_3 
REMARK    3  A    between atoms: C2_3  and  N1_4 
REMARK    4  A    between atoms: C2_3  and  C11_17 
REMARK    5  A    between atoms: N1_4  and  C3_5 
REMARK    6  A    between atoms: N2_6  and  C4_7 
REMARK    7  A    between atoms: N3_8  and  C5_9 
ROOT
HETATM    1  C3  UNL     1      22.550   2.880  52.122  1.00  0.00     0.204 C 
HETATM    2  N2  UNL     1      22.789   1.878  52.792  1.00  0.00    -0.238 NA
ENDROOT
BRANCH   1   3
HETATM    3  N1  UNL     1      22.915   3.279  50.828  1.00  0.00    -0.374 N 
HETATM    4  H5  UNL     1      22.831   2.470  50.128  1.00  0.00     0.161 HD
BRANCH   3   5
HETATM    5  C2  UNL     1      23.336   4.588  50.585  1.00  0.00     0.139 C 
BRANCH   5   6
HETATM    6  C1  UNL     1      23.148   5.727  51.480  1.00  0.00     0.194 C 
BRANCH   6   7
HETATM    7  O1  UNL     1      24.040   5.806  52.565  1.00  0.00    -0.399 OA
HETATM    8  H1  UNL     1      24.117   6.708  52.927  1.00  0.00     0.209 HD
ENDBRANCH   6   7
ENDBRANCH   5   6
BRANCH   5   9
HETATM    9  C11 UNL     1      24.718   4.649  49.958  1.00  0.00    -0.034 A 
HETATM   10  C12 UNL     1      25.587   3.570  49.966  1.00  0.00     0.009 A 
HETATM   11  C13 UNL     1      26.841   3.615  49.400  1.00  0.00     0.001 A 
HETATM   12  C14 UNL     1      27.268   4.756  48.803  1.00  0.00     0.000 A 
HETATM   13  C15 UNL     1      26.454   5.857  48.765  1.00  0.00     0.001 A 
HETATM   14  C16 UNL     1      25.200   5.801  49.334  1.00  0.00     0.009 A 
ENDBRANCH   5   9
ENDBRANCH   3   5
ENDBRANCH   1   3
BRANCH   2  15
HETATM   15  C4  UNL     1      23.545   0.769  52.451  1.00  0.00     0.229 C 
HETATM   16  N3  UNL     1      24.691   1.346  52.526  1.00  0.00    -0.262 NA
BRANCH  16  17
HETATM   17  C5  UNL     1      25.903   0.559  52.238  1.00  0.00     0.205 A 
HETATM   18  S1  UNL     1      26.020  -0.914  53.212  1.00  0.00    -0.100 SA
HETATM   19  C6  UNL     1      27.355   0.117  53.632  1.00  0.00     0.014 A 
HETATM   20  C7  UNL     1      27.085   1.078  52.847  1.00  0.00    -0.029 A 
HETATM   21  C10 UNL     1      28.533   0.129  54.540  1.00  0.00     0.315 C 
HETATM   22  C8  UNL     1      27.927   2.327  52.759  1.00  0.00     0.068 C 
HETATM   23  C9  UNL     1      28.958   2.321  53.874  1.00  0.00     0.274 C 
HETATM   24  N4  UNL     1      29.535   1.000  53.919  1.00  0.00     0.088 N 
HETATM   25  H13 UNL     1      29.693   0.645  52.935  1.00  0.00     0.316 HD
ENDBRANCH  16  17
ENDBRANCH   2  15
TORSDOF 7
ENDMDL
MODEL 3
REMARK VINA RESULT:      -7.2      2.894      5.863
REMARK  7 active torsions:
REMARK  status: ('A' for Active; 'I' for Inactive)
REMARK    1  A    between atoms: O1_1  and  C1_2 
REMARK    2  A    between atoms: C1_2  and  C2_3 
REMARK    3  A    between atoms: C2_3  and  N1_4 
REMARK    4  A    between atoms: C2_3  and  C11_17 
REMARK    5  A    between atoms: N1_4  and  C3_5 
REMARK    6  A    between atoms: N2_6  and  C4_7 
REMARK    7  A    between atoms: N3_8  and  C5_9 
ROOT
HETATM    1  C3  UNL     1      25.349   3.235  50.820  1.00  0.00     0.204 C 
HETATM    2  N2  UNL     1      26.495   2.875  51.073  1.00  0.00    -0.238 NA
ENDROOT
BRANCH   1   3
HETATM    3  N1  UNL     1      24.097   2.614  50.947  1.00  0.00    -0.374 N 
HETATM    4  H5  UNL     1      23.929   1.903  50.161  1.00  0.00     0.161 HD
BRANCH   3   5
HETATM    5  C2  UNL     1      23.241   2.957  51.996  1.00  0.00     0.139 C 
BRANCH   5   6
HETATM    6  C1  UNL     1      22.250   4.031  51.975  1.00  0.00     0.194 C 
BRANCH   6   7
HETATM    7  O1  UNL     1      22.549   5.153  52.768  1.00  0.00    -0.399 OA
HETATM    8  H1  UNL     1      22.002   5.929  52.546  1.00  0.00     0.209 HD
ENDBRANCH   6   7
ENDBRANCH   5   6
BRANCH   5   9
HETATM    9  C11 UNL     1      22.667   1.740  52.700  1.00  0.00    -0.034 A 
HETATM   10  C12 UNL     1      21.311   1.589  52.940  1.00  0.00     0.009 A 
HETATM   11  C13 UNL     1      20.781   0.490  53.578  1.00  0.00     0.001 A 
HETATM   12  C14 UNL     1      21.604  -0.503  53.999  1.00  0.00     0.000 A 
HETATM   13  C15 UNL     1      22.955  -0.410  53.791  1.00  0.00     0.001 A 
HETATM   14  C16 UNL     1      23.475   0.695  53.152  1.00  0.00     0.009 A 
ENDBRANCH   5   9
ENDBRANCH   3   5
ENDBRANCH   1   3
BRANCH   2  15
HETATM   15  C4  UNL     1      26.929   1.665  51.590  1.00  0.00     0.229 C 
HETATM   16  N3  UNL     1      26.888   2.013  52.826  1.00  0.00    -0.262 NA
BRANCH  16  17
HETATM   17  C5  UNL     1      27.277   1.032  53.855  1.00  0.00     0.205 A 
HETATM   18  S1  UNL     1      29.012   1.048  54.206  1.00  0.00    -0.100 SA
HETATM   19  C6  UNL     1      28.610  -0.508  53.542  1.00  0.00     0.014 A 
HETATM   20  C7  UNL     1      27.368  -0.307  53.370  1.00  0.00    -0.029 A 
HETATM   21  C10 UNL     1      29.271  -1.794  53.192  1.00  0.00     0.315 C 
HETATM   22  C8  UNL     1      26.441  -1.347  52.791  1.00  0.00     0.068 C 
HETATM   23  C9  UNL     1      27.257  -2.519  52.274  1.00  0.00     0.274 C 
HETATM   24  N4  UNL     1      28.242  -2.834  53.277  1.00  0.00     0.088 N 
HETATM   25  H13 UNL     1      27.807  -2.766  54.240  1.00  0.00     0.316 HD
ENDBRANCH  16  17
ENDBRANCH   2  15
TORSDOF 7
ENDMDL
MODEL 4
REMARK VINA RESULT:      -7.0      2.943      5.315
REMARK  7 active torsions:
REMARK  status: ('A' for Active; 'I' for Inactive)
REMARK    1  A    between atoms: O1_1  and  C1_2 
REMARK    2  A    between atoms: C1_2  and  C2_3 
REMARK    3  A    between atoms: C2_3  and  N1_4 
REMARK    4  A    between atoms: C2_3  and  C11_17 
REMARK    5  A    between atoms: N1_4  and  C3_5 
REMARK    6  A    between atoms: N2_6  and  C4_7 
REMARK    7  A    between atoms: N3_8  and  C5_9 
ROOT
HETATM    1  C3  UNL     1      21.717   4.459  51.670  1.00  0.00     0.204 C 
HETATM    2  N2  UNL     1      21.255   3.518  52.308  1.00  0.00    -0.238 NA
ENDROOT
BRANCH   1   3
HETATM    3  N1  UNL     1      22.471   4.541  50.489  1.00  0.00    -0.374 N 
HETATM    4  H5  UNL     1      22.272   3.713  49.837  1.00  0.00     0.161 HD
BRANCH   3   5
HETATM    5  C2  UNL     1      23.355   5.604  50.288  1.00  0.00     0.139 C 
BRANCH   5   6
HETATM    6  C1  UNL     1      23.486   6.782  51.142  1.00  0.00     0.194 C 
BRANCH   6   7
HETATM    7  O1  UNL     1      24.365   6.652  52.232  1.00  0.00    -0.399 OA
HETATM    8  H1  UNL     1      24.435   7.468  52.761  1.00  0.00     0.209 HD
ENDBRANCH   6   7
ENDBRANCH   5   6
BRANCH   5   9
HETATM    9  C11 UNL     1      24.729   5.139  49.838  1.00  0.00    -0.034 A 
HETATM   10  C12 UNL     1      25.221   3.877  50.127  1.00  0.00     0.009 A 
HETATM   11  C13 UNL     1      26.465   3.447  49.722  1.00  0.00     0.001 A 
HETATM   12  C14 UNL     1      27.263   4.280  49.008  1.00  0.00     0.000 A 
HETATM   13  C15 UNL     1      26.833   5.541  48.693  1.00  0.00     0.001 A 
HETATM   14  C16 UNL     1      25.585   5.962  49.102  1.00  0.00     0.009 A 
ENDBRANCH   5   9
ENDBRANCH   3   5
ENDBRANCH   1   3
BRANCH   2  15
HETATM   15  C4  UNL     1      21.347   2.162  52.041  1.00  0.00     0.229 C 
HETATM   16  N3  UNL     1      22.600   2.047  52.302  1.00  0.00    -0.262 NA
BRANCH  16  17
HETATM   17  C5  UNL     1      23.237   0.725  52.165  1.00  0.00     0.205 A 
HETATM   18  S1  UNL     1      22.534  -0.496  53.235  1.00  0.00    -0.100 SA
HETATM   19  C6  UNL     1      24.193  -0.264  53.698  1.00  0.00     0.014 A 
HETATM   20  C7  UNL     1      24.492   0.619  52.836  1.00  0.00    -0.029 A 
HETATM   21  C10 UNL     1      25.172  -0.772  54.698  1.00  0.00     0.315 C 
HETATM   22  C8  UNL     1      25.863   1.241  52.739  1.00  0.00     0.068 C 
HETATM   23  C9  UNL     1      26.698   0.812  53.934  1.00  0.00     0.274 C 
HETATM   24  N4  UNL     1      26.502  -0.605  54.109  1.00  0.00     0.088 N 
HETATM   25  H13 UNL     1      26.490  -1.084  53.165  1.00  0.00     0.316 HD
ENDBRANCH  16  17
ENDBRANCH   2  15
TORSDOF 7
ENDMDL
MODEL 5
REMARK VINA RESULT:      -7.0      1.527      2.090
REMARK  7 active torsions:
REMARK  status: ('A' for Active; 'I' for Inactive)
REMARK    1  A    between atoms: O1_1  and  C1_2 
REMARK    2  A    between atoms: C1_2  and  C2_3 
REMARK    3  A    between atoms: C2_3  and  N1_4 
REMARK    4  A    between atoms: C2_3  and  C11_17 
REMARK    5  A    between atoms: N1_4  and  C3_5 
REMARK    6  A    between atoms: N2_6  and  C4_7 
REMARK    7  A    between atoms: N3_8  and  C5_9 
ROOT
HETATM    1  C3  UNL     1      23.700   4.199  51.537  1.00  0.00     0.204 C 
HETATM    2  N2  UNL     1      22.500   3.947  51.463  1.00  0.00    -0.238 NA
ENDROOT
BRANCH   1   3
HETATM    3  N1  UNL     1      24.784   3.540  52.135  1.00  0.00    -0.374 N 
HETATM    4  H5  UNL     1      24.958   3.893  53.133  1.00  0.00     0.161 HD
BRANCH   3   5
HETATM    5  C2  UNL     1      25.496   2.568  51.428  1.00  0.00     0.139 C 
BRANCH   5   6
HETATM    6  C1  UNL     1      26.407   2.816  50.313  1.00  0.00     0.194 C 
BRANCH   6   7
HETATM    7  O1  UNL     1      27.178   3.988  50.403  1.00  0.00    -0.399 OA
HETATM    8  H1  UNL     1      27.765   4.115  49.635  1.00  0.00     0.209 HD
ENDBRANCH   6   7
ENDBRANCH   5   6
BRANCH   5   9
HETATM    9  C11 UNL     1      26.073   1.495  52.336  1.00  0.00    -0.034 A 
HETATM   10  C12 UNL     1      26.597   0.310  51.847  1.00  0.00     0.009 A 
HETATM   11  C13 UNL     1      27.123  -0.669  52.661  1.00  0.00     0.001 A 
HETATM   12  C14 UNL     1      27.138  -0.486  54.006  1.00  0.00     0.000 A 
HETATM   13  C15 UNL     1      26.632   0.665  54.548  1.00  0.00     0.001 A 
HETATM   14  C16 UNL     1      26.109   1.639  53.724  1.00  0.00     0.009 A 
ENDBRANCH   5   9
ENDBRANCH   3   5
ENDBRANCH   1   3
BRANCH   2  15
HETATM   15  C4  UNL     1      21.809   2.865  51.983  1.00  0.00     0.229 C 
HETATM   16  N3  UNL     1      22.139   2.027  51.066  1.00  0.00    -0.262 NA
BRANCH  16  17
HETATM   17  C5  UNL     1      21.635   0.645  51.151  1.00  0.00     0.205 A 
HETATM   18  S1  UNL     1      19.902   0.559  51.499  1.00  0.00    -0.100 SA
HETATM   19  C6  UNL     1      20.756  -0.167  52.827  1.00  0.00     0.014 A 
HETATM   20  C7  UNL     1      21.935  -0.003  52.386  1.00  0.00    -0.029 A 
HETATM   21  C10 UNL     1      20.471  -0.822  54.133  1.00  0.00     0.315 C 
HETATM   22  C8  UNL     1      23.163  -0.451  53.140  1.00  0.00     0.068 C 
HETATM   23  C9  UNL     1      22.764  -0.897  54.536  1.00  0.00     0.274 C 
HETATM   24  N4  UNL     1      21.592  -1.726  54.405  1.00  0.00     0.088 N 
HETATM   25  H13 UNL     1      21.695  -2.360  53.564  1.00  0.00     0.316 HD
ENDBRANCH  16  17
ENDBRANCH   2  15
TORSDOF 7
ENDMDL
MODEL 6
REMARK VINA RESULT:      -7.0      2.347      3.922
REMARK  7 active torsions:
REMARK  status: ('A' for Active; 'I' for Inactive)
REMARK    1  A    between atoms: O1_1  and  C1_2 
REMARK    2  A    between atoms: C1_2  and  C2_3 
REMARK    3  A    between atoms: C2_3  and  N1_4 
REMARK    4  A    between atoms: C2_3  and  C11_17 
REMARK    5  A    between atoms: N1_4  and  C3_5 
REMARK    6  A    between atoms: N2_6  and  C4_7 
REMARK    7  A    between atoms: N3_8  and  C5_9 
ROOT
HETATM    1  C3  UNL     1      26.901   1.773  51.826  1.00  0.00     0.204 C 
HETATM    2  N2  UNL     1      26.911   2.765  51.102  1.00  0.00    -0.238 NA
ENDROOT
BRANCH   1   3
HETATM    3  N1  UNL     1      25.934   0.793  52.099  1.00  0.00    -0.374 N 
HETATM    4  H5  UNL     1      25.175   0.767  51.341  1.00  0.00     0.161 HD
BRANCH   3   5
HETATM    5  C2  UNL     1      26.031   0.006  53.249  1.00  0.00     0.139 C 
BRANCH   5   6
HETATM    6  C1  UNL     1      26.997   0.187  54.330  1.00  0.00     0.194 C 
BRANCH   6   7
HETATM    7  O1  UNL     1      28.038  -0.758  54.383  1.00  0.00    -0.399 OA
HETATM    8  H1  UNL     1      28.922  -0.351  54.319  1.00  0.00     0.209 HD
ENDBRANCH   6   7
ENDBRANCH   5   6
BRANCH   5   9
HETATM    9  C11 UNL     1      24.672  -0.349  53.827  1.00  0.00    -0.034 A 
HETATM   10  C12 UNL     1      23.484   0.009  53.212  1.00  0.00     0.009 A 
HETATM   11  C13 UNL     1      22.248  -0.309  53.727  1.00  0.00     0.001 A 
HETATM   12  C14 UNL     1      22.164  -1.004  54.889  1.00  0.00     0.000 A 
HETATM   13  C15 UNL     1      23.305  -1.385  55.545  1.00  0.00     0.001 A 
HETATM   14  C16 UNL     1      24.538  -1.062  55.020  1.00  0.00     0.009 A 
ENDBRANCH   5   9
ENDBRANCH   3   5
ENDBRANCH   1   3
BRANCH   2  15
HETATM   15  C4  UNL     1      25.904   3.250  50.284  1.00  0.00     0.229 C 
HETATM   16  N3  UNL     1      25.026   3.401  51.210  1.00  0.00    -0.262 NA
BRANCH  16  17
HETATM   17  C5  UNL     1      23.695   3.922  50.851  1.00  0.00     0.205 A 
HETATM   18  S1  UNL     1      22.837   4.637  52.223  1.00  0.00    -0.100 SA
HETATM   19  C6  UNL     1      21.929   3.259  51.679  1.00  0.00     0.014 A 
HETATM   20  C7  UNL     1      22.694   2.912  50.727  1.00  0.00    -0.029 A 
HETATM   21  C10 UNL     1      20.679   2.523  52.013  1.00  0.00     0.315 C 
HETATM   22  C8  UNL     1      22.418   1.720  49.844  1.00  0.00     0.068 C 
HETATM   23  C9  UNL     1      21.252   0.929  50.413  1.00  0.00     0.274 C 
HETATM   24  N4  UNL     1      20.228   1.876  50.778  1.00  0.00     0.088 N 
HETATM   25  H13 UNL     1      20.156   2.629  50.038  1.00  0.00     0.316 HD
ENDBRANCH  16  17
ENDBRANCH   2  15
TORSDOF 7
ENDMDL
MODEL 7
REMARK VINA RESULT:      -6.7      3.350      5.293
REMARK  7 active torsions:
REMARK  status: ('A' for Active; 'I' for Inactive)
REMARK    1  A    between atoms: O1_1  and  C1_2 
REMARK    2  A    between atoms: C1_2  and  C2_3 
REMARK    3  A    between atoms: C2_3  and  N1_4 
REMARK    4  A    between atoms: C2_3  and  C11_17 
REMARK    5  A    between atoms: N1_4  and  C3_5 
REMARK    6  A    between atoms: N2_6  and  C4_7 
REMARK    7  A    between atoms: N3_8  and  C5_9 
ROOT
HETATM    1  C3  UNL     1      23.639   3.266  48.988  1.00  0.00     0.204 C 
HETATM    2  N2  UNL     1      22.835   2.520  49.541  1.00  0.00    -0.238 NA
ENDROOT
BRANCH   1   3
HETATM    3  N1  UNL     1      24.388   4.367  49.431  1.00  0.00    -0.374 N 
HETATM    4  H5  UNL     1      23.786   5.252  49.496  1.00  0.00     0.161 HD
BRANCH   3   5
HETATM    5  C2  UNL     1      25.749   4.228  49.714  1.00  0.00     0.139 C 
BRANCH   5   6
HETATM    6  C1  UNL     1      26.472   2.964  49.837  1.00  0.00     0.194 C 
BRANCH   6   7
HETATM    7  O1  UNL     1      26.371   2.321  51.084  1.00  0.00    -0.399 OA
HETATM    8  H1  UNL     1      25.537   1.827  51.187  1.00  0.00     0.209 HD
ENDBRANCH   6   7
ENDBRANCH   5   6
BRANCH   5   9
HETATM    9  C11 UNL     1      26.604   5.240  48.972  1.00  0.00    -0.034 A 
HETATM   10  C12 UNL     1      26.110   6.463  48.547  1.00  0.00     0.009 A 
HETATM   11  C13 UNL     1      26.877   7.388  47.875  1.00  0.00     0.001 A 
HETATM   12  C14 UNL     1      28.178   7.111  47.604  1.00  0.00     0.000 A 
HETATM   13  C15 UNL     1      28.722   5.918  47.997  1.00  0.00     0.001 A 
HETATM   14  C16 UNL     1      27.946   4.999  48.671  1.00  0.00     0.009 A 
ENDBRANCH   5   9
ENDBRANCH   3   5
ENDBRANCH   1   3
BRANCH   2  15
HETATM   15  C4  UNL     1      22.391   2.544  50.852  1.00  0.00     0.229 C 
HETATM   16  N3  UNL     1      23.323   1.801  51.334  1.00  0.00    -0.262 NA
BRANCH  16  17
HETATM   17  C5  UNL     1      23.316   1.497  52.776  1.00  0.00     0.205 A 
HETATM   18  S1  UNL     1      24.388   0.156  53.205  1.00  0.00    -0.100 SA
HETATM   19  C6  UNL     1      22.757  -0.318  53.574  1.00  0.00     0.014 A 
HETATM   20  C7  UNL     1      22.178   0.749  53.202  1.00  0.00    -0.029 A 
HETATM   21  C10 UNL     1      22.014  -1.482  54.128  1.00  0.00     0.315 C 
HETATM   22  C8  UNL     1      20.684   0.943  53.281  1.00  0.00     0.068 C 
HETATM   23  C9  UNL     1      20.022  -0.375  53.648  1.00  0.00     0.274 C 
HETATM   24  N4  UNL     1      20.785  -0.953  54.725  1.00  0.00     0.088 N 
HETATM   25  H13 UNL     1      21.069  -0.197  55.409  1.00  0.00     0.316 HD
ENDBRANCH  16  17
ENDBRANCH   2  15
TORSDOF 7
ENDMDL
MODEL 8
REMARK VINA RESULT:      -6.6      2.369      3.451
REMARK  7 active torsions:
REMARK  status: ('A' for Active; 'I' for Inactive)
REMARK    1  A    between atoms: O1_1  and  C1_2 
REMARK    2  A    between atoms: C1_2  and  C2_3 
REMARK    3  A    between atoms: C2_3  and  N1_4 
REMARK    4  A    between atoms: C2_3  and  C11_17 
REMARK    5  A    between atoms: N1_4  and  C3_5 
REMARK    6  A    between atoms: N2_6  and  C4_7 
REMARK    7  A    between atoms: N3_8  and  C5_9 
ROOT
HETATM    1  C3  UNL     1      26.599   3.329  50.208  1.00  0.00     0.204 C 
HETATM    2  N2  UNL     1      26.067   3.990  49.321  1.00  0.00    -0.238 NA
ENDROOT
BRANCH   1   3
HETATM    3  N1  UNL     1      26.254   3.054  51.540  1.00  0.00    -0.374 N 
HETATM    4  H5  UNL     1      25.559   3.776  51.924  1.00  0.00     0.161 HD
BRANCH   3   5
HETATM    5  C2  UNL     1      26.811   1.958  52.202  1.00  0.00     0.139 C 
BRANCH   5   6
HETATM    6  C1  UNL     1      28.001   1.984  53.049  1.00  0.00     0.194 C 
BRANCH   6   7
HETATM    7  O1  UNL     1      27.958   2.876  54.136  1.00  0.00    -0.399 OA
HETATM    8  H1  UNL     1      27.122   2.825  54.634  1.00  0.00     0.209 HD
ENDBRANCH   6   7
ENDBRANCH   5   6
BRANCH   5   9
HETATM    9  C11 UNL     1      25.759   1.055  52.821  1.00  0.00    -0.034 A 
HETATM   10  C12 UNL     1      26.076   0.041  53.710  1.00  0.00     0.009 A 
HETATM   11  C13 UNL     1      25.129  -0.781  54.278  1.00  0.00     0.001 A 
HETATM   12  C14 UNL     1      23.819  -0.611  53.967  1.00  0.00     0.000 A 
HETATM   13  C15 UNL     1      23.444   0.374  53.093  1.00  0.00     0.001 A 
HETATM   14  C16 UNL     1      24.400   1.193  52.531  1.00  0.00     0.009 A 
ENDBRANCH   5   9
ENDBRANCH   3   5
ENDBRANCH   1   3
BRANCH   2  15
HETATM   15  C4  UNL     1      24.888   4.716  49.371  1.00  0.00     0.229 C 
HETATM   16  N3  UNL     1      24.107   3.712  49.552  1.00  0.00    -0.262 NA
BRANCH  16  17
HETATM   17  C5  UNL     1      22.658   3.951  49.678  1.00  0.00     0.205 A 
HETATM   18  S1  UNL     1      22.221   4.775  51.182  1.00  0.00    -0.100 SA
HETATM   19  C6  UNL     1      21.488   3.200  51.198  1.00  0.00     0.014 A 
HETATM   20  C7  UNL     1      21.916   2.798  50.072  1.00  0.00    -0.029 A 
HETATM   21  C10 UNL     1      20.626   2.361  52.074  1.00  0.00     0.315 C 
HETATM   22  C8  UNL     1      21.597   1.434  49.511  1.00  0.00     0.068 C 
HETATM   23  C9  UNL     1      20.907   0.599  50.576  1.00  0.00     0.274 C 
HETATM   24  N4  UNL     1      19.908   1.433  51.196  1.00  0.00     0.088 N 
HETATM   25  H13 UNL     1      19.419   2.014  50.459  1.00  0.00     0.316 HD
ENDBRANCH  16  17
ENDBRANCH   2  15
TORSDOF 7
ENDMDL
MODEL 9
REMARK VINA RESULT:      -6.6      2.068      2.805
REMARK  7 active torsions:
REMARK  status: ('A' for Active; 'I' for Inactive)
REMARK    1  A    between atoms: O1_1  and  C1_2 
REMARK    2  A    between atoms: C1_2  and  C2_3 
REMARK    3  A    between atoms: C2_3  and  N1_4 
REMARK    4  A    between atoms: C2_3  and  C11_17 
REMARK    5  A    between atoms: N1_4  and  C3_5 
REMARK    6  A    between atoms: N2_6  and  C4_7 
REMARK    7  A    between atoms: N3_8  and  C5_9 
ROOT
HETATM    1  C3  UNL     1      26.649   3.278  50.262  1.00  0.00     0.204 C 
HETATM    2  N2  UNL     1      25.994   4.218  49.819  1.00  0.00    -0.238 NA
ENDROOT
BRANCH   1   3
HETATM    3  N1  UNL     1      26.310   2.138  51.007  1.00  0.00    -0.374 N 
HETATM    4  H5  UNL     1      25.882   1.375  50.386  1.00  0.00     0.161 HD
BRANCH   3   5
HETATM    5  C2  UNL     1      26.531   2.104  52.385  1.00  0.00     0.139 C 
BRANCH   5   6
HETATM    6  C1  UNL     1      25.517   2.298  53.419  1.00  0.00     0.194 C 
BRANCH   6   7
HETATM    7  O1  UNL     1      24.679   3.414  53.252  1.00  0.00    -0.399 OA
HETATM    8  H1  UNL     1      24.853   3.898  52.424  1.00  0.00     0.209 HD
ENDBRANCH   6   7
ENDBRANCH   5   6
BRANCH   5   9
HETATM    9  C11 UNL     1      27.479   0.991  52.796  1.00  0.00    -0.034 A 
HETATM   10  C12 UNL     1      28.719   1.239  53.361  1.00  0.00     0.009 A 
HETATM   11  C13 UNL     1      29.585   0.237  53.737  1.00  0.00     0.001 A 
HETATM   12  C14 UNL     1      29.230  -1.060  53.554  1.00  0.00     0.000 A 
HETATM   13  C15 UNL     1      28.017  -1.368  52.998  1.00  0.00     0.001 A 
HETATM   14  C16 UNL     1      27.157  -0.357  52.626  1.00  0.00     0.009 A 
ENDBRANCH   5   9
ENDBRANCH   3   5
ENDBRANCH   1   3
BRANCH   2  15
HETATM   15  C4  UNL     1      24.634   4.455  49.931  1.00  0.00     0.229 C 
HETATM   16  N3  UNL     1      24.253   3.271  49.609  1.00  0.00    -0.262 NA
BRANCH  16  17
HETATM   17  C5  UNL     1      22.811   2.972  49.572  1.00  0.00     0.205 A 
HETATM   18  S1  UNL     1      21.801   4.400  49.840  1.00  0.00    -0.100 SA
HETATM   19  C6  UNL     1      21.521   3.288  51.146  1.00  0.00     0.014 A 
HETATM   20  C7  UNL     1      22.315   2.372  50.768  1.00  0.00    -0.029 A 
HETATM   21  C10 UNL     1      20.708   3.182  52.388  1.00  0.00     0.315 C 
HETATM   22  C8  UNL     1      22.516   1.090  51.537  1.00  0.00     0.068 C 
HETATM   23  C9  UNL     1      21.812   1.191  52.880  1.00  0.00     0.274 C 
HETATM   24  N4  UNL     1      20.507   1.753  52.640  1.00  0.00     0.088 N 
HETATM   25  H13 UNL     1      20.093   1.335  51.759  1.00  0.00     0.316 HD
ENDBRANCH  16  17
ENDBRANCH   2  15
TORSDOF 7
ENDMDL
