MODEL 1
REMARK VINA RESULT:      -7.9      0.000      0.000
REMARK  6 active torsions:
REMARK  status: ('A' for Active; 'I' for Inactive)
REMARK    1  A    between atoms: C1_2  and  C3_5 
REMARK    2  A    between atoms: C3_5  and  N1_6 
REMARK    3  A    between atoms: N1_6  and  C4_7 
REMARK    4  A    between atoms: N1_6  and  C11_15 
REMARK    5  A    between atoms: C4_7  and  C5_8 
REMARK    6  A    between atoms: C11_15  and  C12_17 
ROOT
HETATM    1  N1  UNL     1      25.952   2.518  51.837  1.00  0.00    -0.363 N 
ENDROOT
BRANCH   1   2
HETATM    2  C3  UNL     1      26.451   2.474  50.488  1.00  0.00     0.164 C 
BRANCH   2   3
HETATM    3  C1  UNL     1      26.358   3.804  49.812  1.00  0.00    -0.021 A 
HETATM    4  O1  UNL     1      27.583   4.308  49.321  1.00  0.00     0.000 OA
HETATM    5  H1  UNL     1      28.173   3.636  48.856  1.00  0.00     0.000 HD
HETATM    6 CL1  UNL     1      27.514   5.696  48.610  1.00  0.00    -0.096 Cl
HETATM    7  C2  UNL     1      26.056   4.969  49.262  1.00  0.00     0.093 A 
ENDBRANCH   2   3
ENDBRANCH   1   2
BRANCH   1   8
HETATM    8  C4  UNL     1      26.696   2.198  52.996  1.00  0.00     0.162 C 
BRANCH   8   9
HETATM    9  C5  UNL     1      27.297   0.852  53.040  1.00  0.00    -0.040 A 
HETATM   10  C6  UNL     1      26.669  -0.327  52.656  1.00  0.00     0.012 A 
HETATM   11  C7  UNL     1      27.339  -1.545  52.742  1.00  0.00     0.043 A 
HETATM   12  C8  UNL     1      28.626  -1.623  53.204  1.00  0.00     0.116 A 
HETATM   13  F1  UNL     1      29.312  -2.777  53.303  1.00  0.00    -0.206 F 
HETATM   14  C9  UNL     1      29.269  -0.460  53.592  1.00  0.00     0.043 A 
HETATM   15  C10 UNL     1      28.595   0.745  53.502  1.00  0.00     0.012 A 
ENDBRANCH   8   9
ENDBRANCH   1   8
BRANCH   1  16
HETATM   16  C11 UNL     1      24.605   2.915  52.048  1.00  0.00     0.109 C 
HETATM   17  S1  UNL     1      23.711   4.239  52.368  1.00  0.00    -0.060 SA
BRANCH  16  18
HETATM   18  C12 UNL     1      23.574   1.871  51.984  1.00  0.00     0.002 A 
HETATM   19  C13 UNL     1      22.886   1.919  50.769  1.00  0.00     0.014 A 
HETATM   20  C14 UNL     1      21.874   1.006  50.524  1.00  0.00     0.001 A 
HETATM   21  C15 UNL     1      21.573   0.078  51.478  1.00  0.00     0.000 A 
HETATM   22  C16 UNL     1      22.246   0.034  52.662  1.00  0.00     0.001 A 
HETATM   23  C17 UNL     1      23.267   0.929  52.949  1.00  0.00     0.014 A 
ENDBRANCH  16  18
ENDBRANCH   1  16
TORSDOF 6
ENDMDL
MODEL 2
REMARK VINA RESULT:      -7.8      2.191      2.955
REMARK  6 active torsions:
REMARK  status: ('A' for Active; 'I' for Inactive)
REMARK    1  A    between atoms: C1_2  and  C3_5 
REMARK    2  A    between atoms: C3_5  and  N1_6 
REMARK    3  A    between atoms: N1_6  and  C4_7 
REMARK    4  A    between atoms: N1_6  and  C11_15 
REMARK    5  A    between atoms: C4_7  and  C5_8 
REMARK    6  A    between atoms: C11_15  and  C12_17 
ROOT
HETATM    1  N1  UNL     1      24.305   2.341  51.919  1.00  0.00    -0.363 N 
ENDROOT
BRANCH   1   2
HETATM    2  C3  UNL     1      24.189   3.466  52.808  1.00  0.00     0.164 C 
BRANCH   2   3
HETATM    3  C1  UNL     1      23.510   4.629  52.157  1.00  0.00    -0.021 A 
HETATM    4  O1  UNL     1      24.367   5.693  51.800  1.00  0.00     0.000 OA
HETATM    5  H1  UNL     1      25.242   5.422  51.379  1.00  0.00     0.000 HD
HETATM    6 CL1  UNL     1      23.684   6.920  51.119  1.00  0.00    -0.096 Cl
HETATM    7  C2  UNL     1      22.721   5.537  51.608  1.00  0.00     0.093 A 
ENDBRANCH   2   3
ENDBRANCH   1   2
BRANCH   1   8
HETATM    8  C4  UNL     1      25.481   1.954  51.238  1.00  0.00     0.162 C 
BRANCH   8   9
HETATM    9  C5  UNL     1      26.547   1.349  52.060  1.00  0.00    -0.040 A 
HETATM   10  C6  UNL     1      27.505   2.049  52.784  1.00  0.00     0.012 A 
HETATM   11  C7  UNL     1      28.466   1.368  53.527  1.00  0.00     0.043 A 
HETATM   12  C8  UNL     1      28.502  -0.001  53.568  1.00  0.00     0.116 A 
HETATM   13  F1  UNL     1      29.411  -0.700  54.273  1.00  0.00    -0.206 F 
HETATM   14  C9  UNL     1      27.557  -0.716  52.853  1.00  0.00     0.043 A 
HETATM   15  C10 UNL     1      26.605  -0.030  52.119  1.00  0.00     0.012 A 
ENDBRANCH   8   9
ENDBRANCH   1   8
BRANCH   1  16
HETATM   16  C11 UNL     1      23.158   1.535  51.694  1.00  0.00     0.109 C 
HETATM   17  S1  UNL     1      22.061   1.188  50.540  1.00  0.00    -0.060 SA
BRANCH  16  18
HETATM   18  C12 UNL     1      22.706   0.679  52.798  1.00  0.00     0.002 A 
HETATM   19  C13 UNL     1      21.390   0.979  53.160  1.00  0.00     0.014 A 
HETATM   20  C14 UNL     1      20.788   0.271  54.186  1.00  0.00     0.001 A 
HETATM   21  C15 UNL     1      21.497  -0.708  54.821  1.00  0.00     0.000 A 
HETATM   22  C16 UNL     1      22.780  -0.999  54.466  1.00  0.00     0.001 A 
HETATM   23  C17 UNL     1      23.422  -0.313  53.443  1.00  0.00     0.014 A 
ENDBRANCH  16  18
ENDBRANCH   1  16
TORSDOF 6
ENDMDL
MODEL 3
REMARK VINA RESULT:      -7.8      2.447      5.162
REMARK  6 active torsions:
REMARK  status: ('A' for Active; 'I' for Inactive)
REMARK    1  A    between atoms: C1_2  and  C3_5 
REMARK    2  A    between atoms: C3_5  and  N1_6 
REMARK    3  A    between atoms: N1_6  and  C4_7 
REMARK    4  A    between atoms: N1_6  and  C11_15 
REMARK    5  A    between atoms: C4_7  and  C5_8 
REMARK    6  A    between atoms: C11_15  and  C12_17 
ROOT
HETATM    1  N1  UNL     1      26.436   2.104  52.258  1.00  0.00    -0.363 N 
ENDROOT
BRANCH   1   2
HETATM    2  C3  UNL     1      26.467   2.101  50.819  1.00  0.00     0.164 C 
BRANCH   2   3
HETATM    3  C1  UNL     1      26.215   3.460  50.249  1.00  0.00    -0.021 A 
HETATM    4  O1  UNL     1      27.301   4.014  49.535  1.00  0.00     0.000 OA
HETATM    5  H1  UNL     1      27.785   3.379  48.920  1.00  0.00     0.000 HD
HETATM    6 CL1  UNL     1      27.065   5.433  48.928  1.00  0.00    -0.096 Cl
HETATM    7  C2  UNL     1      25.788   4.642  49.837  1.00  0.00     0.093 A 
ENDBRANCH   2   3
ENDBRANCH   1   2
BRANCH   1   8
HETATM    8  C4  UNL     1      25.333   2.494  53.052  1.00  0.00     0.162 C 
BRANCH   8   9
HETATM    9  C5  UNL     1      24.041   1.852  52.743  1.00  0.00    -0.040 A 
HETATM   10  C6  UNL     1      22.987   2.444  52.058  1.00  0.00     0.012 A 
HETATM   11  C7  UNL     1      21.811   1.738  51.824  1.00  0.00     0.043 A 
HETATM   12  C8  UNL     1      21.652   0.447  52.257  1.00  0.00     0.116 A 
HETATM   13  F1  UNL     1      20.534  -0.274  52.052  1.00  0.00    -0.206 F 
HETATM   14  C9  UNL     1      22.691  -0.161  52.941  1.00  0.00     0.043 A 
HETATM   15  C10 UNL     1      23.856   0.550  53.168  1.00  0.00     0.012 A 
ENDBRANCH   8   9
ENDBRANCH   1   8
BRANCH   1  16
HETATM   16  C11 UNL     1      27.594   1.682  52.962  1.00  0.00     0.109 C 
HETATM   17  S1  UNL     1      28.834   2.280  53.834  1.00  0.00    -0.060 SA
BRANCH  16  18
HETATM   18  C12 UNL     1      27.884   0.242  52.984  1.00  0.00     0.002 A 
HETATM   19  C13 UNL     1      29.184  -0.001  53.436  1.00  0.00     0.014 A 
HETATM   20  C14 UNL     1      29.639  -1.306  53.527  1.00  0.00     0.001 A 
HETATM   21  C15 UNL     1      28.803  -2.326  53.173  1.00  0.00     0.000 A 
HETATM   22  C16 UNL     1      27.537  -2.085  52.732  1.00  0.00     0.001 A 
HETATM   23  C17 UNL     1      27.040  -0.793  52.626  1.00  0.00     0.014 A 
ENDBRANCH  16  18
ENDBRANCH   1  16
TORSDOF 6
ENDMDL
MODEL 4
REMARK VINA RESULT:      -7.5      2.908      5.105
REMARK  6 active torsions:
REMARK  status: ('A' for Active; 'I' for Inactive)
REMARK    1  A    between atoms: C1_2  and  C3_5 
REMARK    2  A    between atoms: C3_5  and  N1_6 
REMARK    3  A    between atoms: N1_6  and  C4_7 
REMARK    4  A    between atoms: N1_6  and  C11_15 
REMARK    5  A    between atoms: C4_7  and  C5_8 
REMARK    6  A    between atoms: C11_15  and  C12_17 
ROOT
HETATM    1  N1  UNL     1      23.901   2.851  51.876  1.00  0.00    -0.363 N 
ENDROOT
BRANCH   1   2
HETATM    2  C3  UNL     1      23.532   3.998  52.662  1.00  0.00     0.164 C 
BRANCH   2   3
HETATM    3  C1  UNL     1      23.262   5.198  51.812  1.00  0.00    -0.021 A 
HETATM    4  O1  UNL     1      24.191   6.252  51.961  1.00  0.00     0.000 OA
HETATM    5  H1  UNL     1      25.159   5.973  52.007  1.00  0.00     0.000 HD
HETATM    6 CL1  UNL     1      23.934   7.518  51.085  1.00  0.00    -0.096 Cl
HETATM    7  C2  UNL     1      22.846   6.144  50.986  1.00  0.00     0.093 A 
ENDBRANCH   2   3
ENDBRANCH   1   2
BRANCH   1   8
HETATM    8  C4  UNL     1      22.998   1.923  51.308  1.00  0.00     0.162 C 
BRANCH   8   9
HETATM    9  C5  UNL     1      22.320   1.008  52.245  1.00  0.00    -0.040 A 
HETATM   10  C6  UNL     1      21.002   1.119  52.673  1.00  0.00     0.012 A 
HETATM   11  C7  UNL     1      20.468   0.191  53.563  1.00  0.00     0.043 A 
HETATM   12  C8  UNL     1      21.214  -0.852  54.044  1.00  0.00     0.116 A 
HETATM   13  F1  UNL     1      20.739  -1.772  54.905  1.00  0.00    -0.206 F 
HETATM   14  C9  UNL     1      22.529  -0.980  53.631  1.00  0.00     0.043 A 
HETATM   15  C10 UNL     1      23.051  -0.053  52.745  1.00  0.00     0.012 A 
ENDBRANCH   8   9
ENDBRANCH   1   8
BRANCH   1  16
HETATM   16  C11 UNL     1      25.279   2.611  51.634  1.00  0.00     0.109 C 
HETATM   17  S1  UNL     1      26.487   3.065  50.639  1.00  0.00    -0.060 SA
BRANCH  16  18
HETATM   18  C12 UNL     1      25.961   1.647  52.507  1.00  0.00     0.002 A 
HETATM   19  C13 UNL     1      26.466   0.572  51.771  1.00  0.00     0.014 A 
HETATM   20  C14 UNL     1      27.146  -0.441  52.426  1.00  0.00     0.001 A 
HETATM   21  C15 UNL     1      27.309  -0.364  53.778  1.00  0.00     0.000 A 
HETATM   22  C16 UNL     1      26.815   0.685  54.494  1.00  0.00     0.001 A 
HETATM   23  C17 UNL     1      26.127   1.723  53.878  1.00  0.00     0.014 A 
ENDBRANCH  16  18
ENDBRANCH   1  16
TORSDOF 6
ENDMDL
MODEL 5
REMARK VINA RESULT:      -7.4      1.635      2.238
REMARK  6 active torsions:
REMARK  status: ('A' for Active; 'I' for Inactive)
REMARK    1  A    between atoms: C1_2  and  C3_5 
REMARK    2  A    between atoms: C3_5  and  N1_6 
REMARK    3  A    between atoms: N1_6  and  C4_7 
REMARK    4  A    between atoms: N1_6  and  C11_15 
REMARK    5  A    between atoms: C4_7  and  C5_8 
REMARK    6  A    between atoms: C11_15  and  C12_17 
ROOT
HETATM    1  N1  UNL     1      24.248   2.550  52.365  1.00  0.00    -0.363 N 
ENDROOT
BRANCH   1   2
HETATM    2  C3  UNL     1      24.586   3.761  51.666  1.00  0.00     0.164 C 
BRANCH   2   3
HETATM    3  C1  UNL     1      25.597   3.526  50.590  1.00  0.00    -0.021 A 
HETATM    4  O1  UNL     1      26.268   4.685  50.142  1.00  0.00     0.000 OA
HETATM    5  H1  UNL     1      26.559   5.325  50.865  1.00  0.00     0.000 HD
HETATM    6 CL1  UNL     1      27.329   4.468  49.018  1.00  0.00    -0.096 Cl
HETATM    7  C2  UNL     1      26.431   3.101  49.655  1.00  0.00     0.093 A 
ENDBRANCH   2   3
ENDBRANCH   1   2
BRANCH   1   8
HETATM    8  C4  UNL     1      24.846   2.103  53.565  1.00  0.00     0.162 C 
BRANCH   8   9
HETATM    9  C5  UNL     1      26.195   1.517  53.447  1.00  0.00    -0.040 A 
HETATM   10  C6  UNL     1      26.479   0.206  53.083  1.00  0.00     0.012 A 
HETATM   11  C7  UNL     1      27.796  -0.237  53.005  1.00  0.00     0.043 A 
HETATM   12  C8  UNL     1      28.849   0.595  53.283  1.00  0.00     0.116 A 
HETATM   13  F1  UNL     1      30.137   0.210  53.220  1.00  0.00    -0.206 F 
HETATM   14  C9  UNL     1      28.588   1.904  53.649  1.00  0.00     0.043 A 
HETATM   15  C10 UNL     1      27.275   2.335  53.722  1.00  0.00     0.012 A 
ENDBRANCH   8   9
ENDBRANCH   1   8
BRANCH   1  16
HETATM   16  C11 UNL     1      23.229   1.720  51.827  1.00  0.00     0.109 C 
HETATM   17  S1  UNL     1      22.434   1.434  50.434  1.00  0.00    -0.060 SA
BRANCH  16  18
HETATM   18  C12 UNL     1      22.601   0.748  52.731  1.00  0.00     0.002 A 
HETATM   19  C13 UNL     1      21.407   1.249  53.255  1.00  0.00     0.014 A 
HETATM   20  C14 UNL     1      20.668   0.471  54.130  1.00  0.00     0.001 A 
HETATM   21  C15 UNL     1      21.126  -0.772  54.460  1.00  0.00     0.000 A 
HETATM   22  C16 UNL     1      22.291  -1.258  53.948  1.00  0.00     0.001 A 
HETATM   23  C17 UNL     1      23.063  -0.511  53.067  1.00  0.00     0.014 A 
ENDBRANCH  16  18
ENDBRANCH   1  16
TORSDOF 6
ENDMDL
MODEL 6
REMARK VINA RESULT:      -7.3      3.356      4.332
REMARK  6 active torsions:
REMARK  status: ('A' for Active; 'I' for Inactive)
REMARK    1  A    between atoms: C1_2  and  C3_5 
REMARK    2  A    between atoms: C3_5  and  N1_6 
REMARK    3  A    between atoms: N1_6  and  C4_7 
REMARK    4  A    between atoms: N1_6  and  C11_15 
REMARK    5  A    between atoms: C4_7  and  C5_8 
REMARK    6  A    between atoms: C11_15  and  C12_17 
ROOT
HETATM    1  N1  UNL     1      24.425   1.557  52.317  1.00  0.00    -0.363 N 
ENDROOT
BRANCH   1   2
HETATM    2  C3  UNL     1      24.107   0.967  53.591  1.00  0.00     0.164 C 
BRANCH   2   3
HETATM    3  C1  UNL     1      23.151  -0.174  53.458  1.00  0.00    -0.021 A 
HETATM    4  O1  UNL     1      22.294  -0.363  54.565  1.00  0.00     0.000 OA
HETATM    5  H1  UNL     1      21.899   0.478  54.955  1.00  0.00     0.000 HD
HETATM    6 CL1  UNL     1      21.285  -1.549  54.452  1.00  0.00    -0.096 Cl
HETATM    7  C2  UNL     1      22.401  -1.217  53.139  1.00  0.00     0.093 A 
ENDBRANCH   2   3
ENDBRANCH   1   2
BRANCH   1   8
HETATM    8  C4  UNL     1      25.556   1.244  51.530  1.00  0.00     0.162 C 
BRANCH   8   9
HETATM    9  C5  UNL     1      26.678   0.585  52.225  1.00  0.00    -0.040 A 
HETATM   10  C6  UNL     1      26.859  -0.788  52.347  1.00  0.00     0.012 A 
HETATM   11  C7  UNL     1      27.961  -1.297  53.028  1.00  0.00     0.043 A 
HETATM   12  C8  UNL     1      28.896  -0.473  53.596  1.00  0.00     0.116 A 
HETATM   13  F1  UNL     1      29.976  -0.921  54.262  1.00  0.00    -0.206 F 
HETATM   14  C9  UNL     1      28.733   0.897  53.486  1.00  0.00     0.043 A 
HETATM   15  C10 UNL     1      27.635   1.394  52.807  1.00  0.00     0.012 A 
ENDBRANCH   8   9
ENDBRANCH   1   8
BRANCH   1  16
HETATM   16  C11 UNL     1      23.543   2.535  51.785  1.00  0.00     0.109 C 
HETATM   17  S1  UNL     1      22.848   3.957  52.171  1.00  0.00    -0.060 SA
BRANCH  16  18
HETATM   18  C12 UNL     1      23.006   2.299  50.439  1.00  0.00     0.002 A 
HETATM   19  C13 UNL     1      22.021   1.308  50.457  1.00  0.00     0.014 A 
HETATM   20  C14 UNL     1      21.395   0.950  49.275  1.00  0.00     0.001 A 
HETATM   21  C15 UNL     1      21.756   1.576  48.117  1.00  0.00     0.000 A 
HETATM   22  C16 UNL     1      22.718   2.541  48.102  1.00  0.00     0.001 A 
HETATM   23  C17 UNL     1      23.370   2.932  49.264  1.00  0.00     0.014 A 
ENDBRANCH  16  18
ENDBRANCH   1  16
TORSDOF 6
ENDMDL
MODEL 7
REMARK VINA RESULT:      -7.3      3.909      5.506
REMARK  6 active torsions:
REMARK  status: ('A' for Active; 'I' for Inactive)
REMARK    1  A    between atoms: C1_2  and  C3_5 
REMARK    2  A    between atoms: C3_5  and  N1_6 
REMARK    3  A    between atoms: N1_6  and  C4_7 
REMARK    4  A    between atoms: N1_6  and  C11_15 
REMARK    5  A    between atoms: C4_7  and  C5_8 
REMARK    6  A    between atoms: C11_15  and  C12_17 
ROOT
HETATM    1  N1  UNL     1      24.220   3.309  51.270  1.00  0.00    -0.363 N 
ENDROOT
BRANCH   1   2
HETATM    2  C3  UNL     1      23.723   4.269  52.220  1.00  0.00     0.164 C 
BRANCH   2   3
HETATM    3  C1  UNL     1      22.576   5.058  51.675  1.00  0.00    -0.021 A 
HETATM    4  O1  UNL     1      22.826   6.439  51.519  1.00  0.00     0.000 OA
HETATM    5  H1  UNL     1      23.726   6.676  51.131  1.00  0.00     0.000 HD
HETATM    6 CL1  UNL     1      21.644   7.286  50.951  1.00  0.00    -0.096 Cl
HETATM    7  C2  UNL     1      21.452   5.558  51.190  1.00  0.00     0.093 A 
ENDBRANCH   2   3
ENDBRANCH   1   2
BRANCH   1   8
HETATM    8  C4  UNL     1      24.284   3.500  49.871  1.00  0.00     0.162 C 
BRANCH   8   9
HETATM    9  C5  UNL     1      25.402   4.322  49.371  1.00  0.00    -0.040 A 
HETATM   10  C6  UNL     1      26.721   3.903  49.245  1.00  0.00     0.012 A 
HETATM   11  C7  UNL     1      27.695   4.771  48.759  1.00  0.00     0.043 A 
HETATM   12  C8  UNL     1      27.392   6.055  48.393  1.00  0.00     0.116 A 
HETATM   13  F1  UNL     1      28.300   6.928  47.917  1.00  0.00    -0.206 F 
HETATM   14  C9  UNL     1      26.084   6.493  48.511  1.00  0.00     0.043 A 
HETATM   15  C10 UNL     1      25.123   5.622  48.994  1.00  0.00     0.012 A 
ENDBRANCH   8   9
ENDBRANCH   1   8
BRANCH   1  16
HETATM   16  C11 UNL     1      24.693   2.061  51.754  1.00  0.00     0.109 C 
HETATM   17  S1  UNL     1      26.080   1.242  51.997  1.00  0.00    -0.060 SA
BRANCH  16  18
HETATM   18  C12 UNL     1      23.692   1.093  52.220  1.00  0.00     0.002 A 
HETATM   19  C13 UNL     1      24.179   0.347  53.297  1.00  0.00     0.014 A 
HETATM   20  C14 UNL     1      23.372  -0.619  53.875  1.00  0.00     0.001 A 
HETATM   21  C15 UNL     1      22.117  -0.818  53.379  1.00  0.00     0.000 A 
HETATM   22  C16 UNL     1      21.645  -0.089  52.329  1.00  0.00     0.001 A 
HETATM   23  C17 UNL     1      22.419   0.889  51.719  1.00  0.00     0.014 A 
ENDBRANCH  16  18
ENDBRANCH   1  16
TORSDOF 6
ENDMDL
MODEL 8
REMARK VINA RESULT:      -7.2      3.256      5.541
REMARK  6 active torsions:
REMARK  status: ('A' for Active; 'I' for Inactive)
REMARK    1  A    between atoms: C1_2  and  C3_5 
REMARK    2  A    between atoms: C3_5  and  N1_6 
REMARK    3  A    between atoms: N1_6  and  C4_7 
REMARK    4  A    between atoms: N1_6  and  C11_15 
REMARK    5  A    between atoms: C4_7  and  C5_8 
REMARK    6  A    between atoms: C11_15  and  C12_17 
ROOT
HETATM    1  N1  UNL     1      25.439   2.539  51.527  1.00  0.00    -0.363 N 
ENDROOT
BRANCH   1   2
HETATM    2  C3  UNL     1      26.686   1.831  51.399  1.00  0.00     0.164 C 
BRANCH   2   3
HETATM    3  C1  UNL     1      27.554   2.001  52.604  1.00  0.00    -0.021 A 
HETATM    4  O1  UNL     1      28.030   0.796  53.167  1.00  0.00     0.000 OA
HETATM    5  H1  UNL     1      28.351   0.106  52.506  1.00  0.00     0.000 HD
HETATM    6 CL1  UNL     1      28.939   0.944  54.428  1.00  0.00    -0.096 Cl
HETATM    7  C2  UNL     1      28.287   2.371  53.641  1.00  0.00     0.093 A 
ENDBRANCH   2   3
ENDBRANCH   1   2
BRANCH   1   8
HETATM    8  C4  UNL     1      24.666   2.628  52.706  1.00  0.00     0.162 C 
BRANCH   8   9
HETATM    9  C5  UNL     1      23.778   1.486  52.997  1.00  0.00    -0.040 A 
HETATM   10  C6  UNL     1      24.185   0.248  53.480  1.00  0.00     0.012 A 
HETATM   11  C7  UNL     1      23.253  -0.758  53.718  1.00  0.00     0.043 A 
HETATM   12  C8  UNL     1      21.916  -0.566  53.488  1.00  0.00     0.116 A 
HETATM   13  F1  UNL     1      20.981  -1.509  53.705  1.00  0.00    -0.206 F 
HETATM   14  C9  UNL     1      21.491   0.660  53.006  1.00  0.00     0.043 A 
HETATM   15  C10 UNL     1      22.425   1.654  52.773  1.00  0.00     0.012 A 
ENDBRANCH   8   9
ENDBRANCH   1   8
BRANCH   1  16
HETATM   16  C11 UNL     1      24.925   3.216  50.389  1.00  0.00     0.109 C 
HETATM   17  S1  UNL     1      23.589   3.292  49.459  1.00  0.00    -0.060 SA
BRANCH  16  18
HETATM   18  C12 UNL     1      25.795   4.204  49.739  1.00  0.00     0.002 A 
HETATM   19  C13 UNL     1      25.243   5.486  49.817  1.00  0.00     0.014 A 
HETATM   20  C14 UNL     1      25.925   6.554  49.259  1.00  0.00     0.001 A 
HETATM   21  C15 UNL     1      27.124   6.329  48.646  1.00  0.00     0.000 A 
HETATM   22  C16 UNL     1      27.659   5.078  48.572  1.00  0.00     0.001 A 
HETATM   23  C17 UNL     1      27.010   3.979  49.118  1.00  0.00     0.014 A 
ENDBRANCH  16  18
ENDBRANCH   1  16
TORSDOF 6
ENDMDL
MODEL 9
REMARK VINA RESULT:      -7.2      3.631      5.306
REMARK  6 active torsions:
REMARK  status: ('A' for Active; 'I' for Inactive)
REMARK    1  A    between atoms: C1_2  and  C3_5 
REMARK    2  A    between atoms: C3_5  and  N1_6 
REMARK    3  A    between atoms: N1_6  and  C4_7 
REMARK    4  A    between atoms: N1_6  and  C11_15 
REMARK    5  A    between atoms: C4_7  and  C5_8 
REMARK    6  A    between atoms: C11_15  and  C12_17 
ROOT
HETATM    1  N1  UNL     1      24.351   2.349  52.321  1.00  0.00    -0.363 N 
ENDROOT
BRANCH   1   2
HETATM    2  C3  UNL     1      25.098   2.753  53.483  1.00  0.00     0.164 C 
BRANCH   2   3
HETATM    3  C1  UNL     1      26.395   2.020  53.600  1.00  0.00    -0.021 A 
HETATM    4  O1  UNL     1      26.507   1.189  54.737  1.00  0.00     0.000 OA
HETATM    5  H1  UNL     1      25.690   0.642  54.956  1.00  0.00     0.000 HD
HETATM    6 CL1  UNL     1      27.853   0.411  54.884  1.00  0.00    -0.096 Cl
HETATM    7  C2  UNL     1      27.598   1.475  53.511  1.00  0.00     0.093 A 
ENDBRANCH   2   3
ENDBRANCH   1   2
BRANCH   1   8
HETATM    8  C4  UNL     1      24.893   2.130  51.035  1.00  0.00     0.162 C 
BRANCH   8   9
HETATM    9  C5  UNL     1      25.349   3.326  50.302  1.00  0.00    -0.040 A 
HETATM   10  C6  UNL     1      24.626   4.502  50.144  1.00  0.00     0.012 A 
HETATM   11  C7  UNL     1      25.160   5.570  49.429  1.00  0.00     0.043 A 
HETATM   12  C8  UNL     1      26.405   5.500  48.860  1.00  0.00     0.116 A 
HETATM   13  F1  UNL     1      26.961   6.507  48.162  1.00  0.00    -0.206 F 
HETATM   14  C9  UNL     1      27.141   4.337  49.005  1.00  0.00     0.043 A 
HETATM   15  C10 UNL     1      26.601   3.281  49.719  1.00  0.00     0.012 A 
ENDBRANCH   8   9
ENDBRANCH   1   8
BRANCH   1  16
HETATM   16  C11 UNL     1      22.952   2.142  52.454  1.00  0.00     0.109 C 
HETATM   17  S1  UNL     1      21.528   2.826  52.054  1.00  0.00    -0.060 SA
BRANCH  16  18
HETATM   18  C12 UNL     1      22.511   0.942  53.176  1.00  0.00     0.002 A 
HETATM   19  C13 UNL     1      21.145   1.002  53.464  1.00  0.00     0.014 A 
HETATM   20  C14 UNL     1      20.546  -0.046  54.141  1.00  0.00     0.001 A 
HETATM   21  C15 UNL     1      21.307  -1.117  54.512  1.00  0.00     0.000 A 
HETATM   22  C16 UNL     1      22.638  -1.173  54.230  1.00  0.00     0.001 A 
HETATM   23  C17 UNL     1      23.280  -0.145  53.552  1.00  0.00     0.014 A 
ENDBRANCH  16  18
ENDBRANCH   1  16
TORSDOF 6
ENDMDL
