MODEL 1
REMARK VINA RESULT:      -8.2      0.000      0.000
REMARK  6 active torsions:
REMARK  status: ('A' for Active; 'I' for Inactive)
REMARK    1  A    between atoms: O1_2  and  C2_3 
REMARK    2  A    between atoms: C7_8  and  O2_9 
REMARK    3  A    between atoms: O2_9  and  C8_10 
REMARK    4  A    between atoms: C8_10  and  C9_11 
REMARK    5  A    between atoms: C9_11  and  C10_12 
REMARK    6  A    between atoms: C14_16  and  C15_17 
ROOT
HETATM    1  C10 UNL     1      23.752   4.448  51.195  1.00  0.00     0.044 C 
HETATM    2  C11 UNL     1      23.837   3.897  52.401  1.00  0.00     0.005 C 
HETATM    3  C12 UNL     1      24.541   2.689  52.949  1.00  0.00     0.030 C 
HETATM    4  C13 UNL     1      24.802   1.689  51.833  1.00  0.00     0.012 C 
HETATM    5  C14 UNL     1      26.224   1.827  51.310  1.00  0.00     0.012 C 
HETATM    6  C19 UNL     1      26.452   3.186  50.735  1.00  0.00     0.035 C 
HETATM    7  C20 UNL     1      25.525   3.430  49.565  1.00  0.00     0.176 C 
HETATM    8  O4  UNL     1      24.325   4.057  49.969  1.00  0.00    -0.356 OA
ENDROOT
BRANCH   1   9
HETATM    9  C9  UNL     1      22.937   5.678  51.035  1.00  0.00     0.091 C 
BRANCH   9  10
HETATM   10  C8  UNL     1      21.508   5.451  51.497  1.00  0.00     0.182 C 
BRANCH  10  11
HETATM   11  O2  UNL     1      20.887   4.604  50.552  1.00  0.00    -0.348 OA
BRANCH  11  12
HETATM   12  C7  UNL     1      20.746   3.243  50.864  1.00  0.00     0.102 A 
HETATM   13  C2  UNL     1      20.955   2.258  49.923  1.00  0.00     0.101 A 
HETATM   14  C3  UNL     1      20.803   0.941  50.288  1.00  0.00     0.039 A 
HETATM   15  C4  UNL     1      20.443   0.601  51.584  1.00  0.00     0.003 A 
HETATM   16  C5  UNL     1      20.222   1.552  52.570  1.00  0.00     0.003 A 
HETATM   17  C6  UNL     1      20.392   2.849  52.137  1.00  0.00     0.039 A 
BRANCH  13  18
HETATM   18  O1  UNL     1      21.308   2.638  48.651  1.00  0.00    -0.353 OA
HETATM   19  C1  UNL     1      22.376   2.103  47.912  1.00  0.00     0.210 C 
ENDBRANCH  13  18
ENDBRANCH  11  12
ENDBRANCH  10  11
ENDBRANCH   9  10
ENDBRANCH   1   9
BRANCH   5  20
HETATM   20  C15 UNL     1      27.158   1.474  52.369  1.00  0.00     0.003 C 
HETATM   21  C16 UNL     1      27.388   0.310  52.934  1.00  0.00     0.073 C 
HETATM   22  S1  UNL     1      26.704  -1.330  52.693  1.00  0.00    -0.047 SA
HETATM   23  C18 UNL     1      28.368   0.094  53.994  1.00  0.00     0.264 C 
HETATM   24  C17 UNL     1      28.179  -2.213  53.276  1.00  0.00     0.167 C 
HETATM   25  N1  UNL     1      28.662  -3.378  53.042  1.00  0.00    -0.278 NA
HETATM   26  N2  UNL     1      28.757  -1.236  54.143  1.00  0.00    -0.301 N 
HETATM   27  H19 UNL     1      28.134  -4.013  52.371  1.00  0.00     0.189 HD
HETATM   28  H20 UNL     1      29.468  -1.543  54.879  1.00  0.00     0.171 HD
HETATM   29  O3  UNL     1      28.817   1.055  54.712  1.00  0.00    -0.267 OA
ENDBRANCH   5  20
TORSDOF 6
ENDMDL
MODEL 2
REMARK VINA RESULT:      -7.9      4.389      6.748
REMARK  6 active torsions:
REMARK  status: ('A' for Active; 'I' for Inactive)
REMARK    1  A    between atoms: O1_2  and  C2_3 
REMARK    2  A    between atoms: C7_8  and  O2_9 
REMARK    3  A    between atoms: O2_9  and  C8_10 
REMARK    4  A    between atoms: C8_10  and  C9_11 
REMARK    5  A    between atoms: C9_11  and  C10_12 
REMARK    6  A    between atoms: C14_16  and  C15_17 
ROOT
HETATM    1  C10 UNL     1      21.392   2.646  50.336  1.00  0.00     0.044 C 
HETATM    2  C11 UNL     1      22.323   2.354  49.434  1.00  0.00     0.005 C 
HETATM    3  C12 UNL     1      23.266   3.177  48.603  1.00  0.00     0.030 C 
HETATM    4  C13 UNL     1      22.718   4.586  48.439  1.00  0.00     0.012 C 
HETATM    5  C14 UNL     1      23.358   5.532  49.444  1.00  0.00     0.012 C 
HETATM    6  C19 UNL     1      23.055   5.110  50.844  1.00  0.00     0.035 C 
HETATM    7  C20 UNL     1      21.564   5.143  51.095  1.00  0.00     0.176 C 
HETATM    8  O4  UNL     1      20.961   3.891  50.834  1.00  0.00    -0.356 OA
ENDROOT
BRANCH   1   9
HETATM    9  C9  UNL     1      20.641   1.531  50.964  1.00  0.00     0.091 C 
BRANCH   9  10
HETATM   10  C8  UNL     1      21.583   0.436  51.438  1.00  0.00     0.182 C 
BRANCH  10  11
HETATM   11  O2  UNL     1      22.301   0.946  52.543  1.00  0.00    -0.348 OA
BRANCH  11  12
HETATM   12  C7  UNL     1      23.673   0.667  52.636  1.00  0.00     0.102 A 
HETATM   13  C2  UNL     1      24.145  -0.431  53.321  1.00  0.00     0.101 A 
HETATM   14  C3  UNL     1      25.501  -0.652  53.377  1.00  0.00     0.039 A 
HETATM   15  C4  UNL     1      26.387   0.214  52.754  1.00  0.00     0.003 A 
HETATM   16  C5  UNL     1      25.966   1.334  52.050  1.00  0.00     0.003 A 
HETATM   17  C6  UNL     1      24.599   1.495  52.034  1.00  0.00     0.039 A 
BRANCH  13  18
HETATM   18  O1  UNL     1      23.233  -1.262  53.924  1.00  0.00    -0.353 OA
HETATM   19  C1  UNL     1      22.848  -1.202  55.273  1.00  0.00     0.210 C 
ENDBRANCH  13  18
ENDBRANCH  11  12
ENDBRANCH  10  11
ENDBRANCH   9  10
ENDBRANCH   1   9
BRANCH   5  20
HETATM   20  C15 UNL     1      24.782   5.637  49.160  1.00  0.00     0.003 C 
HETATM   21  C16 UNL     1      25.577   6.683  49.221  1.00  0.00     0.073 C 
HETATM   22  S1  UNL     1      25.316   8.401  49.660  1.00  0.00    -0.047 SA
HETATM   23  C18 UNL     1      27.002   6.646  48.910  1.00  0.00     0.264 C 
HETATM   24  C17 UNL     1      27.024   8.695  50.204  1.00  0.00     0.167 C 
HETATM   25  N1  UNL     1      27.559   9.517  51.030  1.00  0.00    -0.278 NA
HETATM   26  N2  UNL     1      27.725   7.713  49.441  1.00  0.00    -0.301 N 
HETATM   27  H19 UNL     1      26.922  10.200  51.540  1.00  0.00     0.189 HD
HETATM   28  H20 UNL     1      28.779   7.817  49.295  1.00  0.00     0.171 HD
HETATM   29  O3  UNL     1      27.523   5.708  48.211  1.00  0.00    -0.267 OA
ENDBRANCH   5  20
TORSDOF 6
ENDMDL
MODEL 3
REMARK VINA RESULT:      -7.8      2.609      4.570
REMARK  6 active torsions:
REMARK  status: ('A' for Active; 'I' for Inactive)
REMARK    1  A    between atoms: O1_2  and  C2_3 
REMARK    2  A    between atoms: C7_8  and  O2_9 
REMARK    3  A    between atoms: O2_9  and  C8_10 
REMARK    4  A    between atoms: C8_10  and  C9_11 
REMARK    5  A    between atoms: C9_11  and  C10_12 
REMARK    6  A    between atoms: C14_16  and  C15_17 
ROOT
HETATM    1  C10 UNL     1      23.518   4.526  51.405  1.00  0.00     0.044 C 
HETATM    2  C11 UNL     1      23.817   4.148  52.643  1.00  0.00     0.005 C 
HETATM    3  C12 UNL     1      24.533   2.963  53.228  1.00  0.00     0.030 C 
HETATM    4  C13 UNL     1      24.479   1.793  52.258  1.00  0.00     0.012 C 
HETATM    5  C14 UNL     1      25.764   1.707  51.448  1.00  0.00     0.012 C 
HETATM    6  C19 UNL     1      25.962   2.940  50.628  1.00  0.00     0.035 C 
HETATM    7  C20 UNL     1      24.828   3.108  49.642  1.00  0.00     0.176 C 
HETATM    8  O4  UNL     1      23.788   3.907  50.169  1.00  0.00    -0.356 OA
ENDROOT
BRANCH   1   9
HETATM    9  C9  UNL     1      22.778   5.798  51.214  1.00  0.00     0.091 C 
BRANCH   9  10
HETATM   10  C8  UNL     1      23.718   6.921  50.808  1.00  0.00     0.182 C 
BRANCH  10  11
HETATM   11  O2  UNL     1      23.743   6.960  49.395  1.00  0.00    -0.348 OA
BRANCH  11  12
HETATM   12  C7  UNL     1      24.977   7.137  48.752  1.00  0.00     0.102 A 
HETATM   13  C2  UNL     1      25.155   8.090  47.774  1.00  0.00     0.101 A 
HETATM   14  C3  UNL     1      26.389   8.217  47.180  1.00  0.00     0.039 A 
HETATM   15  C4  UNL     1      27.445   7.399  47.556  1.00  0.00     0.003 A 
HETATM   16  C5  UNL     1      27.321   6.424  48.536  1.00  0.00     0.003 A 
HETATM   17  C6  UNL     1      26.061   6.352  49.088  1.00  0.00     0.039 A 
BRANCH  13  18
HETATM   18  O1  UNL     1      24.084   8.878  47.431  1.00  0.00    -0.353 OA
HETATM   19  C1  UNL     1      23.300   8.724  46.276  1.00  0.00     0.210 C 
ENDBRANCH  13  18
ENDBRANCH  11  12
ENDBRANCH  10  11
ENDBRANCH   9  10
ENDBRANCH   1   9
BRANCH   5  20
HETATM   20  C15 UNL     1      26.874   1.415  52.343  1.00  0.00     0.003 C 
HETATM   21  C16 UNL     1      27.230   0.277  52.897  1.00  0.00     0.073 C 
HETATM   22  S1  UNL     1      26.563  -1.386  52.828  1.00  0.00    -0.047 SA
HETATM   23  C18 UNL     1      28.380   0.122  53.782  1.00  0.00     0.264 C 
HETATM   24  C17 UNL     1      28.140  -2.213  53.179  1.00  0.00     0.167 C 
HETATM   25  N1  UNL     1      28.610  -3.374  52.903  1.00  0.00    -0.278 NA
HETATM   26  N2  UNL     1      28.827  -1.193  53.904  1.00  0.00    -0.301 N 
HETATM   27  H19 UNL     1      27.995  -4.045  52.352  1.00  0.00     0.189 HD
HETATM   28  H20 UNL     1      29.662  -1.456  54.518  1.00  0.00     0.171 HD
HETATM   29  O3  UNL     1      28.916   1.118  54.383  1.00  0.00    -0.267 OA
ENDBRANCH   5  20
TORSDOF 6
ENDMDL
MODEL 4
REMARK VINA RESULT:      -7.7      2.696      4.960
REMARK  6 active torsions:
REMARK  status: ('A' for Active; 'I' for Inactive)
REMARK    1  A    between atoms: O1_2  and  C2_3 
REMARK    2  A    between atoms: C7_8  and  O2_9 
REMARK    3  A    between atoms: O2_9  and  C8_10 
REMARK    4  A    between atoms: C8_10  and  C9_11 
REMARK    5  A    between atoms: C9_11  and  C10_12 
REMARK    6  A    between atoms: C14_16  and  C15_17 
ROOT
HETATM    1  C10 UNL     1      21.245   3.708  51.152  1.00  0.00     0.044 C 
HETATM    2  C11 UNL     1      20.738   3.373  52.333  1.00  0.00     0.005 C 
HETATM    3  C12 UNL     1      20.572   2.072  53.066  1.00  0.00     0.030 C 
HETATM    4  C13 UNL     1      20.557   0.917  52.077  1.00  0.00     0.012 C 
HETATM    5  C14 UNL     1      21.931   0.269  51.986  1.00  0.00     0.012 C 
HETATM    6  C19 UNL     1      22.951   1.245  51.497  1.00  0.00     0.035 C 
HETATM    7  C20 UNL     1      22.598   1.728  50.108  1.00  0.00     0.176 C 
HETATM    8  O4  UNL     1      21.823   2.911  50.145  1.00  0.00    -0.356 OA
ENDROOT
BRANCH   1   9
HETATM    9  C9  UNL     1      21.234   5.139  50.758  1.00  0.00     0.091 C 
BRANCH   9  10
HETATM   10  C8  UNL     1      22.381   5.454  49.813  1.00  0.00     0.182 C 
BRANCH  10  11
HETATM   11  O2  UNL     1      23.547   5.603  50.599  1.00  0.00    -0.348 OA
BRANCH  11  12
HETATM   12  C7  UNL     1      24.790   5.328  50.010  1.00  0.00     0.102 A 
HETATM   13  C2  UNL     1      25.546   6.315  49.417  1.00  0.00     0.101 A 
HETATM   14  C3  UNL     1      26.758   5.985  48.857  1.00  0.00     0.039 A 
HETATM   15  C4  UNL     1      27.220   4.677  48.887  1.00  0.00     0.003 A 
HETATM   16  C5  UNL     1      26.501   3.645  49.473  1.00  0.00     0.003 A 
HETATM   17  C6  UNL     1      25.298   4.045  50.013  1.00  0.00     0.039 A 
BRANCH  13  18
HETATM   18  O1  UNL     1      25.051   7.597  49.408  1.00  0.00    -0.353 OA
HETATM   19  C1  UNL     1      25.743   8.736  49.850  1.00  0.00     0.210 C 
ENDBRANCH  13  18
ENDBRANCH  11  12
ENDBRANCH  10  11
ENDBRANCH   9  10
ENDBRANCH   1   9
BRANCH   5  20
HETATM   20  C15 UNL     1      22.263  -0.328  53.272  1.00  0.00     0.003 C 
HETATM   21  C16 UNL     1      23.433  -0.675  53.761  1.00  0.00     0.073 C 
HETATM   22  S1  UNL     1      25.106  -0.589  53.124  1.00  0.00    -0.047 SA
HETATM   23  C18 UNL     1      23.624  -1.266  55.081  1.00  0.00     0.264 C 
HETATM   24  C17 UNL     1      25.900  -0.503  54.754  1.00  0.00     0.167 C 
HETATM   25  N1  UNL     1      27.012  -0.017  55.171  1.00  0.00    -0.278 NA
HETATM   26  N2  UNL     1      24.926  -1.157  55.567  1.00  0.00    -0.301 N 
HETATM   27  H19 UNL     1      27.652   0.450  54.461  1.00  0.00     0.189 HD
HETATM   28  H20 UNL     1      25.213  -1.544  56.521  1.00  0.00     0.171 HD
HETATM   29  O3  UNL     1      22.668  -1.831  55.720  1.00  0.00    -0.267 OA
ENDBRANCH   5  20
TORSDOF 6
ENDMDL
MODEL 5
REMARK VINA RESULT:      -7.7      6.218      8.533
REMARK  6 active torsions:
REMARK  status: ('A' for Active; 'I' for Inactive)
REMARK    1  A    between atoms: O1_2  and  C2_3 
REMARK    2  A    between atoms: C7_8  and  O2_9 
REMARK    3  A    between atoms: O2_9  and  C8_10 
REMARK    4  A    between atoms: C8_10  and  C9_11 
REMARK    5  A    between atoms: C9_11  and  C10_12 
REMARK    6  A    between atoms: C14_16  and  C15_17 
ROOT
HETATM    1  C10 UNL     1      25.879   4.370  49.325  1.00  0.00     0.044 C 
HETATM    2  C11 UNL     1      27.136   4.580  48.950  1.00  0.00     0.005 C 
HETATM    3  C12 UNL     1      27.891   5.782  48.459  1.00  0.00     0.030 C 
HETATM    4  C13 UNL     1      26.927   6.791  47.854  1.00  0.00     0.012 C 
HETATM    5  C14 UNL     1      26.581   7.876  48.864  1.00  0.00     0.012 C 
HETATM    6  C19 UNL     1      25.905   7.295  50.062  1.00  0.00     0.035 C 
HETATM    7  C20 UNL     1      24.606   6.629  49.667  1.00  0.00     0.176 C 
HETATM    8  O4  UNL     1      24.784   5.254  49.390  1.00  0.00    -0.356 OA
ENDROOT
BRANCH   1   9
HETATM    9  C9  UNL     1      25.489   3.006  49.762  1.00  0.00     0.091 C 
BRANCH   9  10
HETATM   10  C8  UNL     1      26.429   2.487  50.836  1.00  0.00     0.182 C 
BRANCH  10  11
HETATM   11  O2  UNL     1      25.781   2.656  52.081  1.00  0.00    -0.348 OA
BRANCH  11  12
HETATM   12  C7  UNL     1      25.679   1.550  52.938  1.00  0.00     0.102 A 
HETATM   13  C2  UNL     1      26.533   1.377  54.005  1.00  0.00     0.101 A 
HETATM   14  C3  UNL     1      26.383   0.273  54.811  1.00  0.00     0.039 A 
HETATM   15  C4  UNL     1      25.386  -0.659  54.558  1.00  0.00     0.003 A 
HETATM   16  C5  UNL     1      24.498  -0.533  53.499  1.00  0.00     0.003 A 
HETATM   17  C6  UNL     1      24.705   0.594  52.734  1.00  0.00     0.039 A 
BRANCH  13  18
HETATM   18  O1  UNL     1      27.507   2.323  54.218  1.00  0.00    -0.353 OA
HETATM   19  C1  UNL     1      28.859   2.189  53.865  1.00  0.00     0.210 C 
ENDBRANCH  13  18
ENDBRANCH  11  12
ENDBRANCH  10  11
ENDBRANCH   9  10
ENDBRANCH   1   9
BRANCH   5  20
HETATM   20  C15 UNL     1      27.783   8.634  49.180  1.00  0.00     0.003 C 
HETATM   21  C16 UNL     1      28.117   9.859  48.841  1.00  0.00     0.073 C 
HETATM   22  S1  UNL     1      27.305  11.133  47.876  1.00  0.00    -0.047 SA
HETATM   23  C18 UNL     1      29.366  10.504  49.234  1.00  0.00     0.264 C 
HETATM   24  C17 UNL     1      28.131  12.521  48.704  1.00  0.00     0.167 C 
HETATM   25  N1  UNL     1      27.816  13.750  48.896  1.00  0.00    -0.278 NA
HETATM   26  N2  UNL     1      29.335  11.896  49.149  1.00  0.00    -0.301 N 
HETATM   27  H19 UNL     1      26.885  14.094  48.513  1.00  0.00     0.189 HD
HETATM   28  H20 UNL     1      30.177  12.501  49.406  1.00  0.00     0.171 HD
HETATM   29  O3  UNL     1      30.387   9.835  49.619  1.00  0.00    -0.267 OA
ENDBRANCH   5  20
TORSDOF 6
ENDMDL
MODEL 6
REMARK VINA RESULT:      -7.7      5.040      7.068
REMARK  6 active torsions:
REMARK  status: ('A' for Active; 'I' for Inactive)
REMARK    1  A    between atoms: O1_2  and  C2_3 
REMARK    2  A    between atoms: C7_8  and  O2_9 
REMARK    3  A    between atoms: O2_9  and  C8_10 
REMARK    4  A    between atoms: C8_10  and  C9_11 
REMARK    5  A    between atoms: C9_11  and  C10_12 
REMARK    6  A    between atoms: C14_16  and  C15_17 
ROOT
HETATM    1  C10 UNL     1      23.635   4.900  51.226  1.00  0.00     0.044 C 
HETATM    2  C11 UNL     1      24.426   4.201  50.420  1.00  0.00     0.005 C 
HETATM    3  C12 UNL     1      25.276   4.551  49.232  1.00  0.00     0.030 C 
HETATM    4  C13 UNL     1      24.759   5.824  48.580  1.00  0.00     0.012 C 
HETATM    5  C14 UNL     1      25.561   7.030  49.048  1.00  0.00     0.012 C 
HETATM    6  C19 UNL     1      25.434   7.217  50.524  1.00  0.00     0.035 C 
HETATM    7  C20 UNL     1      23.992   7.471  50.903  1.00  0.00     0.176 C 
HETATM    8  O4  UNL     1      23.317   6.273  51.231  1.00  0.00    -0.356 OA
ENDROOT
BRANCH   1   9
HETATM    9  C9  UNL     1      22.937   4.188  52.325  1.00  0.00     0.091 C 
BRANCH   9  10
HETATM   10  C8  UNL     1      22.904   2.690  52.072  1.00  0.00     0.182 C 
BRANCH  10  11
HETATM   11  O2  UNL     1      23.540   2.062  53.166  1.00  0.00    -0.348 OA
BRANCH  11  12
HETATM   12  C7  UNL     1      24.604   1.184  52.909  1.00  0.00     0.102 A 
HETATM   13  C2  UNL     1      24.596  -0.116  53.363  1.00  0.00     0.101 A 
HETATM   14  C3  UNL     1      25.668  -0.930  53.079  1.00  0.00     0.039 A 
HETATM   15  C4  UNL     1      26.745  -0.454  52.346  1.00  0.00     0.003 A 
HETATM   16  C5  UNL     1      26.804   0.846  51.864  1.00  0.00     0.003 A 
HETATM   17  C6  UNL     1      25.700   1.605  52.184  1.00  0.00     0.039 A 
BRANCH  13  18
HETATM   18  O1  UNL     1      23.511  -0.547  54.087  1.00  0.00    -0.353 OA
HETATM   19  C1  UNL     1      22.330  -1.075  53.540  1.00  0.00     0.210 C 
ENDBRANCH  13  18
ENDBRANCH  11  12
ENDBRANCH  10  11
ENDBRANCH   9  10
ENDBRANCH   1   9
BRANCH   5  20
HETATM   20  C15 UNL     1      26.937   6.894  48.591  1.00  0.00     0.003 C 
HETATM   21  C16 UNL     1      27.915   7.773  48.596  1.00  0.00     0.073 C 
HETATM   22  S1  UNL     1      28.033   9.478  49.136  1.00  0.00    -0.047 SA
HETATM   23  C18 UNL     1      29.262   7.500  48.107  1.00  0.00     0.264 C 
HETATM   24  C17 UNL     1      29.816   9.423  49.472  1.00  0.00     0.167 C 
HETATM   25  N1  UNL     1      30.587  10.080  50.259  1.00  0.00    -0.278 NA
HETATM   26  N2  UNL     1      30.228   8.383  48.586  1.00  0.00    -0.301 N 
HETATM   27  H19 UNL     1      30.153  10.833  50.873  1.00  0.00     0.189 HD
HETATM   28  H20 UNL     1      31.258   8.304  48.313  1.00  0.00     0.171 HD
HETATM   29  O3  UNL     1      29.513   6.531  47.308  1.00  0.00    -0.267 OA
ENDBRANCH   5  20
TORSDOF 6
ENDMDL
MODEL 7
REMARK VINA RESULT:      -7.7      3.260      5.680
REMARK  6 active torsions:
REMARK  status: ('A' for Active; 'I' for Inactive)
REMARK    1  A    between atoms: O1_2  and  C2_3 
REMARK    2  A    between atoms: C7_8  and  O2_9 
REMARK    3  A    between atoms: O2_9  and  C8_10 
REMARK    4  A    between atoms: C8_10  and  C9_11 
REMARK    5  A    between atoms: C9_11  and  C10_12 
REMARK    6  A    between atoms: C14_16  and  C15_17 
ROOT
HETATM    1  C10 UNL     1      23.238   5.795  50.743  1.00  0.00     0.044 C 
HETATM    2  C11 UNL     1      23.536   5.403  51.977  1.00  0.00     0.005 C 
HETATM    3  C12 UNL     1      23.478   4.085  52.696  1.00  0.00     0.030 C 
HETATM    4  C13 UNL     1      22.466   3.170  52.023  1.00  0.00     0.012 C 
HETATM    5  C14 UNL     1      23.162   2.206  51.073  1.00  0.00     0.012 C 
HETATM    6  C19 UNL     1      23.869   2.944  49.985  1.00  0.00     0.035 C 
HETATM    7  C20 UNL     1      22.884   3.743  49.160  1.00  0.00     0.176 C 
HETATM    8  O4  UNL     1      22.742   5.063  49.646  1.00  0.00    -0.356 OA
ENDROOT
BRANCH   1   9
HETATM    9  C9  UNL     1      23.432   7.222  50.388  1.00  0.00     0.091 C 
BRANCH   9  10
HETATM   10  C8  UNL     1      24.890   7.625  50.523  1.00  0.00     0.182 C 
BRANCH  10  11
HETATM   11  O2  UNL     1      25.421   7.731  49.217  1.00  0.00    -0.348 OA
BRANCH  11  12
HETATM   12  C7  UNL     1      26.569   6.991  48.899  1.00  0.00     0.102 A 
HETATM   13  C2  UNL     1      27.755   7.603  48.556  1.00  0.00     0.101 A 
HETATM   14  C3  UNL     1      28.847   6.823  48.255  1.00  0.00     0.039 A 
HETATM   15  C4  UNL     1      28.763   5.439  48.294  1.00  0.00     0.003 A 
HETATM   16  C5  UNL     1      27.595   4.772  48.634  1.00  0.00     0.003 A 
HETATM   17  C6  UNL     1      26.542   5.611  48.923  1.00  0.00     0.039 A 
BRANCH  13  18
HETATM   18  O1  UNL     1      27.794   8.976  48.529  1.00  0.00    -0.353 OA
HETATM   19  C1  UNL     1      28.924   9.760  48.812  1.00  0.00     0.210 C 
ENDBRANCH  13  18
ENDBRANCH  11  12
ENDBRANCH  10  11
ENDBRANCH   9  10
ENDBRANCH   1   9
BRANCH   5  20
HETATM   20  C15 UNL     1      24.029   1.323  51.841  1.00  0.00     0.003 C 
HETATM   21  C16 UNL     1      25.336   1.340  51.977  1.00  0.00     0.073 C 
HETATM   22  S1  UNL     1      26.628   2.398  51.324  1.00  0.00    -0.047 SA
HETATM   23  C18 UNL     1      26.085   0.387  52.790  1.00  0.00     0.264 C 
HETATM   24  C17 UNL     1      27.786   2.111  52.692  1.00  0.00     0.167 C 
HETATM   25  N1  UNL     1      28.746   2.797  53.196  1.00  0.00    -0.278 NA
HETATM   26  N2  UNL     1      27.361   0.825  53.144  1.00  0.00    -0.301 N 
HETATM   27  H19 UNL     1      28.962   3.746  52.766  1.00  0.00     0.189 HD
HETATM   28  H20 UNL     1      28.023   0.233  53.738  1.00  0.00     0.171 HD
HETATM   29  O3  UNL     1      25.597  -0.745  53.137  1.00  0.00    -0.267 OA
ENDBRANCH   5  20
TORSDOF 6
ENDMDL
MODEL 8
REMARK VINA RESULT:      -7.6      5.795      8.312
REMARK  6 active torsions:
REMARK  status: ('A' for Active; 'I' for Inactive)
REMARK    1  A    between atoms: O1_2  and  C2_3 
REMARK    2  A    between atoms: C7_8  and  O2_9 
REMARK    3  A    between atoms: O2_9  and  C8_10 
REMARK    4  A    between atoms: C8_10  and  C9_11 
REMARK    5  A    between atoms: C9_11  and  C10_12 
REMARK    6  A    between atoms: C14_16  and  C15_17 
ROOT
HETATM    1  C10 UNL     1      24.893   4.202  49.933  1.00  0.00     0.044 C 
HETATM    2  C11 UNL     1      26.140   4.130  49.481  1.00  0.00     0.005 C 
HETATM    3  C12 UNL     1      27.077   5.116  48.843  1.00  0.00     0.030 C 
HETATM    4  C13 UNL     1      26.284   6.237  48.188  1.00  0.00     0.012 C 
HETATM    5  C14 UNL     1      26.215   7.451  49.104  1.00  0.00     0.012 C 
HETATM    6  C19 UNL     1      25.520   7.117  50.382  1.00  0.00     0.035 C 
HETATM    7  C20 UNL     1      24.095   6.686  50.113  1.00  0.00     0.176 C 
HETATM    8  O4  UNL     1      23.991   5.284  49.962  1.00  0.00    -0.356 OA
ENDROOT
BRANCH   1   9
HETATM    9  C9  UNL     1      24.280   2.982  50.516  1.00  0.00     0.091 C 
BRANCH   9  10
HETATM   10  C8  UNL     1      24.836   2.701  51.902  1.00  0.00     0.182 C 
BRANCH  10  11
HETATM   11  O2  UNL     1      25.603   1.517  51.817  1.00  0.00    -0.348 OA
BRANCH  11  12
HETATM   12  C7  UNL     1      26.670   1.344  52.711  1.00  0.00     0.102 A 
HETATM   13  C2  UNL     1      26.755   0.243  53.535  1.00  0.00     0.101 A 
HETATM   14  C3  UNL     1      27.825   0.129  54.390  1.00  0.00     0.039 A 
HETATM   15  C4  UNL     1      28.810   1.106  54.429  1.00  0.00     0.003 A 
HETATM   16  C5  UNL     1      28.774   2.234  53.621  1.00  0.00     0.003 A 
HETATM   17  C6  UNL     1      27.677   2.284  52.790  1.00  0.00     0.039 A 
BRANCH  13  18
HETATM   18  O1  UNL     1      25.758  -0.700  53.466  1.00  0.00    -0.353 OA
HETATM   19  C1  UNL     1      24.536  -0.640  54.154  1.00  0.00     0.210 C 
ENDBRANCH  13  18
ENDBRANCH  11  12
ENDBRANCH  10  11
ENDBRANCH   9  10
ENDBRANCH   1   9
BRANCH   5  20
HETATM   20  C15 UNL     1      27.557   7.985  49.289  1.00  0.00     0.003 C 
HETATM   21  C16 UNL     1      28.033   9.178  49.009  1.00  0.00     0.073 C 
HETATM   22  S1  UNL     1      27.307  10.656  48.301  1.00  0.00    -0.047 SA
HETATM   23  C18 UNL     1      29.413   9.585  49.254  1.00  0.00     0.264 C 
HETATM   24  C17 UNL     1      28.458  11.808  49.104  1.00  0.00     0.167 C 
HETATM   25  N1  UNL     1      28.377  13.040  49.450  1.00  0.00    -0.278 NA
HETATM   26  N2  UNL     1      29.595  10.967  49.297  1.00  0.00    -0.301 N 
HETATM   27  H19 UNL     1      27.468  13.557  49.251  1.00  0.00     0.189 HD
HETATM   28  H20 UNL     1      30.553  11.410  49.469  1.00  0.00     0.171 HD
HETATM   29  O3  UNL     1      30.357   8.735  49.412  1.00  0.00    -0.267 OA
ENDBRANCH   5  20
TORSDOF 6
ENDMDL
MODEL 9
REMARK VINA RESULT:      -7.5      4.117      5.582
REMARK  6 active torsions:
REMARK  status: ('A' for Active; 'I' for Inactive)
REMARK    1  A    between atoms: O1_2  and  C2_3 
REMARK    2  A    between atoms: C7_8  and  O2_9 
REMARK    3  A    between atoms: O2_9  and  C8_10 
REMARK    4  A    between atoms: C8_10  and  C9_11 
REMARK    5  A    between atoms: C9_11  and  C10_12 
REMARK    6  A    between atoms: C14_16  and  C15_17 
ROOT
HETATM    1  C10 UNL     1      20.182   1.013  52.017  1.00  0.00     0.044 C 
HETATM    2  C11 UNL     1      21.262   1.107  51.248  1.00  0.00     0.005 C 
HETATM    3  C12 UNL     1      22.740   1.069  51.516  1.00  0.00     0.030 C 
HETATM    4  C13 UNL     1      23.017   1.460  52.959  1.00  0.00     0.012 C 
HETATM    5  C14 UNL     1      23.199   0.223  53.826  1.00  0.00     0.012 C 
HETATM    6  C19 UNL     1      21.960  -0.612  53.833  1.00  0.00     0.035 C 
HETATM    7  C20 UNL     1      20.801   0.167  54.413  1.00  0.00     0.176 C 
HETATM    8  O4  UNL     1      20.064   0.837  53.410  1.00  0.00    -0.356 OA
ENDROOT
BRANCH   1   9
HETATM    9  C9  UNL     1      18.847   1.098  51.375  1.00  0.00     0.091 C 
BRANCH   9  10
HETATM   10  C8  UNL     1      18.218  -0.278  51.238  1.00  0.00     0.182 C 
BRANCH  10  11
HETATM   11  O2  UNL     1      17.299  -0.430  52.302  1.00  0.00    -0.348 OA
BRANCH  11  12
HETATM   12  C7  UNL     1      16.898  -1.726  52.660  1.00  0.00     0.102 A 
HETATM   13  C2  UNL     1      15.682  -2.242  52.268  1.00  0.00     0.101 A 
HETATM   14  C3  UNL     1      15.344  -3.519  52.649  1.00  0.00     0.039 A 
HETATM   15  C4  UNL     1      16.210  -4.283  53.418  1.00  0.00     0.003 A 
HETATM   16  C5  UNL     1      17.446  -3.813  53.838  1.00  0.00     0.003 A 
HETATM   17  C6  UNL     1      17.721  -2.529  53.421  1.00  0.00     0.039 A 
BRANCH  13  18
HETATM   18  O1  UNL     1      14.853  -1.451  51.510  1.00  0.00    -0.353 OA
HETATM   19  C1  UNL     1      14.423  -1.745  50.206  1.00  0.00     0.210 C 
ENDBRANCH  13  18
ENDBRANCH  11  12
ENDBRANCH  10  11
ENDBRANCH   9  10
ENDBRANCH   1   9
BRANCH   5  20
HETATM   20  C15 UNL     1      24.386  -0.496  53.386  1.00  0.00     0.003 C 
HETATM   21  C16 UNL     1      25.642  -0.108  53.359  1.00  0.00     0.073 C 
HETATM   22  S1  UNL     1      26.469   1.414  53.823  1.00  0.00    -0.047 SA
HETATM   23  C18 UNL     1      26.745  -0.941  52.893  1.00  0.00     0.264 C 
HETATM   24  C17 UNL     1      28.069   0.633  54.175  1.00  0.00     0.167 C 
HETATM   25  N1  UNL     1      29.054   0.940  54.937  1.00  0.00    -0.278 NA
HETATM   26  N2  UNL     1      27.998  -0.523  53.340  1.00  0.00    -0.301 N 
HETATM   27  H19 UNL     1      28.982   1.832  55.513  1.00  0.00     0.189 HD
HETATM   28  H20 UNL     1      28.898  -1.038  53.079  1.00  0.00     0.171 HD
HETATM   29  O3  UNL     1      26.559  -1.961  52.141  1.00  0.00    -0.267 OA
ENDBRANCH   5  20
TORSDOF 6
ENDMDL
