MODEL 1
REMARK VINA RESULT:      -9.3      0.000      0.000
REMARK  4 active torsions:
REMARK  status: ('A' for Active; 'I' for Inactive)
REMARK    1  A    between atoms: C7_7  and  C8_8 
REMARK    2  A    between atoms: C8_8  and  C9_9 
REMARK    3  A    between atoms: C13_14  and  N2_15 
REMARK    4  A    between atoms: N4_17  and  C14_18 
ROOT
HETATM    1  C9  UNL     1      25.054   0.509  53.159  1.00  0.00     0.113 A 
HETATM    2  C10 UNL     1      24.028   1.443  52.639  1.00  0.00     0.034 A 
HETATM    3  C11 UNL     1      22.766   1.009  52.828  1.00  0.00     0.106 A 
HETATM    4  C12 UNL     1      22.958  -0.294  53.501  1.00  0.00     0.172 A 
HETATM    5  N1  UNL     1      21.856  -0.889  53.802  1.00  0.00    -0.042 NA
HETATM    6  C13 UNL     1      20.577  -0.331  53.507  1.00  0.00     0.739 A 
HETATM    7  N3  UNL     1      20.409   0.808  52.917  1.00  0.00     0.028 NA
HETATM    8  N4  UNL     1      21.522   1.579  52.526  1.00  0.00    -0.191 N 
HETATM    9  N5  UNL     1      24.352  -0.596  53.684  1.00  0.00    -0.364 N 
HETATM   10  H18 UNL     1      24.605  -1.494  54.140  1.00  0.00     0.162 HD
ENDROOT
BRANCH   1  11
HETATM   11  C8  UNL     1      26.141   0.224  52.180  1.00  0.00     0.068 C 
BRANCH  11  12
HETATM   12  C7  UNL     1      27.455  -0.103  52.792  1.00  0.00    -0.050 A 
HETATM   13  C2  UNL     1      28.411   0.769  53.258  1.00  0.00    -0.056 A 
HETATM   14  C1  UNL     1      28.069   2.210  53.279  1.00  0.00     0.049 C 
HETATM   15  C3  UNL     1      29.643   0.339  53.735  1.00  0.00     0.007 A 
HETATM   16  C4  UNL     1      29.953  -0.985  53.756  1.00  0.00     0.001 A 
HETATM   17  C5  UNL     1      29.005  -1.883  53.293  1.00  0.00     0.001 A 
HETATM   18  C6  UNL     1      27.779  -1.444  52.820  1.00  0.00     0.007 A 
ENDBRANCH  11  12
ENDBRANCH   1  11
BRANCH   8  19
HETATM   19  C14 UNL     1      21.381   2.837  51.884  1.00  0.00     0.189 C 
HETATM   20  C15 UNL     1      21.242   2.590  50.567  1.00  0.00     0.064 C 
HETATM   21 BR1  UNL     1      21.263   0.794  49.900  1.00  0.00    -0.046 Br
HETATM   22  C16 UNL     1      21.052   3.593  49.484  1.00  0.00     0.024 C 
HETATM   23  C17 UNL     1      21.466   4.873  49.523  1.00  0.00     0.003 C 
HETATM   24  C18 UNL     1      22.184   5.556  50.625  1.00  0.00     0.025 C 
HETATM   25  C19 UNL     1      22.149   5.237  51.935  1.00  0.00     0.144 C 
HETATM   26  O1  UNL     1      21.380   4.144  52.429  1.00  0.00    -0.303 OA
ENDBRANCH   8  19
BRANCH   6  27
HETATM   27  N2  UNL     1      19.352  -0.970  53.845  1.00  0.00    -0.230 N 
HETATM   28  H12 UNL     1      18.607  -0.622  53.166  1.00  0.00     0.174 HD
HETATM   29  H13 UNL     1      19.221  -1.661  54.624  1.00  0.00     0.174 HD
ENDBRANCH   6  27
TORSDOF 4
ENDMDL
MODEL 2
REMARK VINA RESULT:      -8.5      3.095      4.455
REMARK  4 active torsions:
REMARK  status: ('A' for Active; 'I' for Inactive)
REMARK    1  A    between atoms: C7_7  and  C8_8 
REMARK    2  A    between atoms: C8_8  and  C9_9 
REMARK    3  A    between atoms: C13_14  and  N2_15 
REMARK    4  A    between atoms: N4_17  and  C14_18 
ROOT
HETATM    1  C9  UNL     1      26.345   2.106  51.530  1.00  0.00     0.113 A 
HETATM    2  C10 UNL     1      24.884   2.128  51.285  1.00  0.00     0.034 A 
HETATM    3  C11 UNL     1      24.484   3.174  50.534  1.00  0.00     0.106 A 
HETATM    4  C12 UNL     1      25.747   3.898  50.271  1.00  0.00     0.172 A 
HETATM    5  N1  UNL     1      25.600   4.944  49.534  1.00  0.00    -0.042 NA
HETATM    6  C13 UNL     1      24.332   5.353  49.027  1.00  0.00     0.739 A 
HETATM    7  N3  UNL     1      23.226   4.721  49.258  1.00  0.00     0.028 NA
HETATM    8  N4  UNL     1      23.226   3.555  50.050  1.00  0.00    -0.191 N 
HETATM    9  N5  UNL     1      26.869   3.249  50.892  1.00  0.00    -0.364 N 
HETATM   10  H18 UNL     1      27.809   3.677  50.780  1.00  0.00     0.162 HD
ENDROOT
BRANCH   1  11
HETATM   11  C8  UNL     1      26.699   1.900  52.963  1.00  0.00     0.068 C 
BRANCH  11  12
HETATM   12  C7  UNL     1      27.664   0.797  53.209  1.00  0.00    -0.050 A 
HETATM   13  C2  UNL     1      28.951   0.889  53.685  1.00  0.00    -0.056 A 
HETATM   14  C1  UNL     1      29.419   2.221  54.132  1.00  0.00     0.049 C 
HETATM   15  C3  UNL     1      29.787  -0.216  53.793  1.00  0.00     0.007 A 
HETATM   16  C4  UNL     1      29.353  -1.450  53.422  1.00  0.00     0.001 A 
HETATM   17  C5  UNL     1      28.060  -1.568  52.940  1.00  0.00     0.001 A 
HETATM   18  C6  UNL     1      27.233  -0.461  52.837  1.00  0.00     0.007 A 
ENDBRANCH  11  12
ENDBRANCH   1  11
BRANCH   8  19
HETATM   19  C14 UNL     1      22.037   2.827  50.320  1.00  0.00     0.189 C 
HETATM   20  C15 UNL     1      21.482   3.382  51.416  1.00  0.00     0.064 C 
HETATM   21 BR1  UNL     1      22.314   4.869  52.290  1.00  0.00    -0.046 Br
HETATM   22  C16 UNL     1      20.215   2.971  52.080  1.00  0.00     0.024 C 
HETATM   23  C17 UNL     1      19.677   1.738  52.042  1.00  0.00     0.003 C 
HETATM   24  C18 UNL     1      20.207   0.543  51.345  1.00  0.00     0.025 C 
HETATM   25  C19 UNL     1      21.011   0.526  50.263  1.00  0.00     0.144 C 
HETATM   26  O1  UNL     1      21.469   1.724  49.640  1.00  0.00    -0.303 OA
ENDBRANCH   8  19
BRANCH   6  27
HETATM   27  N2  UNL     1      24.156   6.499  48.202  1.00  0.00    -0.230 N 
HETATM   28  H12 UNL     1      24.962   7.168  48.401  1.00  0.00     0.174 HD
HETATM   29  H13 UNL     1      23.370   6.644  47.521  1.00  0.00     0.174 HD
ENDBRANCH   6  27
TORSDOF 4
ENDMDL
MODEL 3
REMARK VINA RESULT:      -8.3      1.968      2.888
REMARK  4 active torsions:
REMARK  status: ('A' for Active; 'I' for Inactive)
REMARK    1  A    between atoms: C7_7  and  C8_8 
REMARK    2  A    between atoms: C8_8  and  C9_9 
REMARK    3  A    between atoms: C13_14  and  N2_15 
REMARK    4  A    between atoms: N4_17  and  C14_18 
ROOT
HETATM    1  C9  UNL     1      24.769   1.545  52.644  1.00  0.00     0.113 A 
HETATM    2  C10 UNL     1      24.425   2.793  51.922  1.00  0.00     0.034 A 
HETATM    3  C11 UNL     1      23.097   2.991  51.802  1.00  0.00     0.106 A 
HETATM    4  C12 UNL     1      22.520   1.804  52.471  1.00  0.00     0.172 A 
HETATM    5  N1  UNL     1      21.232   1.797  52.493  1.00  0.00    -0.042 NA
HETATM    6  C13 UNL     1      20.449   2.843  51.922  1.00  0.00     0.739 A 
HETATM    7  N3  UNL     1      20.953   3.880  51.336  1.00  0.00     0.028 NA
HETATM    8  N4  UNL     1      22.350   4.031  51.233  1.00  0.00    -0.191 N 
HETATM    9  N5  UNL     1      23.544   0.924  52.965  1.00  0.00    -0.364 N 
HETATM   10  H18 UNL     1      23.253   0.051  53.447  1.00  0.00     0.162 HD
ENDROOT
BRANCH   1  11
HETATM   11  C8  UNL     1      25.789   0.719  51.938  1.00  0.00     0.068 C 
BRANCH  11  12
HETATM   12  C7  UNL     1      27.081   0.582  52.659  1.00  0.00    -0.050 A 
HETATM   13  C2  UNL     1      27.702  -0.575  53.069  1.00  0.00    -0.056 A 
HETATM   14  C1  UNL     1      27.098  -1.860  52.648  1.00  0.00     0.049 C 
HETATM   15  C3  UNL     1      28.875  -0.567  53.814  1.00  0.00     0.007 A 
HETATM   16  C4  UNL     1      29.459   0.607  54.172  1.00  0.00     0.001 A 
HETATM   17  C5  UNL     1      28.852   1.786  53.770  1.00  0.00     0.001 A 
HETATM   18  C6  UNL     1      27.683   1.768  53.026  1.00  0.00     0.007 A 
ENDBRANCH  11  12
ENDBRANCH   1  11
BRANCH   8  19
HETATM   19  C14 UNL     1      22.944   5.158  50.605  1.00  0.00     0.189 C 
HETATM   20  C15 UNL     1      23.065   4.857  49.298  1.00  0.00     0.064 C 
HETATM   21 BR1  UNL     1      22.481   3.162  48.624  1.00  0.00    -0.046 Br
HETATM   22  C16 UNL     1      23.622   5.730  48.228  1.00  0.00     0.024 C 
HETATM   23  C17 UNL     1      24.524   6.712  48.411  1.00  0.00     0.003 C 
HETATM   24  C18 UNL     1      25.146   7.139  49.687  1.00  0.00     0.025 C 
HETATM   25  C19 UNL     1      24.632   7.002  50.925  1.00  0.00     0.144 C 
HETATM   26  O1  UNL     1      23.364   6.392  51.157  1.00  0.00    -0.303 OA
ENDBRANCH   8  19
BRANCH   6  27
HETATM   27  N2  UNL     1      19.027   2.854  51.951  1.00  0.00    -0.230 N 
HETATM   28  H12 UNL     1      18.690   3.408  51.104  1.00  0.00     0.174 HD
HETATM   29  H13 UNL     1      18.429   2.394  52.681  1.00  0.00     0.174 HD
ENDBRANCH   6  27
TORSDOF 4
ENDMDL
MODEL 4
REMARK VINA RESULT:      -8.0      2.932      7.401
REMARK  4 active torsions:
REMARK  status: ('A' for Active; 'I' for Inactive)
REMARK    1  A    between atoms: C7_7  and  C8_8 
REMARK    2  A    between atoms: C8_8  and  C9_9 
REMARK    3  A    between atoms: C13_14  and  N2_15 
REMARK    4  A    between atoms: N4_17  and  C14_18 
ROOT
HETATM    1  C9  UNL     1      20.284   1.852  52.146  1.00  0.00     0.113 A 
HETATM    2  C10 UNL     1      21.752   2.016  52.267  1.00  0.00     0.034 A 
HETATM    3  C11 UNL     1      22.173   3.268  51.998  1.00  0.00     0.106 A 
HETATM    4  C12 UNL     1      20.919   3.979  51.668  1.00  0.00     0.172 A 
HETATM    5  N1  UNL     1      21.088   5.227  51.394  1.00  0.00    -0.042 NA
HETATM    6  C13 UNL     1      22.371   5.849  51.411  1.00  0.00     0.739 A 
HETATM    7  N3  UNL     1      23.468   5.228  51.698  1.00  0.00     0.028 NA
HETATM    8  N4  UNL     1      23.445   3.856  52.021  1.00  0.00    -0.191 N 
HETATM    9  N5  UNL     1      19.779   3.107  51.746  1.00  0.00    -0.364 N 
HETATM   10  H18 UNL     1      18.843   3.500  51.525  1.00  0.00     0.162 HD
ENDROOT
BRANCH   1  11
HETATM   11  C8  UNL     1      19.888   0.667  51.335  1.00  0.00     0.068 C 
BRANCH  11  12
HETATM   12  C7  UNL     1      18.773  -0.131  51.908  1.00  0.00    -0.050 A 
HETATM   13  C2  UNL     1      18.811  -0.982  52.988  1.00  0.00    -0.056 A 
HETATM   14  C1  UNL     1      20.067  -1.039  53.770  1.00  0.00     0.049 C 
HETATM   15  C3  UNL     1      17.713  -1.740  53.377  1.00  0.00     0.007 A 
HETATM   16  C4  UNL     1      16.542  -1.666  52.689  1.00  0.00     0.001 A 
HETATM   17  C5  UNL     1      16.480  -0.815  51.598  1.00  0.00     0.001 A 
HETATM   18  C6  UNL     1      17.580  -0.062  51.218  1.00  0.00     0.007 A 
ENDBRANCH  11  12
ENDBRANCH   1  11
BRANCH   8  19
HETATM   19  C14 UNL     1      24.625   3.138  52.351  1.00  0.00     0.189 C 
HETATM   20  C15 UNL     1      25.252   2.865  51.190  1.00  0.00     0.064 C 
HETATM   21 BR1  UNL     1      24.509   3.431  49.518  1.00  0.00    -0.046 Br
HETATM   22  C16 UNL     1      26.539   2.137  51.020  1.00  0.00     0.024 C 
HETATM   23  C17 UNL     1      27.040   1.224  51.872  1.00  0.00     0.003 C 
HETATM   24  C18 UNL     1      26.441   0.752  53.142  1.00  0.00     0.025 C 
HETATM   25  C19 UNL     1      25.582   1.425  53.933  1.00  0.00     0.144 C 
HETATM   26  O1  UNL     1      25.126   2.737  53.613  1.00  0.00    -0.303 OA
ENDBRANCH   8  19
BRANCH   6  27
HETATM   27  N2  UNL     1      22.570   7.228  51.123  1.00  0.00    -0.230 N 
HETATM   28  H12 UNL     1      23.411   7.559  51.690  1.00  0.00     0.174 HD
HETATM   29  H13 UNL     1      21.987   7.803  50.466  1.00  0.00     0.174 HD
ENDBRANCH   6  27
TORSDOF 4
ENDMDL
MODEL 5
REMARK VINA RESULT:      -8.0      3.998      6.101
REMARK  4 active torsions:
REMARK  status: ('A' for Active; 'I' for Inactive)
REMARK    1  A    between atoms: C7_7  and  C8_8 
REMARK    2  A    between atoms: C8_8  and  C9_9 
REMARK    3  A    between atoms: C13_14  and  N2_15 
REMARK    4  A    between atoms: N4_17  and  C14_18 
ROOT
HETATM    1  C9  UNL     1      23.982   1.779  51.747  1.00  0.00     0.113 A 
HETATM    2  C10 UNL     1      23.492   2.882  50.888  1.00  0.00     0.034 A 
HETATM    3  C11 UNL     1      24.482   3.551  50.262  1.00  0.00     0.106 A 
HETATM    4  C12 UNL     1      25.702   2.863  50.738  1.00  0.00     0.172 A 
HETATM    5  N1  UNL     1      26.791   3.337  50.237  1.00  0.00    -0.042 NA
HETATM    6  C13 UNL     1      26.802   4.421  49.311  1.00  0.00     0.739 A 
HETATM    7  N3  UNL     1      25.735   5.023  48.896  1.00  0.00     0.028 NA
HETATM    8  N4  UNL     1      24.465   4.619  49.355  1.00  0.00    -0.191 N 
HETATM    9  N5  UNL     1      25.389   1.799  51.651  1.00  0.00    -0.364 N 
HETATM   10  H18 UNL     1      26.174   1.251  52.057  1.00  0.00     0.162 HD
ENDROOT
BRANCH   1  11
HETATM   11  C8  UNL     1      23.391   1.790  53.115  1.00  0.00     0.068 C 
BRANCH  11  12
HETATM   12  C7  UNL     1      22.421   0.696  53.379  1.00  0.00    -0.050 A 
HETATM   13  C2  UNL     1      21.050   0.737  53.274  1.00  0.00    -0.056 A 
HETATM   14  C1  UNL     1      20.445   1.967  52.715  1.00  0.00     0.049 C 
HETATM   15  C3  UNL     1      20.243  -0.336  53.632  1.00  0.00     0.007 A 
HETATM   16  C4  UNL     1      20.792  -1.485  54.110  1.00  0.00     0.001 A 
HETATM   17  C5  UNL     1      22.170  -1.550  54.225  1.00  0.00     0.001 A 
HETATM   18  C6  UNL     1      22.967  -0.475  53.864  1.00  0.00     0.007 A 
ENDBRANCH  11  12
ENDBRANCH   1  11
BRANCH   8  19
HETATM   19  C14 UNL     1      23.269   5.247  48.918  1.00  0.00     0.189 C 
HETATM   20  C15 UNL     1      23.084   6.323  49.707  1.00  0.00     0.064 C 
HETATM   21 BR1  UNL     1      24.327   6.741  51.102  1.00  0.00    -0.046 Br
HETATM   22  C16 UNL     1      21.968   7.306  49.629  1.00  0.00     0.024 C 
HETATM   23  C17 UNL     1      20.740   7.057  49.140  1.00  0.00     0.003 C 
HETATM   24  C18 UNL     1      20.233   5.782  48.578  1.00  0.00     0.025 C 
HETATM   25  C19 UNL     1      20.962   4.803  48.007  1.00  0.00     0.144 C 
HETATM   26  O1  UNL     1      22.379   4.888  47.878  1.00  0.00    -0.303 OA
ENDBRANCH   8  19
BRANCH   6  27
HETATM   27  N2  UNL     1      27.995   4.945  48.741  1.00  0.00    -0.230 N 
HETATM   28  H12 UNL     1      27.867   5.998  48.630  1.00  0.00     0.174 HD
HETATM   29  H13 UNL     1      28.843   4.383  48.481  1.00  0.00     0.174 HD
ENDBRANCH   6  27
TORSDOF 4
ENDMDL
MODEL 6
REMARK VINA RESULT:      -7.8      2.744      4.615
REMARK  4 active torsions:
REMARK  status: ('A' for Active; 'I' for Inactive)
REMARK    1  A    between atoms: C7_7  and  C8_8 
REMARK    2  A    between atoms: C8_8  and  C9_9 
REMARK    3  A    between atoms: C13_14  and  N2_15 
REMARK    4  A    between atoms: N4_17  and  C14_18 
ROOT
HETATM    1  C9  UNL     1      21.428   1.495  52.700  1.00  0.00     0.113 A 
HETATM    2  C10 UNL     1      21.857   2.698  51.949  1.00  0.00     0.034 A 
HETATM    3  C11 UNL     1      20.830   3.390  51.416  1.00  0.00     0.106 A 
HETATM    4  C12 UNL     1      19.647   2.600  51.826  1.00  0.00     0.172 A 
HETATM    5  N1  UNL     1      18.528   3.104  51.434  1.00  0.00    -0.042 NA
HETATM    6  C13 UNL     1      18.452   4.310  50.678  1.00  0.00     0.739 A 
HETATM    7  N3  UNL     1      19.485   5.000  50.318  1.00  0.00     0.028 NA
HETATM    8  N4  UNL     1      20.782   4.576  50.672  1.00  0.00    -0.191 N 
HETATM    9  N5  UNL     1      20.022   1.444  52.592  1.00  0.00    -0.364 N 
HETATM   10  H18 UNL     1      19.270   0.809  52.926  1.00  0.00     0.162 HD
ENDROOT
BRANCH   1  11
HETATM   11  C8  UNL     1      22.187   0.267  52.331  1.00  0.00     0.068 C 
BRANCH  11  12
HETATM   12  C7  UNL     1      22.993  -0.316  53.434  1.00  0.00    -0.050 A 
HETATM   13  C2  UNL     1      22.554  -1.084  54.488  1.00  0.00    -0.056 A 
HETATM   14  C1  UNL     1      21.133  -1.499  54.485  1.00  0.00     0.049 C 
HETATM   15  C3  UNL     1      23.400  -1.502  55.508  1.00  0.00     0.007 A 
HETATM   16  C4  UNL     1      24.716  -1.159  55.500  1.00  0.00     0.001 A 
HETATM   17  C5  UNL     1      25.182  -0.387  54.448  1.00  0.00     0.001 A 
HETATM   18  C6  UNL     1      24.330   0.024  53.435  1.00  0.00     0.007 A 
ENDBRANCH  11  12
ENDBRANCH   1  11
BRANCH   8  19
HETATM   19  C14 UNL     1      21.942   5.309  50.306  1.00  0.00     0.189 C 
HETATM   20  C15 UNL     1      22.307   4.874  49.084  1.00  0.00     0.064 C 
HETATM   21 BR1  UNL     1      21.303   3.510  48.189  1.00  0.00    -0.046 Br
HETATM   22  C16 UNL     1      23.461   5.352  48.273  1.00  0.00     0.024 C 
HETATM   23  C17 UNL     1      24.589   5.896  48.765  1.00  0.00     0.003 C 
HETATM   24  C18 UNL     1      24.927   6.141  50.187  1.00  0.00     0.025 C 
HETATM   25  C19 UNL     1      24.063   6.331  51.204  1.00  0.00     0.144 C 
HETATM   26  O1  UNL     1      22.651   6.309  51.014  1.00  0.00    -0.303 OA
ENDBRANCH   8  19
BRANCH   6  27
HETATM   27  N2  UNL     1      17.223   4.884  50.250  1.00  0.00    -0.230 N 
HETATM   28  H12 UNL     1      17.444   5.823  49.795  1.00  0.00     0.174 HD
HETATM   29  H13 UNL     1      16.275   4.449  50.367  1.00  0.00     0.174 HD
ENDBRANCH   6  27
TORSDOF 4
ENDMDL
MODEL 7
REMARK VINA RESULT:      -7.7      9.610     12.415
REMARK  4 active torsions:
REMARK  status: ('A' for Active; 'I' for Inactive)
REMARK    1  A    between atoms: C7_7  and  C8_8 
REMARK    2  A    between atoms: C8_8  and  C9_9 
REMARK    3  A    between atoms: C13_14  and  N2_15 
REMARK    4  A    between atoms: N4_17  and  C14_18 
ROOT
HETATM    1  C9  UNL     1      29.727   6.146  48.740  1.00  0.00     0.113 A 
HETATM    2  C10 UNL     1      31.069   5.874  48.172  1.00  0.00     0.034 A 
HETATM    3  C11 UNL     1      31.738   6.992  47.825  1.00  0.00     0.106 A 
HETATM    4  C12 UNL     1      30.787   8.072  48.171  1.00  0.00     0.172 A 
HETATM    5  N1  UNL     1      31.241   9.255  47.937  1.00  0.00    -0.042 NA
HETATM    6  C13 UNL     1      32.540   9.486  47.396  1.00  0.00     0.739 A 
HETATM    7  N3  UNL     1      33.371   8.542  47.093  1.00  0.00     0.028 NA
HETATM    8  N4  UNL     1      33.018   7.192  47.292  1.00  0.00    -0.191 N 
HETATM    9  N5  UNL     1      29.564   7.547  48.712  1.00  0.00    -0.364 N 
HETATM   10  H18 UNL     1      28.818   8.218  48.982  1.00  0.00     0.162 HD
ENDROOT
BRANCH   1  11
HETATM   11  C8  UNL     1      28.649   5.320  48.127  1.00  0.00     0.068 C 
BRANCH  11  12
HETATM   12  C7  UNL     1      27.270   5.732  48.496  1.00  0.00    -0.050 A 
HETATM   13  C2  UNL     1      26.315   4.993  49.156  1.00  0.00    -0.056 A 
HETATM   14  C1  UNL     1      26.720   3.671  49.686  1.00  0.00     0.049 C 
HETATM   15  C3  UNL     1      25.025   5.464  49.369  1.00  0.00     0.007 A 
HETATM   16  C4  UNL     1      24.654   6.693  48.921  1.00  0.00     0.001 A 
HETATM   17  C5  UNL     1      25.598   7.455  48.254  1.00  0.00     0.001 A 
HETATM   18  C6  UNL     1      26.883   6.978  48.047  1.00  0.00     0.007 A 
ENDBRANCH  11  12
ENDBRANCH   1  11
BRANCH   8  19
HETATM   19  C14 UNL     1      33.904   6.126  46.980  1.00  0.00     0.189 C 
HETATM   20  C15 UNL     1      33.749   5.863  45.668  1.00  0.00     0.064 C 
HETATM   21 BR1  UNL     1      32.506   6.862  44.607  1.00  0.00    -0.046 Br
HETATM   22  C16 UNL     1      34.472   4.832  44.873  1.00  0.00     0.024 C 
HETATM   23  C17 UNL     1      35.004   3.697  45.363  1.00  0.00     0.003 C 
HETATM   24  C18 UNL     1      34.993   3.231  46.769  1.00  0.00     0.025 C 
HETATM   25  C19 UNL     1      34.906   3.995  47.876  1.00  0.00     0.144 C 
HETATM   26  O1  UNL     1      34.802   5.415  47.811  1.00  0.00    -0.303 OA
ENDBRANCH   8  19
BRANCH   6  27
HETATM   27  N2  UNL     1      33.058  10.786  47.146  1.00  0.00    -0.230 N 
HETATM   28  H12 UNL     1      32.906  11.371  48.025  1.00  0.00     0.174 HD
HETATM   29  H13 UNL     1      33.509  11.100  46.251  1.00  0.00     0.174 HD
ENDBRANCH   6  27
TORSDOF 4
ENDMDL
MODEL 8
REMARK VINA RESULT:      -7.6      4.008      5.946
REMARK  4 active torsions:
REMARK  status: ('A' for Active; 'I' for Inactive)
REMARK    1  A    between atoms: C7_7  and  C8_8 
REMARK    2  A    between atoms: C8_8  and  C9_9 
REMARK    3  A    between atoms: C13_14  and  N2_15 
REMARK    4  A    between atoms: N4_17  and  C14_18 
ROOT
HETATM    1  C9  UNL     1      24.359   3.309  49.669  1.00  0.00     0.113 A 
HETATM    2  C10 UNL     1      23.525   2.404  50.496  1.00  0.00     0.034 A 
HETATM    3  C11 UNL     1      22.270   2.258  50.026  1.00  0.00     0.106 A 
HETATM    4  C12 UNL     1      22.259   3.122  48.826  1.00  0.00     0.172 A 
HETATM    5  N1  UNL     1      21.137   3.116  48.193  1.00  0.00    -0.042 NA
HETATM    6  C13 UNL     1      20.018   2.343  48.623  1.00  0.00     0.739 A 
HETATM    7  N3  UNL     1      20.026   1.589  49.674  1.00  0.00     0.028 NA
HETATM    8  N4  UNL     1      21.185   1.491  50.471  1.00  0.00    -0.191 N 
HETATM    9  N5  UNL     1      23.528   3.767  48.626  1.00  0.00    -0.364 N 
HETATM   10  H18 UNL     1      23.632   4.407  47.814  1.00  0.00     0.162 HD
ENDROOT
BRANCH   1  11
HETATM   11  C8  UNL     1      25.082   4.338  50.469  1.00  0.00     0.068 C 
BRANCH  11  12
HETATM   12  C7  UNL     1      26.091   5.117  49.706  1.00  0.00    -0.050 A 
HETATM   13  C2  UNL     1      26.060   6.455  49.385  1.00  0.00    -0.056 A 
HETATM   14  C1  UNL     1      24.966   7.270  49.959  1.00  0.00     0.049 C 
HETATM   15  C3  UNL     1      27.030   7.052  48.589  1.00  0.00     0.007 A 
HETATM   16  C4  UNL     1      28.062   6.320  48.089  1.00  0.00     0.001 A 
HETATM   17  C5  UNL     1      28.114   4.971  48.399  1.00  0.00     0.001 A 
HETATM   18  C6  UNL     1      27.142   4.385  49.195  1.00  0.00     0.007 A 
ENDBRANCH  11  12
ENDBRANCH   1  11
BRANCH   8  19
HETATM   19  C14 UNL     1      21.238   0.668  51.627  1.00  0.00     0.189 C 
HETATM   20  C15 UNL     1      20.642   1.354  52.621  1.00  0.00     0.064 C 
HETATM   21 BR1  UNL     1      19.926   3.103  52.313  1.00  0.00    -0.046 Br
HETATM   22  C16 UNL     1      20.443   0.900  54.025  1.00  0.00     0.024 C 
HETATM   23  C17 UNL     1      21.212   0.006  54.674  1.00  0.00     0.003 C 
HETATM   24  C18 UNL     1      22.397  -0.713  54.150  1.00  0.00     0.025 C 
HETATM   25  C19 UNL     1      22.664  -1.003  52.861  1.00  0.00     0.144 C 
HETATM   26  O1  UNL     1      21.791  -0.624  51.801  1.00  0.00    -0.303 OA
ENDBRANCH   8  19
BRANCH   6  27
HETATM   27  N2  UNL     1      18.777   2.317  47.928  1.00  0.00    -0.230 N 
HETATM   28  H12 UNL     1      18.123   1.662  48.457  1.00  0.00     0.174 HD
HETATM   29  H13 UNL     1      18.559   2.854  47.053  1.00  0.00     0.174 HD
ENDBRANCH   6  27
TORSDOF 4
ENDMDL
MODEL 9
REMARK VINA RESULT:      -7.6      3.043      4.785
REMARK  4 active torsions:
REMARK  status: ('A' for Active; 'I' for Inactive)
REMARK    1  A    between atoms: C7_7  and  C8_8 
REMARK    2  A    between atoms: C8_8  and  C9_9 
REMARK    3  A    between atoms: C13_14  and  N2_15 
REMARK    4  A    between atoms: N4_17  and  C14_18 
ROOT
HETATM    1  C9  UNL     1      24.140   3.266  51.895  1.00  0.00     0.113 A 
HETATM    2  C10 UNL     1      22.682   3.230  51.629  1.00  0.00     0.034 A 
HETATM    3  C11 UNL     1      22.184   4.416  51.225  1.00  0.00     0.106 A 
HETATM    4  C12 UNL     1      23.372   5.298  51.232  1.00  0.00     0.172 A 
HETATM    5  N1  UNL     1      23.125   6.503  50.849  1.00  0.00    -0.042 NA
HETATM    6  C13 UNL     1      21.822   6.931  50.458  1.00  0.00     0.739 A 
HETATM    7  N3  UNL     1      20.783   6.161  50.453  1.00  0.00     0.028 NA
HETATM    8  N4  UNL     1      20.894   4.813  50.847  1.00  0.00    -0.191 N 
HETATM    9  N5  UNL     1      24.552   4.594  51.655  1.00  0.00    -0.364 N 
HETATM   10  H18 UNL     1      25.447   5.119  51.706  1.00  0.00     0.162 HD
ENDROOT
BRANCH   1  11
HETATM   11  C8  UNL     1      24.515   2.662  53.205  1.00  0.00     0.068 C 
BRANCH  11  12
HETATM   12  C7  UNL     1      25.365   1.447  53.104  1.00  0.00    -0.050 A 
HETATM   13  C2  UNL     1      24.981   0.133  53.238  1.00  0.00    -0.056 A 
HETATM   14  C1  UNL     1      23.533  -0.145  53.376  1.00  0.00     0.049 C 
HETATM   15  C3  UNL     1      25.892  -0.916  53.205  1.00  0.00     0.007 A 
HETATM   16  C4  UNL     1      27.220  -0.675  53.039  1.00  0.00     0.001 A 
HETATM   17  C5  UNL     1      27.630   0.641  52.901  1.00  0.00     0.001 A 
HETATM   18  C6  UNL     1      26.714   1.681  52.934  1.00  0.00     0.007 A 
ENDBRANCH  11  12
ENDBRANCH   1  11
BRANCH   8  19
HETATM   19  C14 UNL     1      19.781   3.932  50.847  1.00  0.00     0.189 C 
HETATM   20  C15 UNL     1      19.732   3.366  49.625  1.00  0.00     0.064 C 
HETATM   21 BR1  UNL     1      21.024   3.815  48.285  1.00  0.00    -0.046 Br
HETATM   22  C16 UNL     1      18.743   2.362  49.145  1.00  0.00     0.024 C 
HETATM   23  C17 UNL     1      17.491   2.211  49.614  1.00  0.00     0.003 C 
HETATM   24  C18 UNL     1      16.830   2.989  50.689  1.00  0.00     0.025 C 
HETATM   25  C19 UNL     1      17.432   3.633  51.709  1.00  0.00     0.144 C 
HETATM   26  O1  UNL     1      18.848   3.642  51.871  1.00  0.00    -0.303 OA
ENDBRANCH   8  19
BRANCH   6  27
HETATM   27  N2  UNL     1      21.538   8.255  50.020  1.00  0.00    -0.230 N 
HETATM   28  H12 UNL     1      21.873   8.926  50.778  1.00  0.00     0.174 HD
HETATM   29  H13 UNL     1      21.081   8.510  49.111  1.00  0.00     0.174 HD
ENDBRANCH   6  27
TORSDOF 4
ENDMDL
