MODEL 1
REMARK VINA RESULT:      -8.0      0.000      0.000
REMARK  2 active torsions:
REMARK  status: ('A' for Active; 'I' for Inactive)
REMARK    1  A    between atoms: C4_5  and  N1_6 
REMARK    2  A    between atoms: N1_6  and  C5_7 
ROOT
HETATM    1  C5  UNL     1      23.553  -0.382  53.616  1.00  0.00     0.257 C 
HETATM    2  C6  UNL     1      22.950   0.814  53.022  1.00  0.00     0.323 C 
HETATM    3  N2  UNL     1      23.708   2.016  52.843  1.00  0.00     0.091 N 
HETATM    4  C7  UNL     1      22.644   2.889  52.276  1.00  0.00     0.311 C 
HETATM    5  C8  UNL     1      22.052   2.334  51.055  1.00  0.00     0.003 A 
HETATM    6  C9  UNL     1      22.844   2.494  49.931  1.00  0.00     0.012 A 
HETATM    7  C10 UNL     1      22.472   2.042  48.677  1.00  0.00     0.001 A 
HETATM    8  C11 UNL     1      21.243   1.399  48.542  1.00  0.00     0.003 A 
HETATM    9  C12 UNL     1      20.474   1.255  49.685  1.00  0.00     0.037 A 
HETATM   10  C13 UNL     1      20.821   1.696  50.952  1.00  0.00     0.080 A 
HETATM   11  O1  UNL     1      19.906   1.434  51.877  1.00  0.00    -0.320 OA
HETATM   12  C14 UNL     1      19.505   0.346  52.624  1.00  0.00     0.396 C 
HETATM   13  N3  UNL     1      20.292  -0.320  53.487  1.00  0.00    -0.411 NA
HETATM   14  C15 UNL     1      21.220  -0.907  53.959  1.00  0.00     0.317 C 
HETATM   15  O2  UNL     1      22.470  -1.335  53.581  1.00  0.00    -0.308 OA
HETATM   16  H8  UNL     1      24.024   2.421  53.726  1.00  0.00     0.316 HD
ENDROOT
BRANCH   1  17
HETATM   17  N1  UNL     1      24.757  -0.862  53.033  1.00  0.00    -0.365 N 
HETATM   18  H4  UNL     1      24.675  -1.461  52.163  1.00  0.00     0.162 HD
BRANCH  17  19
HETATM   19  C4  UNL     1      26.038  -0.560  53.580  1.00  0.00     0.011 A 
HETATM   20  C3  UNL     1      26.217   0.159  54.872  1.00  0.00     0.085 A 
HETATM   21  C2  UNL     1      27.698   0.232  55.006  1.00  0.00    -0.002 A 
HETATM   22  C1  UNL     1      28.293  -0.355  53.956  1.00  0.00     0.009 A 
HETATM   23 BR1  UNL     1      30.147  -0.584  53.553  1.00  0.00    -0.051 Br
HETATM   24  C16 UNL     1      27.214  -0.842  53.077  1.00  0.00     0.043 A 
ENDBRANCH  17  19
ENDBRANCH   1  17
TORSDOF 2
ENDMDL
MODEL 2
REMARK VINA RESULT:      -7.8      4.011      5.595
REMARK  2 active torsions:
REMARK  status: ('A' for Active; 'I' for Inactive)
REMARK    1  A    between atoms: C4_5  and  N1_6 
REMARK    2  A    between atoms: N1_6  and  C5_7 
ROOT
HETATM    1  C5  UNL     1      26.411   2.904  50.860  1.00  0.00     0.257 C 
HETATM    2  C6  UNL     1      25.173   2.943  51.642  1.00  0.00     0.323 C 
HETATM    3  N2  UNL     1      24.367   4.125  51.696  1.00  0.00     0.091 N 
HETATM    4  C7  UNL     1      23.309   3.652  52.630  1.00  0.00     0.311 C 
HETATM    5  C8  UNL     1      22.625   2.450  52.144  1.00  0.00     0.003 A 
HETATM    6  C9  UNL     1      21.697   2.702  51.149  1.00  0.00     0.012 A 
HETATM    7  C10 UNL     1      20.942   1.706  50.554  1.00  0.00     0.001 A 
HETATM    8  C11 UNL     1      21.127   0.392  50.978  1.00  0.00     0.003 A 
HETATM    9  C12 UNL     1      22.063   0.173  51.975  1.00  0.00     0.037 A 
HETATM   10  C13 UNL     1      22.832   1.149  52.588  1.00  0.00     0.080 A 
HETATM   11  O1  UNL     1      23.654   0.675  53.515  1.00  0.00    -0.320 OA
HETATM   12  C14 UNL     1      24.872   0.027  53.554  1.00  0.00     0.396 C 
HETATM   13  N3  UNL     1      26.020   0.529  53.065  1.00  0.00    -0.411 NA
HETATM   14  C15 UNL     1      26.820   1.034  52.335  1.00  0.00     0.317 C 
HETATM   15  O2  UNL     1      26.873   1.551  51.062  1.00  0.00    -0.308 OA
HETATM   16  H8  UNL     1      24.850   4.916  52.126  1.00  0.00     0.316 HD
ENDROOT
BRANCH   1  17
HETATM   17  N1  UNL     1      26.329   3.281  49.493  1.00  0.00    -0.365 N 
HETATM   18  H4  UNL     1      25.894   2.590  48.818  1.00  0.00     0.162 HD
BRANCH  17  19
HETATM   19  C4  UNL     1      26.807   4.539  49.023  1.00  0.00     0.011 A 
HETATM   20  C3  UNL     1      25.949   5.754  48.946  1.00  0.00     0.085 A 
HETATM   21  C2  UNL     1      26.880   6.783  48.408  1.00  0.00    -0.002 A 
HETATM   22  C1  UNL     1      28.096   6.252  48.202  1.00  0.00     0.009 A 
HETATM   23 BR1  UNL     1      29.698   7.052  47.534  1.00  0.00    -0.051 Br
HETATM   24  C16 UNL     1      28.012   4.836  48.601  1.00  0.00     0.043 A 
ENDBRANCH  17  19
ENDBRANCH   1  17
TORSDOF 2
ENDMDL
MODEL 3
REMARK VINA RESULT:      -7.6      1.883      2.161
REMARK  2 active torsions:
REMARK  status: ('A' for Active; 'I' for Inactive)
REMARK    1  A    between atoms: C4_5  and  N1_6 
REMARK    2  A    between atoms: N1_6  and  C5_7 
ROOT
HETATM    1  C5  UNL     1      23.704   1.180  52.975  1.00  0.00     0.257 C 
HETATM    2  C6  UNL     1      23.393   2.585  52.698  1.00  0.00     0.323 C 
HETATM    3  N2  UNL     1      24.373   3.612  52.884  1.00  0.00     0.091 N 
HETATM    4  C7  UNL     1      23.549   4.798  52.525  1.00  0.00     0.311 C 
HETATM    5  C8  UNL     1      22.988   4.705  51.173  1.00  0.00     0.003 A 
HETATM    6  C9  UNL     1      23.903   4.981  50.172  1.00  0.00     0.012 A 
HETATM    7  C10 UNL     1      23.578   4.949  48.826  1.00  0.00     0.001 A 
HETATM    8  C11 UNL     1      22.271   4.626  48.467  1.00  0.00     0.003 A 
HETATM    9  C12 UNL     1      21.380   4.356  49.492  1.00  0.00     0.037 A 
HETATM   10  C13 UNL     1      21.676   4.379  50.845  1.00  0.00     0.080 A 
HETATM   11  O1  UNL     1      20.643   4.082  51.623  1.00  0.00    -0.320 OA
HETATM   12  C14 UNL     1      19.976   2.946  52.031  1.00  0.00     0.396 C 
HETATM   13  N3  UNL     1      20.538   1.936  52.719  1.00  0.00    -0.411 NA
HETATM   14  C15 UNL     1      21.291   1.072  53.057  1.00  0.00     0.317 C 
HETATM   15  O2  UNL     1      22.472   0.508  52.636  1.00  0.00    -0.308 OA
HETATM   16  H8  UNL     1      24.670   3.706  53.857  1.00  0.00     0.316 HD
ENDROOT
BRANCH   1  17
HETATM   17  N1  UNL     1      24.849   0.630  52.340  1.00  0.00    -0.365 N 
HETATM   18  H4  UNL     1      24.788   0.435  51.301  1.00  0.00     0.162 HD
BRANCH  17  19
HETATM   19  C4  UNL     1      26.048   0.342  53.056  1.00  0.00     0.011 A 
HETATM   20  C3  UNL     1      26.293   0.812  54.448  1.00  0.00     0.085 A 
HETATM   21  C2  UNL     1      27.648   0.272  54.745  1.00  0.00    -0.002 A 
HETATM   22  C1  UNL     1      28.122  -0.410  53.691  1.00  0.00     0.009 A 
HETATM   23 BR1  UNL     1      29.782  -1.328  53.456  1.00  0.00    -0.051 Br
HETATM   24  C16 UNL     1      27.086  -0.344  52.644  1.00  0.00     0.043 A 
ENDBRANCH  17  19
ENDBRANCH   1  17
TORSDOF 2
ENDMDL
MODEL 4
REMARK VINA RESULT:      -7.5      1.688      1.998
REMARK  2 active torsions:
REMARK  status: ('A' for Active; 'I' for Inactive)
REMARK    1  A    between atoms: C4_5  and  N1_6 
REMARK    2  A    between atoms: N1_6  and  C5_7 
ROOT
HETATM    1  C5  UNL     1      24.769   2.047  53.166  1.00  0.00     0.257 C 
HETATM    2  C6  UNL     1      23.594   2.580  52.473  1.00  0.00     0.323 C 
HETATM    3  N2  UNL     1      23.455   3.982  52.218  1.00  0.00     0.091 N 
HETATM    4  C7  UNL     1      22.117   3.977  51.567  1.00  0.00     0.311 C 
HETATM    5  C8  UNL     1      22.072   3.118  50.380  1.00  0.00     0.003 A 
HETATM    6  C9  UNL     1      22.663   3.682  49.263  1.00  0.00     0.012 A 
HETATM    7  C10 UNL     1      22.727   3.037  48.039  1.00  0.00     0.001 A 
HETATM    8  C11 UNL     1      22.171   1.765  47.931  1.00  0.00     0.003 A 
HETATM    9  C12 UNL     1      21.586   1.229  49.066  1.00  0.00     0.037 A 
HETATM   10  C13 UNL     1      21.508   1.849  50.302  1.00  0.00     0.080 A 
HETATM   11  O1  UNL     1      20.896   1.120  51.227  1.00  0.00    -0.320 OA
HETATM   12  C14 UNL     1      21.208   0.055  52.047  1.00  0.00     0.396 C 
HETATM   13  N3  UNL     1      22.183   0.064  52.972  1.00  0.00    -0.411 NA
HETATM   14  C15 UNL     1      23.244   0.203  53.504  1.00  0.00     0.317 C 
HETATM   15  O2  UNL     1      24.512   0.626  53.183  1.00  0.00    -0.308 OA
HETATM   16  H8  UNL     1      23.398   4.537  53.074  1.00  0.00     0.316 HD
ENDROOT
BRANCH   1  17
HETATM   17  N1  UNL     1      26.045   2.391  52.644  1.00  0.00    -0.365 N 
HETATM   18  H4  UNL     1      26.087   3.168  51.925  1.00  0.00     0.162 HD
BRANCH  17  19
HETATM   19  C4  UNL     1      27.237   1.730  53.059  1.00  0.00     0.011 A 
HETATM   20  C3  UNL     1      28.356   2.434  53.746  1.00  0.00     0.085 A 
HETATM   21  C2  UNL     1      29.345   1.343  53.967  1.00  0.00    -0.002 A 
HETATM   22  C1  UNL     1      28.878   0.181  53.484  1.00  0.00     0.009 A 
HETATM   23 BR1  UNL     1      29.669  -1.558  53.465  1.00  0.00    -0.051 Br
HETATM   24  C16 UNL     1      27.546   0.464  52.919  1.00  0.00     0.043 A 
ENDBRANCH  17  19
ENDBRANCH   1  17
TORSDOF 2
ENDMDL
MODEL 5
REMARK VINA RESULT:      -7.3      2.566      4.231
REMARK  2 active torsions:
REMARK  status: ('A' for Active; 'I' for Inactive)
REMARK    1  A    between atoms: C4_5  and  N1_6 
REMARK    2  A    between atoms: N1_6  and  C5_7 
ROOT
HETATM    1  C5  UNL     1      23.075   4.022  50.308  1.00  0.00     0.257 C 
HETATM    2  C6  UNL     1      22.262   2.806  50.386  1.00  0.00     0.323 C 
HETATM    3  N2  UNL     1      22.672   1.597  49.738  1.00  0.00     0.091 N 
HETATM    4  C7  UNL     1      21.508   0.734  50.080  1.00  0.00     0.311 C 
HETATM    5  C8  UNL     1      21.294   0.626  51.526  1.00  0.00     0.003 A 
HETATM    6  C9  UNL     1      22.175  -0.234  52.156  1.00  0.00     0.012 A 
HETATM    7  C10 UNL     1      22.145  -0.479  53.519  1.00  0.00     0.001 A 
HETATM    8  C11 UNL     1      21.182   0.172  54.287  1.00  0.00     0.003 A 
HETATM    9  C12 UNL     1      20.315   1.026  53.627  1.00  0.00     0.037 A 
HETATM   10  C13 UNL     1      20.322   1.290  52.267  1.00  0.00     0.080 A 
HETATM   11  O1  UNL     1      19.384   2.148  51.885  1.00  0.00    -0.320 OA
HETATM   12  C14 UNL     1      19.191   3.514  51.908  1.00  0.00     0.396 C 
HETATM   13  N3  UNL     1      19.989   4.408  51.297  1.00  0.00    -0.411 NA
HETATM   14  C15 UNL     1      20.958   5.005  50.933  1.00  0.00     0.317 C 
HETATM   15  O2  UNL     1      22.321   4.961  51.104  1.00  0.00    -0.308 OA
HETATM   16  H8  UNL     1      22.720   1.688  48.721  1.00  0.00     0.316 HD
ENDROOT
BRANCH   1  17
HETATM   17  N1  UNL     1      24.440   3.918  50.687  1.00  0.00    -0.365 N 
HETATM   18  H4  UNL     1      25.124   4.601  50.252  1.00  0.00     0.162 HD
BRANCH  17  19
HETATM   19  C4  UNL     1      24.897   2.940  51.618  1.00  0.00     0.011 A 
HETATM   20  C3  UNL     1      24.446   2.900  53.037  1.00  0.00     0.085 A 
HETATM   21  C2  UNL     1      25.185   1.729  53.585  1.00  0.00    -0.002 A 
HETATM   22  C1  UNL     1      25.949   1.170  52.633  1.00  0.00     0.009 A 
HETATM   23 BR1  UNL     1      27.116  -0.341  52.713  1.00  0.00    -0.051 Br
HETATM   24  C16 UNL     1      25.742   1.960  51.406  1.00  0.00     0.043 A 
ENDBRANCH  17  19
ENDBRANCH   1  17
TORSDOF 2
ENDMDL
MODEL 6
REMARK VINA RESULT:      -7.2      3.823      5.533
REMARK  2 active torsions:
REMARK  status: ('A' for Active; 'I' for Inactive)
REMARK    1  A    between atoms: C4_5  and  N1_6 
REMARK    2  A    between atoms: N1_6  and  C5_7 
ROOT
HETATM    1  C5  UNL     1      22.871   4.216  50.522  1.00  0.00     0.257 C 
HETATM    2  C6  UNL     1      22.218   2.905  50.551  1.00  0.00     0.323 C 
HETATM    3  N2  UNL     1      22.832   1.757  49.956  1.00  0.00     0.091 N 
HETATM    4  C7  UNL     1      21.765   0.752  50.214  1.00  0.00     0.311 C 
HETATM    5  C8  UNL     1      21.447   0.623  51.639  1.00  0.00     0.003 A 
HETATM    6  C9  UNL     1      22.377  -0.114  52.352  1.00  0.00     0.012 A 
HETATM    7  C10 UNL     1      22.265  -0.356  53.711  1.00  0.00     0.001 A 
HETATM    8  C11 UNL     1      21.165   0.168  54.388  1.00  0.00     0.003 A 
HETATM    9  C12 UNL     1      20.253   0.900  53.647  1.00  0.00     0.037 A 
HETATM   10  C13 UNL     1      20.340   1.158  52.288  1.00  0.00     0.080 A 
HETATM   11  O1  UNL     1      19.334   1.886  51.819  1.00  0.00    -0.320 OA
HETATM   12  C14 UNL     1      18.965   3.215  51.806  1.00  0.00     0.396 C 
HETATM   13  N3  UNL     1      19.689   4.203  51.250  1.00  0.00    -0.411 NA
HETATM   14  C15 UNL     1      20.600   4.918  50.957  1.00  0.00     0.317 C 
HETATM   15  O2  UNL     1      21.939   5.052  51.240  1.00  0.00    -0.308 OA
HETATM   16  H8  UNL     1      22.953   1.850  48.945  1.00  0.00     0.316 HD
ENDROOT
BRANCH   1  17
HETATM   17  N1  UNL     1      24.202   4.291  51.013  1.00  0.00    -0.365 N 
HETATM   18  H4  UNL     1      24.357   4.093  52.042  1.00  0.00     0.162 HD
BRANCH  17  19
HETATM   19  C4  UNL     1      25.304   4.618  50.170  1.00  0.00     0.011 A 
HETATM   20  C3  UNL     1      26.317   3.616  49.736  1.00  0.00     0.085 A 
HETATM   21  C2  UNL     1      27.240   4.424  48.892  1.00  0.00    -0.002 A 
HETATM   22  C1  UNL     1      26.829   5.701  48.839  1.00  0.00     0.009 A 
HETATM   23 BR1  UNL     1      27.579   7.205  47.929  1.00  0.00    -0.051 Br
HETATM   24  C16 UNL     1      25.605   5.786  49.656  1.00  0.00     0.043 A 
ENDBRANCH  17  19
ENDBRANCH   1  17
TORSDOF 2
ENDMDL
MODEL 7
REMARK VINA RESULT:      -7.2      3.079      4.523
REMARK  2 active torsions:
REMARK  status: ('A' for Active; 'I' for Inactive)
REMARK    1  A    between atoms: C4_5  and  N1_6 
REMARK    2  A    between atoms: N1_6  and  C5_7 
ROOT
HETATM    1  C5  UNL     1      24.940   4.644  50.282  1.00  0.00     0.257 C 
HETATM    2  C6  UNL     1      23.754   3.860  49.929  1.00  0.00     0.323 C 
HETATM    3  N2  UNL     1      23.854   2.690  49.111  1.00  0.00     0.091 N 
HETATM    4  C7  UNL     1      22.412   2.332  49.026  1.00  0.00     0.311 C 
HETATM    5  C8  UNL     1      21.806   2.123  50.344  1.00  0.00     0.003 A 
HETATM    6  C9  UNL     1      22.122   0.902  50.915  1.00  0.00     0.012 A 
HETATM    7  C10 UNL     1      21.652   0.507  52.156  1.00  0.00     0.001 A 
HETATM    8  C11 UNL     1      20.824   1.379  52.859  1.00  0.00     0.003 A 
HETATM    9  C12 UNL     1      20.526   2.592  52.262  1.00  0.00     0.037 A 
HETATM   10  C13 UNL     1      20.981   3.014  51.023  1.00  0.00     0.080 A 
HETATM   11  O1  UNL     1      20.549   4.220  50.679  1.00  0.00    -0.320 OA
HETATM   12  C14 UNL     1      20.862   5.531  50.975  1.00  0.00     0.396 C 
HETATM   13  N3  UNL     1      22.057   6.102  50.742  1.00  0.00    -0.411 NA
HETATM   14  C15 UNL     1      23.234   6.301  50.709  1.00  0.00     0.317 C 
HETATM   15  O2  UNL     1      24.396   5.689  51.116  1.00  0.00    -0.308 OA
HETATM   16  H8  UNL     1      24.194   2.892  48.169  1.00  0.00     0.316 HD
ENDROOT
BRANCH   1  17
HETATM   17  N1  UNL     1      26.028   3.947  50.874  1.00  0.00    -0.365 N 
HETATM   18  H4  UNL     1      27.001   4.338  50.723  1.00  0.00     0.162 HD
BRANCH  17  19
HETATM   19  C4  UNL     1      25.840   2.765  51.648  1.00  0.00     0.011 A 
HETATM   20  C3  UNL     1      24.910   2.697  52.810  1.00  0.00     0.085 A 
HETATM   21  C2  UNL     1      25.064   1.291  53.273  1.00  0.00    -0.002 A 
HETATM   22  C1  UNL     1      25.947   0.637  52.502  1.00  0.00     0.009 A 
HETATM   23 BR1  UNL     1      26.564  -1.170  52.587  1.00  0.00    -0.051 Br
HETATM   24  C16 UNL     1      26.416   1.599  51.488  1.00  0.00     0.043 A 
ENDBRANCH  17  19
ENDBRANCH   1  17
TORSDOF 2
ENDMDL
MODEL 8
REMARK VINA RESULT:      -7.2      4.601      6.002
REMARK  2 active torsions:
REMARK  status: ('A' for Active; 'I' for Inactive)
REMARK    1  A    between atoms: C4_5  and  N1_6 
REMARK    2  A    between atoms: N1_6  and  C5_7 
ROOT
HETATM    1  C5  UNL     1      23.766   4.238  51.352  1.00  0.00     0.257 C 
HETATM    2  C6  UNL     1      23.862   5.641  50.943  1.00  0.00     0.323 C 
HETATM    3  N2  UNL     1      24.250   6.660  51.871  1.00  0.00     0.091 N 
HETATM    4  C7  UNL     1      24.136   7.849  50.983  1.00  0.00     0.311 C 
HETATM    5  C8  UNL     1      24.975   7.741  49.786  1.00  0.00     0.003 A 
HETATM    6  C9  UNL     1      26.316   7.989  50.022  1.00  0.00     0.012 A 
HETATM    7  C10 UNL     1      27.278   7.939  49.027  1.00  0.00     0.001 A 
HETATM    8  C11 UNL     1      26.874   7.625  47.732  1.00  0.00     0.003 A 
HETATM    9  C12 UNL     1      25.526   7.382  47.528  1.00  0.00     0.037 A 
HETATM   10  C13 UNL     1      24.543   7.425  48.503  1.00  0.00     0.080 A 
HETATM   11  O1  UNL     1      23.327   7.153  48.046  1.00  0.00    -0.320 OA
HETATM   12  C14 UNL     1      22.602   6.030  47.700  1.00  0.00     0.396 C 
HETATM   13  N3  UNL     1      22.303   5.026  48.543  1.00  0.00    -0.411 NA
HETATM   14  C15 UNL     1      22.403   4.158  49.359  1.00  0.00     0.317 C 
HETATM   15  O2  UNL     1      23.380   3.575  50.129  1.00  0.00    -0.308 OA
HETATM   16  H8  UNL     1      23.590   6.766  52.643  1.00  0.00     0.316 HD
ENDROOT
BRANCH   1  17
HETATM   17  N1  UNL     1      24.904   3.664  51.979  1.00  0.00    -0.365 N 
HETATM   18  H4  UNL     1      25.728   4.300  52.178  1.00  0.00     0.162 HD
BRANCH  17  19
HETATM   19  C4  UNL     1      24.958   2.285  52.338  1.00  0.00     0.011 A 
HETATM   20  C3  UNL     1      23.818   1.569  52.974  1.00  0.00     0.085 A 
HETATM   21  C2  UNL     1      24.351   0.190  53.149  1.00  0.00    -0.002 A 
HETATM   22  C1  UNL     1      25.608   0.111  52.686  1.00  0.00     0.009 A 
HETATM   23 BR1  UNL     1      26.815  -1.369  52.629  1.00  0.00    -0.051 Br
HETATM   24  C16 UNL     1      25.958   1.452  52.182  1.00  0.00     0.043 A 
ENDBRANCH  17  19
ENDBRANCH   1  17
TORSDOF 2
ENDMDL
MODEL 9
REMARK VINA RESULT:      -7.2      5.807      7.804
REMARK  2 active torsions:
REMARK  status: ('A' for Active; 'I' for Inactive)
REMARK    1  A    between atoms: C4_5  and  N1_6 
REMARK    2  A    between atoms: N1_6  and  C5_7 
ROOT
HETATM    1  C5  UNL     1      24.975   6.799  50.336  1.00  0.00     0.257 C 
HETATM    2  C6  UNL     1      24.980   5.338  50.231  1.00  0.00     0.323 C 
HETATM    3  N2  UNL     1      25.909   4.658  49.380  1.00  0.00     0.091 N 
HETATM    4  C7  UNL     1      25.459   3.257  49.603  1.00  0.00     0.311 C 
HETATM    5  C8  UNL     1      25.506   2.869  51.016  1.00  0.00     0.003 A 
HETATM    6  C9  UNL     1      26.780   2.580  51.472  1.00  0.00     0.012 A 
HETATM    7  C10 UNL     1      27.044   2.194  52.775  1.00  0.00     0.001 A 
HETATM    8  C11 UNL     1      25.977   2.091  53.665  1.00  0.00     0.003 A 
HETATM    9  C12 UNL     1      24.715   2.387  53.178  1.00  0.00     0.037 A 
HETATM   10  C13 UNL     1      24.421   2.776  51.881  1.00  0.00     0.080 A 
HETATM   11  O1  UNL     1      23.130   3.000  51.672  1.00  0.00    -0.320 OA
HETATM   12  C14 UNL     1      22.222   4.007  51.927  1.00  0.00     0.396 C 
HETATM   13  N3  UNL     1      22.321   5.262  51.453  1.00  0.00    -0.411 NA
HETATM   14  C15 UNL     1      22.754   6.339  51.169  1.00  0.00     0.317 C 
HETATM   15  O2  UNL     1      23.926   7.046  51.296  1.00  0.00    -0.308 OA
HETATM   16  H8  UNL     1      25.783   4.887  48.392  1.00  0.00     0.316 HD
ENDROOT
BRANCH   1  17
HETATM   17  N1  UNL     1      26.205   7.432  50.658  1.00  0.00    -0.365 N 
HETATM   18  H4  UNL     1      26.617   7.246  51.617  1.00  0.00     0.162 HD
BRANCH  17  19
HETATM   19  C4  UNL     1      26.880   8.289  49.741  1.00  0.00     0.011 A 
HETATM   20  C3  UNL     1      26.856   8.077  48.266  1.00  0.00     0.085 A 
HETATM   21  C2  UNL     1      27.685   9.203  47.757  1.00  0.00    -0.002 A 
HETATM   22  C1  UNL     1      28.126   9.959  48.776  1.00  0.00     0.009 A 
HETATM   23 BR1  UNL     1      29.219  11.526  48.771  1.00  0.00    -0.051 Br
HETATM   24  C16 UNL     1      27.598   9.352  50.011  1.00  0.00     0.043 A 
ENDBRANCH  17  19
ENDBRANCH   1  17
TORSDOF 2
ENDMDL
