MODEL 1
REMARK VINA RESULT:      -7.7      0.000      0.000
REMARK  8 active torsions:
REMARK  status: ('A' for Active; 'I' for Inactive)
REMARK    1  A    between atoms: C2_2  and  C3_3 
REMARK    2  A    between atoms: C3_3  and  C4_4 
REMARK    3  A    between atoms: C4_4  and  N1_5 
REMARK    4  A    between atoms: N1_5  and  C5_6 
REMARK       I    between atoms: N1_5  and  C13_16 
REMARK    5  A    between atoms: C5_6  and  C6_7 
REMARK    6  A    between atoms: C11_12  and  S1_13 
REMARK    7  A    between atoms: C12_14  and  O1_15 
REMARK       I    between atoms: C13_16  and  N2_18 
REMARK    8  A    between atoms: N2_18  and  C14_19 
ROOT
HETATM    1  N1  UNL     1      23.944   2.009  51.724  1.00  0.00    -0.330 N 
HETATM    2  C13 UNL     1      24.766   2.926  51.008  1.00  0.00     0.323 C 
HETATM    3  O2  UNL     1      25.789   3.623  51.333  1.00  0.00    -0.247 OA
HETATM    4  N2  UNL     1      24.575   3.267  49.647  1.00  0.00    -0.309 N 
HETATM    5  H19 UNL     1      23.795   2.830  49.071  1.00  0.00     0.170 HD
ENDROOT
BRANCH   1   6
HETATM    6  C4  UNL     1      22.728   1.277  51.350  1.00  0.00     0.128 C 
BRANCH   6   7
HETATM    7  C3  UNL     1      21.943   0.877  52.547  1.00  0.00     0.020 C 
BRANCH   7   8
HETATM    8  C2  UNL     1      21.723  -0.572  52.781  1.00  0.00    -0.003 C 
HETATM    9  C1  UNL     1      21.925  -1.044  54.184  1.00  0.00     0.005 C 
ENDBRANCH   7   8
ENDBRANCH   6   7
ENDBRANCH   1   6
BRANCH   1  10
HETATM   10  C5  UNL     1      24.308   1.654  53.079  1.00  0.00     0.169 C 
BRANCH  10  11
HETATM   11  C6  UNL     1      25.655   1.063  53.226  1.00  0.00    -0.005 A 
HETATM   12  C7  UNL     1      25.710  -0.267  52.783  1.00  0.00     0.018 A 
HETATM   13  C8  UNL     1      26.840  -1.054  52.797  1.00  0.00    -0.060 A 
HETATM   14  C9  UNL     1      26.882  -2.460  52.324  1.00  0.00     0.048 C 
HETATM   15  C10 UNL     1      28.025  -0.537  53.274  1.00  0.00     0.027 A 
HETATM   16  C11 UNL     1      28.000   0.768  53.717  1.00  0.00     0.032 A 
HETATM   17  C12 UNL     1      26.855   1.528  53.690  1.00  0.00     0.090 A 
BRANCH  16  18
HETATM   18  S1  UNL     1      29.456   1.577  54.363  1.00  0.00    -0.140 SA
HETATM   19  H17 UNL     1      30.535   1.564  53.495  1.00  0.00     0.107 HD
ENDBRANCH  16  18
BRANCH  17  20
HETATM   20  O1  UNL     1      26.826   2.836  54.134  1.00  0.00    -0.359 OA
HETATM   21  H18 UNL     1      27.740   3.307  54.138  1.00  0.00     0.217 HD
ENDBRANCH  17  20
ENDBRANCH  10  11
ENDBRANCH   1  10
BRANCH   4  22
HETATM   22  C14 UNL     1      25.558   4.211  49.228  1.00  0.00     0.036 A 
HETATM   23  C15 UNL     1      24.977   5.458  48.973  1.00  0.00     0.029 A 
HETATM   24  C16 UNL     1      25.750   6.523  48.553  1.00  0.00     0.002 A 
HETATM   25  C17 UNL     1      27.101   6.298  48.400  1.00  0.00     0.000 A 
HETATM   26  C18 UNL     1      27.708   5.073  48.645  1.00  0.00     0.002 A 
HETATM   27  C19 UNL     1      26.913   4.026  49.063  1.00  0.00     0.029 A 
ENDBRANCH   4  22
TORSDOF 8
ENDMDL
MODEL 2
REMARK VINA RESULT:      -7.7      2.625      5.750
REMARK  8 active torsions:
REMARK  status: ('A' for Active; 'I' for Inactive)
REMARK    1  A    between atoms: C2_2  and  C3_3 
REMARK    2  A    between atoms: C3_3  and  C4_4 
REMARK    3  A    between atoms: C4_4  and  N1_5 
REMARK    4  A    between atoms: N1_5  and  C5_6 
REMARK       I    between atoms: N1_5  and  C13_16 
REMARK    5  A    between atoms: C5_6  and  C6_7 
REMARK    6  A    between atoms: C11_12  and  S1_13 
REMARK    7  A    between atoms: C12_14  and  O1_15 
REMARK       I    between atoms: C13_16  and  N2_18 
REMARK    8  A    between atoms: N2_18  and  C14_19 
ROOT
HETATM    1  N1  UNL     1      23.444   0.375  53.183  1.00  0.00    -0.330 N 
HETATM    2  C13 UNL     1      24.847   0.308  53.413  1.00  0.00     0.323 C 
HETATM    3  O2  UNL     1      25.786   1.175  53.358  1.00  0.00    -0.247 OA
HETATM    4  N2  UNL     1      25.533  -0.872  53.791  1.00  0.00    -0.309 N 
HETATM    5  H19 UNL     1      25.015  -1.789  53.942  1.00  0.00     0.170 HD
ENDROOT
BRANCH   1   6
HETATM    6  C4  UNL     1      22.394  -0.652  53.179  1.00  0.00     0.128 C 
BRANCH   6   7
HETATM    7  C3  UNL     1      21.210  -0.224  53.967  1.00  0.00     0.020 C 
BRANCH   7   8
HETATM    8  C2  UNL     1      19.866  -0.579  53.449  1.00  0.00    -0.003 C 
HETATM    9  C1  UNL     1      19.455   0.098  52.182  1.00  0.00     0.005 C 
ENDBRANCH   7   8
ENDBRANCH   6   7
ENDBRANCH   1   6
BRANCH   1  10
HETATM   10  C5  UNL     1      22.840   1.663  52.913  1.00  0.00     0.169 C 
BRANCH  10  11
HETATM   11  C6  UNL     1      23.166   2.238  51.591  1.00  0.00    -0.005 A 
HETATM   12  C7  UNL     1      22.353   1.728  50.567  1.00  0.00     0.018 A 
HETATM   13  C8  UNL     1      22.435   2.095  49.242  1.00  0.00    -0.060 A 
HETATM   14  C9  UNL     1      21.567   1.546  48.171  1.00  0.00     0.048 C 
HETATM   15  C10 UNL     1      23.369   3.028  48.850  1.00  0.00     0.027 A 
HETATM   16  C11 UNL     1      24.182   3.546  49.834  1.00  0.00     0.032 A 
HETATM   17  C12 UNL     1      24.076   3.158  51.149  1.00  0.00     0.090 A 
BRANCH  16  18
HETATM   18  S1  UNL     1      25.441   4.764  49.481  1.00  0.00    -0.140 SA
HETATM   19  H17 UNL     1      25.931   4.703  48.186  1.00  0.00     0.107 HD
ENDBRANCH  16  18
BRANCH  17  20
HETATM   20  O1  UNL     1      24.891   3.675  52.139  1.00  0.00    -0.359 OA
HETATM   21  H18 UNL     1      25.498   2.984  52.599  1.00  0.00     0.217 HD
ENDBRANCH  17  20
ENDBRANCH  10  11
ENDBRANCH   1  10
BRANCH   4  22
HETATM   22  C14 UNL     1      26.927  -0.612  53.940  1.00  0.00     0.036 A 
HETATM   23  C15 UNL     1      27.680  -1.401  53.063  1.00  0.00     0.029 A 
HETATM   24  C16 UNL     1      29.057  -1.310  53.038  1.00  0.00     0.002 A 
HETATM   25  C17 UNL     1      29.645  -0.417  53.907  1.00  0.00     0.000 A 
HETATM   26  C18 UNL     1      28.927   0.381  54.790  1.00  0.00     0.002 A 
HETATM   27  C19 UNL     1      27.551   0.270  54.794  1.00  0.00     0.029 A 
ENDBRANCH   4  22
TORSDOF 8
ENDMDL
MODEL 3
REMARK VINA RESULT:      -7.7      2.346      5.845
REMARK  8 active torsions:
REMARK  status: ('A' for Active; 'I' for Inactive)
REMARK    1  A    between atoms: C2_2  and  C3_3 
REMARK    2  A    between atoms: C3_3  and  C4_4 
REMARK    3  A    between atoms: C4_4  and  N1_5 
REMARK    4  A    between atoms: N1_5  and  C5_6 
REMARK       I    between atoms: N1_5  and  C13_16 
REMARK    5  A    between atoms: C5_6  and  C6_7 
REMARK    6  A    between atoms: C11_12  and  S1_13 
REMARK    7  A    between atoms: C12_14  and  O1_15 
REMARK       I    between atoms: C13_16  and  N2_18 
REMARK    8  A    between atoms: N2_18  and  C14_19 
ROOT
HETATM    1  N1  UNL     1      24.315   1.737  51.925  1.00  0.00    -0.330 N 
HETATM    2  C13 UNL     1      25.602   1.211  52.234  1.00  0.00     0.323 C 
HETATM    3  O2  UNL     1      26.651   0.995  51.533  1.00  0.00    -0.247 OA
HETATM    4  N2  UNL     1      25.996   0.786  53.526  1.00  0.00    -0.309 N 
HETATM    5  H19 UNL     1      25.335   0.856  54.357  1.00  0.00     0.170 HD
ENDROOT
BRANCH   1   6
HETATM    6  C4  UNL     1      23.100   1.906  52.731  1.00  0.00     0.128 C 
BRANCH   6   7
HETATM    7  C3  UNL     1      22.238   0.697  52.678  1.00  0.00     0.020 C 
BRANCH   7   8
HETATM    8  C2  UNL     1      22.536  -0.410  53.619  1.00  0.00    -0.003 C 
HETATM    9  C1  UNL     1      21.587  -0.568  54.763  1.00  0.00     0.005 C 
ENDBRANCH   7   8
ENDBRANCH   6   7
ENDBRANCH   1   6
BRANCH   1  10
HETATM   10  C5  UNL     1      24.069   2.245  50.592  1.00  0.00     0.169 C 
BRANCH  10  11
HETATM   11  C6  UNL     1      24.543   3.624  50.355  1.00  0.00    -0.005 A 
HETATM   12  C7  UNL     1      25.767   3.663  49.671  1.00  0.00     0.018 A 
HETATM   13  C8  UNL     1      26.432   4.815  49.313  1.00  0.00    -0.060 A 
HETATM   14  C9  UNL     1      27.727   4.839  48.590  1.00  0.00     0.048 C 
HETATM   15  C10 UNL     1      25.890   6.041  49.631  1.00  0.00     0.027 A 
HETATM   16  C11 UNL     1      24.687   6.034  50.303  1.00  0.00     0.032 A 
HETATM   17  C12 UNL     1      24.048   4.866  50.647  1.00  0.00     0.090 A 
BRANCH  16  18
HETATM   18  S1  UNL     1      23.860   7.543  50.783  1.00  0.00    -0.140 SA
HETATM   19  H17 UNL     1      22.867   7.941  49.904  1.00  0.00     0.107 HD
ENDBRANCH  16  18
BRANCH  17  20
HETATM   20  O1  UNL     1      22.842   4.855  51.322  1.00  0.00    -0.359 OA
HETATM   21  H18 UNL     1      22.882   4.444  52.264  1.00  0.00     0.217 HD
ENDBRANCH  17  20
ENDBRANCH  10  11
ENDBRANCH   1  10
BRANCH   4  22
HETATM   22  C14 UNL     1      27.339   0.308  53.505  1.00  0.00     0.036 A 
HETATM   23  C15 UNL     1      27.382  -1.051  53.174  1.00  0.00     0.029 A 
HETATM   24  C16 UNL     1      28.587  -1.720  53.096  1.00  0.00     0.002 A 
HETATM   25  C17 UNL     1      29.728  -0.993  53.357  1.00  0.00     0.000 A 
HETATM   26  C18 UNL     1      29.721   0.356  53.688  1.00  0.00     0.002 A 
HETATM   27  C19 UNL     1      28.502   1.000  53.759  1.00  0.00     0.029 A 
ENDBRANCH   4  22
TORSDOF 8
ENDMDL
MODEL 4
REMARK VINA RESULT:      -7.3      1.660      2.545
REMARK  8 active torsions:
REMARK  status: ('A' for Active; 'I' for Inactive)
REMARK    1  A    between atoms: C2_2  and  C3_3 
REMARK    2  A    between atoms: C3_3  and  C4_4 
REMARK    3  A    between atoms: C4_4  and  N1_5 
REMARK    4  A    between atoms: N1_5  and  C5_6 
REMARK       I    between atoms: N1_5  and  C13_16 
REMARK    5  A    between atoms: C5_6  and  C6_7 
REMARK    6  A    between atoms: C11_12  and  S1_13 
REMARK    7  A    between atoms: C12_14  and  O1_15 
REMARK       I    between atoms: C13_16  and  N2_18 
REMARK    8  A    between atoms: N2_18  and  C14_19 
ROOT
HETATM    1  N1  UNL     1      23.121   3.597  50.985  1.00  0.00    -0.330 N 
HETATM    2  C13 UNL     1      24.286   4.207  50.438  1.00  0.00     0.323 C 
HETATM    3  O2  UNL     1      25.333   4.722  50.963  1.00  0.00    -0.247 OA
HETATM    4  N2  UNL     1      24.520   4.368  49.051  1.00  0.00    -0.309 N 
HETATM    5  H19 UNL     1      23.823   4.017  48.327  1.00  0.00     0.170 HD
ENDROOT
BRANCH   1   6
HETATM    6  C4  UNL     1      21.895   3.080  50.364  1.00  0.00     0.128 C 
BRANCH   6   7
HETATM    7  C3  UNL     1      22.174   1.894  49.514  1.00  0.00     0.020 C 
BRANCH   7   8
HETATM    8  C2  UNL     1      21.252   0.736  49.613  1.00  0.00    -0.003 C 
HETATM    9  C1  UNL     1      20.134   0.874  50.595  1.00  0.00     0.005 C 
ENDBRANCH   7   8
ENDBRANCH   6   7
ENDBRANCH   1   6
BRANCH   1  10
HETATM   10  C5  UNL     1      23.048   3.386  52.415  1.00  0.00     0.169 C 
BRANCH  10  11
HETATM   11  C6  UNL     1      23.695   2.147  52.894  1.00  0.00    -0.005 A 
HETATM   12  C7  UNL     1      22.786   1.088  53.040  1.00  0.00     0.018 A 
HETATM   13  C8  UNL     1      23.119  -0.181  53.462  1.00  0.00    -0.060 A 
HETATM   14  C9  UNL     1      22.146  -1.291  53.611  1.00  0.00     0.048 C 
HETATM   15  C10 UNL     1      24.429  -0.473  53.775  1.00  0.00     0.027 A 
HETATM   16  C11 UNL     1      25.343   0.549  53.642  1.00  0.00     0.032 A 
HETATM   17  C12 UNL     1      24.979   1.805  53.218  1.00  0.00     0.090 A 
BRANCH  16  18
HETATM   18  S1  UNL     1      27.077   0.324  54.009  1.00  0.00    -0.140 SA
HETATM   19  H17 UNL     1      27.674  -0.697  53.288  1.00  0.00     0.107 HD
ENDBRANCH  16  18
BRANCH  17  20
HETATM   20  O1  UNL     1      25.894   2.832  53.084  1.00  0.00    -0.359 OA
HETATM   21  H18 UNL     1      26.186   3.023  52.117  1.00  0.00     0.217 HD
ENDBRANCH  17  20
ENDBRANCH  10  11
ENDBRANCH   1  10
BRANCH   4  22
HETATM   22  C14 UNL     1      25.770   5.017  48.829  1.00  0.00     0.036 A 
HETATM   23  C15 UNL     1      25.586   6.373  48.539  1.00  0.00     0.029 A 
HETATM   24  C16 UNL     1      26.668   7.194  48.289  1.00  0.00     0.002 A 
HETATM   25  C17 UNL     1      27.919   6.619  48.339  1.00  0.00     0.000 A 
HETATM   26  C18 UNL     1      28.136   5.276  48.624  1.00  0.00     0.002 A 
HETATM   27  C19 UNL     1      27.037   4.479  48.869  1.00  0.00     0.029 A 
ENDBRANCH   4  22
TORSDOF 8
ENDMDL
MODEL 5
REMARK VINA RESULT:      -7.2      2.588      6.159
REMARK  8 active torsions:
REMARK  status: ('A' for Active; 'I' for Inactive)
REMARK    1  A    between atoms: C2_2  and  C3_3 
REMARK    2  A    between atoms: C3_3  and  C4_4 
REMARK    3  A    between atoms: C4_4  and  N1_5 
REMARK    4  A    between atoms: N1_5  and  C5_6 
REMARK       I    between atoms: N1_5  and  C13_16 
REMARK    5  A    between atoms: C5_6  and  C6_7 
REMARK    6  A    between atoms: C11_12  and  S1_13 
REMARK    7  A    between atoms: C12_14  and  O1_15 
REMARK       I    between atoms: C13_16  and  N2_18 
REMARK    8  A    between atoms: N2_18  and  C14_19 
ROOT
HETATM    1  N1  UNL     1      24.876   3.215  50.839  1.00  0.00    -0.330 N 
HETATM    2  C13 UNL     1      25.980   2.648  51.539  1.00  0.00     0.323 C 
HETATM    3  O2  UNL     1      27.161   2.308  51.183  1.00  0.00    -0.247 OA
HETATM    4  N2  UNL     1      25.964   2.325  52.918  1.00  0.00    -0.309 N 
HETATM    5  H19 UNL     1      25.106   2.510  53.519  1.00  0.00     0.170 HD
ENDROOT
BRANCH   1   6
HETATM    6  C4  UNL     1      23.503   3.528  51.253  1.00  0.00     0.128 C 
BRANCH   6   7
HETATM    7  C3  UNL     1      22.748   2.299  51.610  1.00  0.00     0.020 C 
BRANCH   7   8
HETATM    8  C2  UNL     1      22.206   1.471  50.504  1.00  0.00    -0.003 C 
HETATM    9  C1  UNL     1      21.246   0.397  50.903  1.00  0.00     0.005 C 
ENDBRANCH   7   8
ENDBRANCH   6   7
ENDBRANCH   1   6
BRANCH   1  10
HETATM   10  C5  UNL     1      25.052   3.608  49.457  1.00  0.00     0.169 C 
BRANCH  10  11
HETATM   11  C6  UNL     1      25.768   4.886  49.261  1.00  0.00    -0.005 A 
HETATM   12  C7  UNL     1      27.081   4.701  48.803  1.00  0.00     0.018 A 
HETATM   13  C8  UNL     1      27.968   5.719  48.529  1.00  0.00    -0.060 A 
HETATM   14  C9  UNL     1      29.355   5.507  48.045  1.00  0.00     0.048 C 
HETATM   15  C10 UNL     1      27.578   7.029  48.703  1.00  0.00     0.027 A 
HETATM   16  C11 UNL     1      26.293   7.240  49.153  1.00  0.00     0.032 A 
HETATM   17  C12 UNL     1      25.431   6.202  49.418  1.00  0.00     0.090 A 
BRANCH  16  18
HETATM   18  S1  UNL     1      25.642   8.881  49.428  1.00  0.00    -0.140 SA
HETATM   19  H17 UNL     1      26.411   9.889  48.867  1.00  0.00     0.107 HD
ENDBRANCH  16  18
BRANCH  17  20
HETATM   20  O1  UNL     1      24.142   6.411  49.870  1.00  0.00    -0.359 OA
HETATM   21  H18 UNL     1      23.474   5.670  49.619  1.00  0.00     0.217 HD
ENDBRANCH  17  20
ENDBRANCH  10  11
ENDBRANCH   1  10
BRANCH   4  22
HETATM   22  C14 UNL     1      27.217   1.772  53.314  1.00  0.00     0.036 A 
HETATM   23  C15 UNL     1      27.202   0.376  53.214  1.00  0.00     0.029 A 
HETATM   24  C16 UNL     1      28.316  -0.366  53.550  1.00  0.00     0.002 A 
HETATM   25  C17 UNL     1      29.427   0.326  53.981  1.00  0.00     0.000 A 
HETATM   26  C18 UNL     1      29.475   1.710  54.092  1.00  0.00     0.002 A 
HETATM   27  C19 UNL     1      28.347   2.428  53.750  1.00  0.00     0.029 A 
ENDBRANCH   4  22
TORSDOF 8
ENDMDL
MODEL 6
REMARK VINA RESULT:      -7.2      2.096      5.820
REMARK  8 active torsions:
REMARK  status: ('A' for Active; 'I' for Inactive)
REMARK    1  A    between atoms: C2_2  and  C3_3 
REMARK    2  A    between atoms: C3_3  and  C4_4 
REMARK    3  A    between atoms: C4_4  and  N1_5 
REMARK    4  A    between atoms: N1_5  and  C5_6 
REMARK       I    between atoms: N1_5  and  C13_16 
REMARK    5  A    between atoms: C5_6  and  C6_7 
REMARK    6  A    between atoms: C11_12  and  S1_13 
REMARK    7  A    between atoms: C12_14  and  O1_15 
REMARK       I    between atoms: C13_16  and  N2_18 
REMARK    8  A    between atoms: N2_18  and  C14_19 
ROOT
HETATM    1  N1  UNL     1      24.205   1.827  51.935  1.00  0.00    -0.330 N 
HETATM    2  C13 UNL     1      25.463   1.234  52.240  1.00  0.00     0.323 C 
HETATM    3  O2  UNL     1      26.482   0.929  51.529  1.00  0.00    -0.247 OA
HETATM    4  N2  UNL     1      25.857   0.832  53.539  1.00  0.00    -0.309 N 
HETATM    5  H19 UNL     1      25.218   0.972  54.379  1.00  0.00     0.170 HD
ENDROOT
BRANCH   1   6
HETATM    6  C4  UNL     1      23.018   2.099  52.756  1.00  0.00     0.128 C 
BRANCH   6   7
HETATM    7  C3  UNL     1      22.128   0.913  52.837  1.00  0.00     0.020 C 
BRANCH   7   8
HETATM    8  C2  UNL     1      22.304  -0.010  53.985  1.00  0.00    -0.003 C 
HETATM    9  C1  UNL     1      21.604  -1.326  53.878  1.00  0.00     0.005 C 
ENDBRANCH   7   8
ENDBRANCH   6   7
ENDBRANCH   1   6
BRANCH   1  10
HETATM   10  C5  UNL     1      23.963   2.301  50.589  1.00  0.00     0.169 C 
BRANCH  10  11
HETATM   11  C6  UNL     1      24.661   3.555  50.236  1.00  0.00    -0.005 A 
HETATM   12  C7  UNL     1      23.944   4.697  50.622  1.00  0.00     0.018 A 
HETATM   13  C8  UNL     1      24.365   5.994  50.425  1.00  0.00    -0.060 A 
HETATM   14  C9  UNL     1      23.594   7.192  50.839  1.00  0.00     0.048 C 
HETATM   15  C10 UNL     1      25.573   6.231  49.806  1.00  0.00     0.027 A 
HETATM   16  C11 UNL     1      26.299   5.127  49.415  1.00  0.00     0.032 A 
HETATM   17  C12 UNL     1      25.851   3.844  49.626  1.00  0.00     0.090 A 
BRANCH  16  18
HETATM   18  S1  UNL     1      27.883   5.274  48.601  1.00  0.00    -0.140 SA
HETATM   19  H17 UNL     1      28.924   5.597  49.456  1.00  0.00     0.107 HD
ENDBRANCH  16  18
BRANCH  17  20
HETATM   20  O1  UNL     1      26.576   2.736  49.235  1.00  0.00    -0.359 OA
HETATM   21  H18 UNL     1      27.097   2.274  49.992  1.00  0.00     0.217 HD
ENDBRANCH  17  20
ENDBRANCH  10  11
ENDBRANCH   1  10
BRANCH   4  22
HETATM   22  C14 UNL     1      27.167   0.272  53.512  1.00  0.00     0.036 A 
HETATM   23  C15 UNL     1      28.123   1.214  53.909  1.00  0.00     0.029 A 
HETATM   24  C16 UNL     1      29.462   0.884  53.956  1.00  0.00     0.002 A 
HETATM   25  C17 UNL     1      29.806  -0.402  53.596  1.00  0.00     0.000 A 
HETATM   26  C18 UNL     1      28.883  -1.360  53.197  1.00  0.00     0.002 A 
HETATM   27  C19 UNL     1      27.551  -1.003  53.159  1.00  0.00     0.029 A 
ENDBRANCH   4  22
TORSDOF 8
ENDMDL
MODEL 7
REMARK VINA RESULT:      -7.1      2.652      6.541
REMARK  8 active torsions:
REMARK  status: ('A' for Active; 'I' for Inactive)
REMARK    1  A    between atoms: C2_2  and  C3_3 
REMARK    2  A    between atoms: C3_3  and  C4_4 
REMARK    3  A    between atoms: C4_4  and  N1_5 
REMARK    4  A    between atoms: N1_5  and  C5_6 
REMARK       I    between atoms: N1_5  and  C13_16 
REMARK    5  A    between atoms: C5_6  and  C6_7 
REMARK    6  A    between atoms: C11_12  and  S1_13 
REMARK    7  A    between atoms: C12_14  and  O1_15 
REMARK       I    between atoms: C13_16  and  N2_18 
REMARK    8  A    between atoms: N2_18  and  C14_19 
ROOT
HETATM    1  N1  UNL     1      24.822   3.468  51.184  1.00  0.00    -0.330 N 
HETATM    2  C13 UNL     1      25.823   2.601  51.709  1.00  0.00     0.323 C 
HETATM    3  O2  UNL     1      26.646   1.784  51.168  1.00  0.00    -0.247 OA
HETATM    4  N2  UNL     1      26.121   2.476  53.088  1.00  0.00    -0.309 N 
HETATM    5  H19 UNL     1      25.607   3.054  53.820  1.00  0.00     0.170 HD
ENDROOT
BRANCH   1   6
HETATM    6  C4  UNL     1      23.837   4.342  51.832  1.00  0.00     0.128 C 
BRANCH   6   7
HETATM    7  C3  UNL     1      22.536   3.650  52.022  1.00  0.00     0.020 C 
BRANCH   7   8
HETATM    8  C2  UNL     1      21.294   4.429  51.794  1.00  0.00    -0.003 C 
HETATM    9  C1  UNL     1      21.376   5.496  50.751  1.00  0.00     0.005 C 
ENDBRANCH   7   8
ENDBRANCH   6   7
ENDBRANCH   1   6
BRANCH   1  10
HETATM   10  C5  UNL     1      24.689   3.593  49.748  1.00  0.00     0.169 C 
BRANCH  10  11
HETATM   11  C6  UNL     1      25.362   4.771  49.162  1.00  0.00    -0.005 A 
HETATM   12  C7  UNL     1      24.454   5.736  48.702  1.00  0.00     0.018 A 
HETATM   13  C8  UNL     1      24.807   6.934  48.120  1.00  0.00    -0.060 A 
HETATM   14  C9  UNL     1      23.833   7.945  47.639  1.00  0.00     0.048 C 
HETATM   15  C10 UNL     1      26.139   7.246  47.958  1.00  0.00     0.027 A 
HETATM   16  C11 UNL     1      27.054   6.316  48.400  1.00  0.00     0.032 A 
HETATM   17  C12 UNL     1      26.670   5.128  48.977  1.00  0.00     0.090 A 
BRANCH  16  18
HETATM   18  S1  UNL     1      28.816   6.577  48.258  1.00  0.00    -0.140 SA
HETATM   19  H17 UNL     1      29.571   5.761  49.085  1.00  0.00     0.107 HD
ENDBRANCH  16  18
BRANCH  17  20
HETATM   20  O1  UNL     1      27.585   4.193  49.420  1.00  0.00    -0.359 OA
HETATM   21  H18 UNL     1      27.370   3.783  50.338  1.00  0.00     0.217 HD
ENDBRANCH  17  20
ENDBRANCH  10  11
ENDBRANCH   1  10
BRANCH   4  22
HETATM   22  C14 UNL     1      27.165   1.527  53.289  1.00  0.00     0.036 A 
HETATM   23  C15 UNL     1      28.356   2.164  53.657  1.00  0.00     0.029 A 
HETATM   24  C16 UNL     1      29.500   1.431  53.901  1.00  0.00     0.002 A 
HETATM   25  C17 UNL     1      29.412   0.062  53.766  1.00  0.00     0.000 A 
HETATM   26  C18 UNL     1      28.246  -0.600  53.403  1.00  0.00     0.002 A 
HETATM   27  C19 UNL     1      27.117   0.156  53.164  1.00  0.00     0.029 A 
ENDBRANCH   4  22
TORSDOF 8
ENDMDL
MODEL 8
REMARK VINA RESULT:      -7.1      2.948      6.201
REMARK  8 active torsions:
REMARK  status: ('A' for Active; 'I' for Inactive)
REMARK    1  A    between atoms: C2_2  and  C3_3 
REMARK    2  A    between atoms: C3_3  and  C4_4 
REMARK    3  A    between atoms: C4_4  and  N1_5 
REMARK    4  A    between atoms: N1_5  and  C5_6 
REMARK       I    between atoms: N1_5  and  C13_16 
REMARK    5  A    between atoms: C5_6  and  C6_7 
REMARK    6  A    between atoms: C11_12  and  S1_13 
REMARK    7  A    between atoms: C12_14  and  O1_15 
REMARK       I    between atoms: C13_16  and  N2_18 
REMARK    8  A    between atoms: N2_18  and  C14_19 
ROOT
HETATM    1  N1  UNL     1      24.028   2.671  51.617  1.00  0.00    -0.330 N 
HETATM    2  C13 UNL     1      25.203   2.234  52.291  1.00  0.00     0.323 C 
HETATM    3  O2  UNL     1      25.507   2.105  53.527  1.00  0.00    -0.247 OA
HETATM    4  N2  UNL     1      26.384   1.810  51.634  1.00  0.00    -0.309 N 
HETATM    5  H19 UNL     1      26.446   1.782  50.572  1.00  0.00     0.170 HD
ENDROOT
BRANCH   1   6
HETATM    6  C4  UNL     1      23.727   2.882  50.195  1.00  0.00     0.128 C 
BRANCH   6   7
HETATM    7  C3  UNL     1      23.617   4.327  49.870  1.00  0.00     0.020 C 
BRANCH   7   8
HETATM    8  C2  UNL     1      24.668   4.928  49.012  1.00  0.00    -0.003 C 
HETATM    9  C1  UNL     1      26.076   4.731  49.470  1.00  0.00     0.005 C 
ENDBRANCH   7   8
ENDBRANCH   6   7
ENDBRANCH   1   6
BRANCH   1  10
HETATM   10  C5  UNL     1      22.845   2.970  52.396  1.00  0.00     0.169 C 
BRANCH  10  11
HETATM   11  C6  UNL     1      21.853   1.876  52.465  1.00  0.00    -0.005 A 
HETATM   12  C7  UNL     1      22.187   0.907  53.422  1.00  0.00     0.018 A 
HETATM   13  C8  UNL     1      21.436  -0.214  53.701  1.00  0.00    -0.060 A 
HETATM   14  C9  UNL     1      21.803  -1.230  54.718  1.00  0.00     0.048 C 
HETATM   15  C10 UNL     1      20.264  -0.438  53.012  1.00  0.00     0.027 A 
HETATM   16  C11 UNL     1      19.911   0.498  52.064  1.00  0.00     0.032 A 
HETATM   17  C12 UNL     1      20.683   1.607  51.809  1.00  0.00     0.090 A 
BRANCH  16  18
HETATM   18  S1  UNL     1      18.422   0.346  51.089  1.00  0.00    -0.140 SA
HETATM   19  H17 UNL     1      17.768   1.548  50.876  1.00  0.00     0.107 HD
ENDBRANCH  16  18
BRANCH  17  20
HETATM   20  O1  UNL     1      20.333   2.547  50.858  1.00  0.00    -0.359 OA
HETATM   21  H18 UNL     1      19.696   3.281  51.195  1.00  0.00     0.217 HD
ENDBRANCH  17  20
ENDBRANCH  10  11
ENDBRANCH   1  10
BRANCH   4  22
HETATM   22  C14 UNL     1      27.378   1.440  52.585  1.00  0.00     0.036 A 
HETATM   23  C15 UNL     1      27.425   0.051  52.746  1.00  0.00     0.029 A 
HETATM   24  C16 UNL     1      28.321  -0.528  53.624  1.00  0.00     0.002 A 
HETATM   25  C17 UNL     1      29.153   0.319  54.323  1.00  0.00     0.000 A 
HETATM   26  C18 UNL     1      29.132   1.702  54.187  1.00  0.00     0.002 A 
HETATM   27  C19 UNL     1      28.227   2.253  53.303  1.00  0.00     0.029 A 
ENDBRANCH   4  22
TORSDOF 8
ENDMDL
MODEL 9
REMARK VINA RESULT:      -6.9      2.817      6.145
REMARK  8 active torsions:
REMARK  status: ('A' for Active; 'I' for Inactive)
REMARK    1  A    between atoms: C2_2  and  C3_3 
REMARK    2  A    between atoms: C3_3  and  C4_4 
REMARK    3  A    between atoms: C4_4  and  N1_5 
REMARK    4  A    between atoms: N1_5  and  C5_6 
REMARK       I    between atoms: N1_5  and  C13_16 
REMARK    5  A    between atoms: C5_6  and  C6_7 
REMARK    6  A    between atoms: C11_12  and  S1_13 
REMARK    7  A    between atoms: C12_14  and  O1_15 
REMARK       I    between atoms: C13_16  and  N2_18 
REMARK    8  A    between atoms: N2_18  and  C14_19 
ROOT
HETATM    1  N1  UNL     1      23.548   1.417  52.753  1.00  0.00    -0.330 N 
HETATM    2  C13 UNL     1      24.869   1.048  53.136  1.00  0.00     0.323 C 
HETATM    3  O2  UNL     1      25.938   1.718  53.351  1.00  0.00    -0.247 OA
HETATM    4  N2  UNL     1      25.282  -0.285  53.377  1.00  0.00    -0.309 N 
HETATM    5  H19 UNL     1      24.601  -1.098  53.298  1.00  0.00     0.170 HD
ENDROOT
BRANCH   1   6
HETATM    6  C4  UNL     1      22.354   0.622  52.439  1.00  0.00     0.128 C 
BRANCH   6   7
HETATM    7  C3  UNL     1      21.360   0.672  53.542  1.00  0.00     0.020 C 
BRANCH   7   8
HETATM    8  C2  UNL     1      21.015  -0.600  54.224  1.00  0.00    -0.003 C 
HETATM    9  C1  UNL     1      22.147  -1.311  54.892  1.00  0.00     0.005 C 
ENDBRANCH   7   8
ENDBRANCH   6   7
ENDBRANCH   1   6
BRANCH   1  10
HETATM   10  C5  UNL     1      23.217   2.822  52.647  1.00  0.00     0.169 C 
BRANCH  10  11
HETATM   11  C6  UNL     1      23.262   3.369  51.274  1.00  0.00    -0.005 A 
HETATM   12  C7  UNL     1      24.563   3.702  50.870  1.00  0.00     0.018 A 
HETATM   13  C8  UNL     1      24.895   4.223  49.638  1.00  0.00    -0.060 A 
HETATM   14  C9  UNL     1      26.277   4.571  49.226  1.00  0.00     0.048 C 
HETATM   15  C10 UNL     1      23.907   4.449  48.705  1.00  0.00     0.027 A 
HETATM   16  C11 UNL     1      22.618   4.131  49.075  1.00  0.00     0.032 A 
HETATM   17  C12 UNL     1      22.319   3.613  50.314  1.00  0.00     0.090 A 
BRANCH  16  18
HETATM   18  S1  UNL     1      21.230   4.368  47.975  1.00  0.00    -0.140 SA
HETATM   19  H17 UNL     1      20.061   3.765  48.412  1.00  0.00     0.107 HD
ENDBRANCH  16  18
BRANCH  17  20
HETATM   20  O1  UNL     1      21.028   3.294  50.688  1.00  0.00    -0.359 OA
HETATM   21  H18 UNL     1      20.301   3.605  50.030  1.00  0.00     0.217 HD
ENDBRANCH  17  20
ENDBRANCH  10  11
ENDBRANCH   1  10
BRANCH   4  22
HETATM   22  C14 UNL     1      26.661  -0.321  53.737  1.00  0.00     0.036 A 
HETATM   23  C15 UNL     1      27.392  -1.106  52.839  1.00  0.00     0.029 A 
HETATM   24  C16 UNL     1      28.753  -1.279  52.999  1.00  0.00     0.002 A 
HETATM   25  C17 UNL     1      29.345  -0.650  54.072  1.00  0.00     0.000 A 
HETATM   26  C18 UNL     1      28.648   0.136  54.983  1.00  0.00     0.002 A 
HETATM   27  C19 UNL     1      27.289   0.291  54.799  1.00  0.00     0.029 A 
ENDBRANCH   4  22
TORSDOF 8
ENDMDL
