MODEL 1
REMARK VINA RESULT:      -7.5      0.000      0.000
REMARK  8 active torsions:
REMARK  status: ('A' for Active; 'I' for Inactive)
REMARK    1  A    between atoms: C2_2  and  C4_4 
REMARK    2  A    between atoms: C5_5  and  C6_6 
REMARK       I    between atoms: C6_6  and  N1_8 
REMARK    3  A    between atoms: C9_11  and  C10_12 
REMARK    4  A    between atoms: C13_17  and  N4_18 
REMARK    5  A    between atoms: N4_18  and  C14_19 
REMARK    6  A    between atoms: C14_19  and  C15_20 
REMARK    7  A    between atoms: C15_20  and  O2_21 
REMARK    8  A    between atoms: C16_22  and  O3_23 
ROOT
HETATM    1  C6  UNL     1      23.988   3.181  52.795  1.00  0.00     0.243 C 
HETATM    2  O1  UNL     1      23.818   4.434  52.915  1.00  0.00    -0.268 OA
HETATM    3  N1  UNL     1      22.956   2.475  52.128  1.00  0.00    -0.342 N 
HETATM    4  C7  UNL     1      22.971   1.053  51.911  1.00  0.00     0.131 C 
HETATM    5  C8  UNL     1      21.760   0.509  51.231  1.00  0.00     0.062 C 
HETATM    6  C9  UNL     1      20.542   1.056  51.874  1.00  0.00    -0.010 C 
HETATM    7  C16 UNL     1      20.602   2.365  52.040  1.00  0.00     0.068 C 
HETATM    8  C17 UNL     1      21.788   3.150  51.604  1.00  0.00     0.191 C 
ENDROOT
BRANCH   6   9
HETATM    9  C10 UNL     1      19.441   0.175  52.211  1.00  0.00     0.036 A 
HETATM   10  C11 UNL     1      18.479   0.167  51.197  1.00  0.00     0.134 A 
HETATM   11  N2  UNL     1      17.365  -0.608  51.345  1.00  0.00    -0.253 NA
HETATM   12  C12 UNL     1      17.176  -1.359  52.437  1.00  0.00     0.234 A 
HETATM   13  N3  UNL     1      18.115  -1.333  53.396  1.00  0.00    -0.224 NA
HETATM   14  C13 UNL     1      19.235  -0.601  53.330  1.00  0.00     0.137 A 
BRANCH  14  15
HETATM   15  N4  UNL     1      20.195  -0.524  54.357  1.00  0.00    -0.372 N 
HETATM   16  H16 UNL     1      20.283   0.193  55.096  1.00  0.00     0.161 HD
BRANCH  15  17
HETATM   17  C14 UNL     1      21.152  -1.598  54.377  1.00  0.00     0.147 C 
BRANCH  17  18
HETATM   18  C15 UNL     1      22.487  -1.098  54.896  1.00  0.00     0.183 C 
BRANCH  18  19
HETATM   19  O2  UNL     1      22.988  -1.942  55.891  1.00  0.00    -0.399 OA
HETATM   20  H21 UNL     1      22.562  -2.826  55.707  1.00  0.00     0.209 HD
ENDBRANCH  18  19
ENDBRANCH  17  18
ENDBRANCH  15  17
ENDBRANCH  14  15
ENDBRANCH   6   9
BRANCH   7  21
HETATM   21  O3  UNL     1      19.536   3.023  52.633  1.00  0.00    -0.363 OA
HETATM   22  H22 UNL     1      19.090   2.588  53.450  1.00  0.00     0.217 HD
ENDBRANCH   7  21
BRANCH   1  23
HETATM   23  C5  UNL     1      25.196   2.577  53.333  1.00  0.00     0.070 C 
HETATM   24  C4  UNL     1      26.314   1.910  53.013  1.00  0.00    -0.017 C 
BRANCH  24  25
HETATM   25  C2  UNL     1      27.462   1.369  53.781  1.00  0.00    -0.000 C 
HETATM   26  C1  UNL     1      28.613   2.338  53.634  1.00  0.00     0.013 C 
HETATM   27  C3  UNL     1      27.834  -0.025  53.318  1.00  0.00     0.013 C 
ENDBRANCH  24  25
ENDBRANCH   1  23
TORSDOF 8
ENDMDL
MODEL 2
REMARK VINA RESULT:      -7.1      4.331      6.867
REMARK  8 active torsions:
REMARK  status: ('A' for Active; 'I' for Inactive)
REMARK    1  A    between atoms: C2_2  and  C4_4 
REMARK    2  A    between atoms: C5_5  and  C6_6 
REMARK       I    between atoms: C6_6  and  N1_8 
REMARK    3  A    between atoms: C9_11  and  C10_12 
REMARK    4  A    between atoms: C13_17  and  N4_18 
REMARK    5  A    between atoms: N4_18  and  C14_19 
REMARK    6  A    between atoms: C14_19  and  C15_20 
REMARK    7  A    between atoms: C15_20  and  O2_21 
REMARK    8  A    between atoms: C16_22  and  O3_23 
ROOT
HETATM    1  C6  UNL     1      25.314   5.446  49.903  1.00  0.00     0.243 C 
HETATM    2  O1  UNL     1      24.308   6.111  50.304  1.00  0.00    -0.268 OA
HETATM    3  N1  UNL     1      25.418   4.121  50.394  1.00  0.00    -0.342 N 
HETATM    4  C7  UNL     1      26.492   3.226  50.059  1.00  0.00     0.131 C 
HETATM    5  C8  UNL     1      26.430   1.893  50.726  1.00  0.00     0.062 C 
HETATM    6  C9  UNL     1      26.162   2.074  52.172  1.00  0.00    -0.010 C 
HETATM    7  C16 UNL     1      25.163   2.908  52.400  1.00  0.00     0.068 C 
HETATM    8  C17 UNL     1      24.425   3.560  51.286  1.00  0.00     0.191 C 
ENDROOT
BRANCH   6   9
HETATM    9  C10 UNL     1      26.939   1.340  53.152  1.00  0.00     0.036 A 
HETATM   10  C11 UNL     1      28.097   2.042  53.498  1.00  0.00     0.134 A 
HETATM   11  N2  UNL     1      28.954   1.499  54.411  1.00  0.00    -0.253 NA
HETATM   12  C12 UNL     1      28.709   0.313  54.981  1.00  0.00     0.234 A 
HETATM   13  N3  UNL     1      27.590  -0.341  54.630  1.00  0.00    -0.224 NA
HETATM   14  C13 UNL     1      26.698   0.120  53.744  1.00  0.00     0.137 A 
BRANCH  14  15
HETATM   15  N4  UNL     1      25.553  -0.586  53.328  1.00  0.00    -0.372 N 
HETATM   16  H16 UNL     1      25.447  -1.202  52.505  1.00  0.00     0.161 HD
BRANCH  15  17
HETATM   17  C14 UNL     1      24.404  -0.436  54.181  1.00  0.00     0.147 C 
BRANCH  17  18
HETATM   18  C15 UNL     1      24.538  -1.329  55.400  1.00  0.00     0.183 C 
BRANCH  18  19
HETATM   19  O2  UNL     1      23.284  -1.727  55.873  1.00  0.00    -0.399 OA
HETATM   20  H21 UNL     1      22.715  -0.911  55.788  1.00  0.00     0.209 HD
ENDBRANCH  18  19
ENDBRANCH  17  18
ENDBRANCH  15  17
ENDBRANCH  14  15
ENDBRANCH   6   9
BRANCH   7  21
HETATM   21  O3  UNL     1      24.794   3.181  53.708  1.00  0.00    -0.363 OA
HETATM   22  H22 UNL     1      24.418   2.414  54.278  1.00  0.00     0.217 HD
ENDBRANCH   7  21
BRANCH   1  23
HETATM   23  C5  UNL     1      26.259   6.073  48.995  1.00  0.00     0.070 C 
HETATM   24  C4  UNL     1      27.093   7.110  48.838  1.00  0.00    -0.017 C 
BRANCH  24  25
HETATM   25  C2  UNL     1      28.005   7.562  47.759  1.00  0.00    -0.000 C 
HETATM   26  C1  UNL     1      29.116   6.544  47.637  1.00  0.00     0.013 C 
HETATM   27  C3  UNL     1      28.541   8.954  48.029  1.00  0.00     0.013 C 
ENDBRANCH  24  25
ENDBRANCH   1  23
TORSDOF 8
ENDMDL
MODEL 3
REMARK VINA RESULT:      -6.9      4.277      6.200
REMARK  8 active torsions:
REMARK  status: ('A' for Active; 'I' for Inactive)
REMARK    1  A    between atoms: C2_2  and  C4_4 
REMARK    2  A    between atoms: C5_5  and  C6_6 
REMARK       I    between atoms: C6_6  and  N1_8 
REMARK    3  A    between atoms: C9_11  and  C10_12 
REMARK    4  A    between atoms: C13_17  and  N4_18 
REMARK    5  A    between atoms: N4_18  and  C14_19 
REMARK    6  A    between atoms: C14_19  and  C15_20 
REMARK    7  A    between atoms: C15_20  and  O2_21 
REMARK    8  A    between atoms: C16_22  and  O3_23 
ROOT
HETATM    1  C6  UNL     1      25.626   6.425  49.784  1.00  0.00     0.243 C 
HETATM    2  O1  UNL     1      25.298   7.514  50.351  1.00  0.00    -0.268 OA
HETATM    3  N1  UNL     1      24.882   5.280  50.161  1.00  0.00    -0.342 N 
HETATM    4  C7  UNL     1      25.119   3.963  49.635  1.00  0.00     0.131 C 
HETATM    5  C8  UNL     1      24.250   2.893  50.205  1.00  0.00     0.062 C 
HETATM    6  C9  UNL     1      24.228   3.007  51.682  1.00  0.00    -0.010 C 
HETATM    7  C16 UNL     1      24.005   4.244  52.090  1.00  0.00     0.068 C 
HETATM    8  C17 UNL     1      23.803   5.356  51.123  1.00  0.00     0.191 C 
ENDROOT
BRANCH   6   9
HETATM    9  C10 UNL     1      24.401   1.826  52.505  1.00  0.00     0.036 A 
HETATM   10  C11 UNL     1      23.325   0.948  52.351  1.00  0.00     0.134 A 
HETATM   11  N2  UNL     1      23.316  -0.221  53.056  1.00  0.00    -0.253 NA
HETATM   12  C12 UNL     1      24.314  -0.544  53.887  1.00  0.00     0.234 A 
HETATM   13  N3  UNL     1      25.336   0.318  54.017  1.00  0.00    -0.224 NA
HETATM   14  C13 UNL     1      25.421   1.484  53.364  1.00  0.00     0.137 A 
BRANCH  14  15
HETATM   15  N4  UNL     1      26.460   2.418  53.540  1.00  0.00    -0.372 N 
HETATM   16  H16 UNL     1      26.444   3.296  54.087  1.00  0.00     0.161 HD
BRANCH  15  17
HETATM   17  C14 UNL     1      27.697   2.082  52.887  1.00  0.00     0.147 C 
BRANCH  17  18
HETATM   18  C15 UNL     1      28.871   2.422  53.787  1.00  0.00     0.183 C 
BRANCH  18  19
HETATM   19  O2  UNL     1      28.953   1.535  54.863  1.00  0.00    -0.399 OA
HETATM   20  H21 UNL     1      29.051   2.123  55.665  1.00  0.00     0.209 HD
ENDBRANCH  18  19
ENDBRANCH  17  18
ENDBRANCH  15  17
ENDBRANCH  14  15
ENDBRANCH   6   9
BRANCH   7  21
HETATM   21  O3  UNL     1      23.958   4.512  53.449  1.00  0.00    -0.363 OA
HETATM   22  H22 UNL     1      24.619   4.022  54.064  1.00  0.00     0.217 HD
ENDBRANCH   7  21
BRANCH   1  23
HETATM   23  C5  UNL     1      26.710   6.430  48.816  1.00  0.00     0.070 C 
HETATM   24  C4  UNL     1      27.849   7.041  48.461  1.00  0.00    -0.017 C 
BRANCH  24  25
HETATM   25  C2  UNL     1      28.836   6.856  47.370  1.00  0.00    -0.000 C 
HETATM   26  C1  UNL     1      29.881   5.877  47.855  1.00  0.00     0.013 C 
HETATM   27  C3  UNL     1      29.451   8.175  46.945  1.00  0.00     0.013 C 
ENDBRANCH  24  25
ENDBRANCH   1  23
TORSDOF 8
ENDMDL
MODEL 4
REMARK VINA RESULT:      -6.9      3.664      6.156
REMARK  8 active torsions:
REMARK  status: ('A' for Active; 'I' for Inactive)
REMARK    1  A    between atoms: C2_2  and  C4_4 
REMARK    2  A    between atoms: C5_5  and  C6_6 
REMARK       I    between atoms: C6_6  and  N1_8 
REMARK    3  A    between atoms: C9_11  and  C10_12 
REMARK    4  A    between atoms: C13_17  and  N4_18 
REMARK    5  A    between atoms: N4_18  and  C14_19 
REMARK    6  A    between atoms: C14_19  and  C15_20 
REMARK    7  A    between atoms: C15_20  and  O2_21 
REMARK    8  A    between atoms: C16_22  and  O3_23 
ROOT
HETATM    1  C6  UNL     1      24.848   0.505  53.129  1.00  0.00     0.243 C 
HETATM    2  O1  UNL     1      24.207  -0.494  52.675  1.00  0.00    -0.268 OA
HETATM    3  N1  UNL     1      24.173   1.749  53.085  1.00  0.00    -0.342 N 
HETATM    4  C7  UNL     1      24.745   2.987  53.543  1.00  0.00     0.131 C 
HETATM    5  C8  UNL     1      23.877   4.186  53.359  1.00  0.00     0.062 C 
HETATM    6  C9  UNL     1      23.328   4.194  51.983  1.00  0.00    -0.010 C 
HETATM    7  C16 UNL     1      22.820   3.025  51.634  1.00  0.00     0.068 C 
HETATM    8  C17 UNL     1      22.826   1.866  52.566  1.00  0.00     0.191 C 
ENDROOT
BRANCH   6   9
HETATM    9  C10 UNL     1      23.354   5.413  51.197  1.00  0.00     0.036 A 
HETATM   10  C11 UNL     1      22.092   6.012  51.163  1.00  0.00     0.134 A 
HETATM   11  N2  UNL     1      21.927   7.173  50.464  1.00  0.00    -0.253 NA
HETATM   12  C12 UNL     1      22.946   7.748  49.813  1.00  0.00     0.234 A 
HETATM   13  N3  UNL     1      24.147   7.151  49.861  1.00  0.00    -0.224 NA
HETATM   14  C13 UNL     1      24.394   6.012  50.522  1.00  0.00     0.137 A 
BRANCH  14  15
HETATM   15  N4  UNL     1      25.636   5.350  50.528  1.00  0.00    -0.372 N 
HETATM   16  H16 UNL     1      26.408   5.448  51.209  1.00  0.00     0.161 HD
BRANCH  15  17
HETATM   17  C14 UNL     1      25.828   4.408  49.458  1.00  0.00     0.147 C 
BRANCH  17  18
HETATM   18  C15 UNL     1      26.286   3.072  50.014  1.00  0.00     0.183 C 
BRANCH  18  19
HETATM   19  O2  UNL     1      27.176   3.248  51.077  1.00  0.00    -0.399 OA
HETATM   20  H21 UNL     1      27.526   4.176  50.959  1.00  0.00     0.209 HD
ENDBRANCH  18  19
ENDBRANCH  17  18
ENDBRANCH  15  17
ENDBRANCH  14  15
ENDBRANCH   6   9
BRANCH   7  21
HETATM   21  O3  UNL     1      22.270   2.875  50.370  1.00  0.00    -0.363 OA
HETATM   22  H22 UNL     1      21.402   3.380  50.155  1.00  0.00     0.217 HD
ENDBRANCH   7  21
BRANCH   1  23
HETATM   23  C5  UNL     1      26.191   0.306  53.650  1.00  0.00     0.070 C 
HETATM   24  C4  UNL     1      27.413  -0.157  53.356  1.00  0.00    -0.017 C 
BRANCH  24  25
HETATM   25  C2  UNL     1      28.696  -0.259  54.094  1.00  0.00    -0.000 C 
HETATM   26  C1  UNL     1      29.273   1.133  54.210  1.00  0.00     0.013 C 
HETATM   27  C3  UNL     1      29.656  -1.214  53.414  1.00  0.00     0.013 C 
ENDBRANCH  24  25
ENDBRANCH   1  23
TORSDOF 8
ENDMDL
MODEL 5
REMARK VINA RESULT:      -6.8      2.796      7.474
REMARK  8 active torsions:
REMARK  status: ('A' for Active; 'I' for Inactive)
REMARK    1  A    between atoms: C2_2  and  C4_4 
REMARK    2  A    between atoms: C5_5  and  C6_6 
REMARK       I    between atoms: C6_6  and  N1_8 
REMARK    3  A    between atoms: C9_11  and  C10_12 
REMARK    4  A    between atoms: C13_17  and  N4_18 
REMARK    5  A    between atoms: N4_18  and  C14_19 
REMARK    6  A    between atoms: C14_19  and  C15_20 
REMARK    7  A    between atoms: C15_20  and  O2_21 
REMARK    8  A    between atoms: C16_22  and  O3_23 
ROOT
HETATM    1  C6  UNL     1      21.894  -0.382  53.731  1.00  0.00     0.243 C 
HETATM    2  O1  UNL     1      22.620  -0.769  54.699  1.00  0.00    -0.268 OA
HETATM    3  N1  UNL     1      22.525   0.450  52.773  1.00  0.00    -0.342 N 
HETATM    4  C7  UNL     1      21.859   0.991  51.620  1.00  0.00     0.131 C 
HETATM    5  C8  UNL     1      22.700   1.882  50.769  1.00  0.00     0.062 C 
HETATM    6  C9  UNL     1      23.411   2.859  51.626  1.00  0.00    -0.010 C 
HETATM    7  C16 UNL     1      23.998   2.289  52.664  1.00  0.00     0.068 C 
HETATM    8  C17 UNL     1      23.920   0.821  52.890  1.00  0.00     0.191 C 
ENDROOT
BRANCH   6   9
HETATM    9  C10 UNL     1      23.438   4.262  51.261  1.00  0.00     0.036 A 
HETATM   10  C11 UNL     1      22.159   4.823  51.338  1.00  0.00     0.134 A 
HETATM   11  N2  UNL     1      21.993   6.141  51.025  1.00  0.00    -0.253 NA
HETATM   12  C12 UNL     1      23.024   6.906  50.649  1.00  0.00     0.234 A 
HETATM   13  N3  UNL     1      24.241   6.343  50.583  1.00  0.00    -0.224 NA
HETATM   14  C13 UNL     1      24.491   5.059  50.872  1.00  0.00     0.137 A 
BRANCH  14  15
HETATM   15  N4  UNL     1      25.753   4.448  50.749  1.00  0.00    -0.372 N 
HETATM   16  H16 UNL     1      26.414   4.190  51.501  1.00  0.00     0.161 HD
BRANCH  15  17
HETATM   17  C14 UNL     1      26.147   4.132  49.401  1.00  0.00     0.147 C 
BRANCH  17  18
HETATM   18  C15 UNL     1      27.026   5.234  48.842  1.00  0.00     0.183 C 
BRANCH  18  19
HETATM   19  O2  UNL     1      28.375   4.990  49.116  1.00  0.00    -0.399 OA
HETATM   20  H21 UNL     1      28.855   5.774  48.726  1.00  0.00     0.209 HD
ENDBRANCH  18  19
ENDBRANCH  17  18
ENDBRANCH  15  17
ENDBRANCH  14  15
ENDBRANCH   6   9
BRANCH   7  21
HETATM   21  O3  UNL     1      24.702   3.075  53.561  1.00  0.00    -0.363 OA
HETATM   22  H22 UNL     1      24.224   3.883  53.980  1.00  0.00     0.217 HD
ENDBRANCH   7  21
BRANCH   1  23
HETATM   23  C5  UNL     1      20.506  -0.810  53.673  1.00  0.00     0.070 C 
HETATM   24  C4  UNL     1      19.284  -0.482  53.231  1.00  0.00    -0.017 C 
BRANCH  24  25
HETATM   25  C2  UNL     1      17.945  -1.115  53.298  1.00  0.00    -0.000 C 
HETATM   26  C1  UNL     1      18.144  -2.586  53.587  1.00  0.00     0.013 C 
HETATM   27  C3  UNL     1      17.158  -0.892  52.022  1.00  0.00     0.013 C 
ENDBRANCH  24  25
ENDBRANCH   1  23
TORSDOF 8
ENDMDL
MODEL 6
REMARK VINA RESULT:      -6.6      4.485      8.466
REMARK  8 active torsions:
REMARK  status: ('A' for Active; 'I' for Inactive)
REMARK    1  A    between atoms: C2_2  and  C4_4 
REMARK    2  A    between atoms: C5_5  and  C6_6 
REMARK       I    between atoms: C6_6  and  N1_8 
REMARK    3  A    between atoms: C9_11  and  C10_12 
REMARK    4  A    between atoms: C13_17  and  N4_18 
REMARK    5  A    between atoms: N4_18  and  C14_19 
REMARK    6  A    between atoms: C14_19  and  C15_20 
REMARK    7  A    between atoms: C15_20  and  O2_21 
REMARK    8  A    between atoms: C16_22  and  O3_23 
ROOT
HETATM    1  C6  UNL     1      24.987   0.894  52.234  1.00  0.00     0.243 C 
HETATM    2  O1  UNL     1      26.069   0.242  52.368  1.00  0.00    -0.268 OA
HETATM    3  N1  UNL     1      24.973   1.872  51.209  1.00  0.00    -0.342 N 
HETATM    4  C7  UNL     1      23.843   2.713  50.920  1.00  0.00     0.131 C 
HETATM    5  C8  UNL     1      24.062   3.708  49.831  1.00  0.00     0.062 C 
HETATM    6  C9  UNL     1      25.351   4.406  50.049  1.00  0.00    -0.010 C 
HETATM    7  C16 UNL     1      26.341   3.570  50.308  1.00  0.00     0.068 C 
HETATM    8  C17 UNL     1      26.123   2.099  50.358  1.00  0.00     0.191 C 
ENDROOT
BRANCH   6   9
HETATM    9  C10 UNL     1      25.425   5.849  49.929  1.00  0.00     0.036 A 
HETATM   10  C11 UNL     1      24.441   6.466  50.707  1.00  0.00     0.134 A 
HETATM   11  N2  UNL     1      24.359   7.828  50.714  1.00  0.00    -0.253 NA
HETATM   12  C12 UNL     1      25.199   8.583  49.996  1.00  0.00     0.234 A 
HETATM   13  N3  UNL     1      26.134   7.966  49.257  1.00  0.00    -0.224 NA
HETATM   14  C13 UNL     1      26.283   6.636  49.193  1.00  0.00     0.137 A 
BRANCH  14  15
HETATM   15  N4  UNL     1      27.222   5.980  48.376  1.00  0.00    -0.372 N 
HETATM   16  H16 UNL     1      27.301   4.968  48.177  1.00  0.00     0.161 HD
BRANCH  15  17
HETATM   17  C14 UNL     1      28.172   6.844  47.726  1.00  0.00     0.147 C 
BRANCH  17  18
HETATM   18  C15 UNL     1      29.531   6.718  48.389  1.00  0.00     0.183 C 
BRANCH  18  19
HETATM   19  O2  UNL     1      29.641   5.511  49.085  1.00  0.00    -0.399 OA
HETATM   20  H21 UNL     1      28.700   5.193  49.183  1.00  0.00     0.209 HD
ENDBRANCH  18  19
ENDBRANCH  17  18
ENDBRANCH  15  17
ENDBRANCH  14  15
ENDBRANCH   6   9
BRANCH   7  21
HETATM   21  O3  UNL     1      27.611   4.074  50.538  1.00  0.00    -0.363 OA
HETATM   22  H22 UNL     1      28.379   3.749  49.938  1.00  0.00     0.217 HD
ENDBRANCH   7  21
BRANCH   1  23
HETATM   23  C5  UNL     1      23.870   0.598  53.115  1.00  0.00     0.070 C 
HETATM   24  C4  UNL     1      22.947  -0.321  53.430  1.00  0.00    -0.017 C 
BRANCH  24  25
HETATM   25  C2  UNL     1      21.849  -0.400  54.425  1.00  0.00    -0.000 C 
HETATM   26  C1  UNL     1      21.371  -1.834  54.470  1.00  0.00     0.013 C 
HETATM   27  C3  UNL     1      20.726   0.561  54.093  1.00  0.00     0.013 C 
ENDBRANCH  24  25
ENDBRANCH   1  23
TORSDOF 8
ENDMDL
MODEL 7
REMARK VINA RESULT:      -6.6      6.971      9.697
REMARK  8 active torsions:
REMARK  status: ('A' for Active; 'I' for Inactive)
REMARK    1  A    between atoms: C2_2  and  C4_4 
REMARK    2  A    between atoms: C5_5  and  C6_6 
REMARK       I    between atoms: C6_6  and  N1_8 
REMARK    3  A    between atoms: C9_11  and  C10_12 
REMARK    4  A    between atoms: C13_17  and  N4_18 
REMARK    5  A    between atoms: N4_18  and  C14_19 
REMARK    6  A    between atoms: C14_19  and  C15_20 
REMARK    7  A    between atoms: C15_20  and  O2_21 
REMARK    8  A    between atoms: C16_22  and  O3_23 
ROOT
HETATM    1  C6  UNL     1      31.075   7.836  48.963  1.00  0.00     0.243 C 
HETATM    2  O1  UNL     1      31.720   8.609  49.737  1.00  0.00    -0.268 OA
HETATM    3  N1  UNL     1      29.729   8.195  48.706  1.00  0.00    -0.342 N 
HETATM    4  C7  UNL     1      28.845   7.434  47.865  1.00  0.00     0.131 C 
HETATM    5  C8  UNL     1      27.454   7.967  47.772  1.00  0.00     0.062 C 
HETATM    6  C9  UNL     1      26.950   8.279  49.129  1.00  0.00    -0.010 C 
HETATM    7  C16 UNL     1      27.816   8.979  49.841  1.00  0.00     0.068 C 
HETATM    8  C17 UNL     1      29.134   9.382  49.284  1.00  0.00     0.191 C 
ENDROOT
BRANCH   6   9
HETATM    9  C10 UNL     1      25.622   7.854  49.527  1.00  0.00     0.036 A 
HETATM   10  C11 UNL     1      24.689   8.875  49.324  1.00  0.00     0.134 A 
HETATM   11  N2  UNL     1      23.382   8.653  49.646  1.00  0.00    -0.253 NA
HETATM   12  C12 UNL     1      22.975   7.482  50.151  1.00  0.00     0.234 A 
HETATM   13  N3  UNL     1      23.891   6.518  50.338  1.00  0.00    -0.224 NA
HETATM   14  C13 UNL     1      25.192   6.654  50.048  1.00  0.00     0.137 A 
BRANCH  14  15
HETATM   15  N4  UNL     1      26.168   5.669  50.296  1.00  0.00    -0.372 N 
HETATM   16  H16 UNL     1      26.848   5.625  51.073  1.00  0.00     0.161 HD
BRANCH  15  17
HETATM   17  C14 UNL     1      26.192   4.586  49.349  1.00  0.00     0.147 C 
BRANCH  17  18
HETATM   18  C15 UNL     1      26.266   3.257  50.078  1.00  0.00     0.183 C 
BRANCH  18  19
HETATM   19  O2  UNL     1      27.216   3.298  51.102  1.00  0.00    -0.399 OA
HETATM   20  H21 UNL     1      27.069   2.452  51.612  1.00  0.00     0.209 HD
ENDBRANCH  18  19
ENDBRANCH  17  18
ENDBRANCH  15  17
ENDBRANCH  14  15
ENDBRANCH   6   9
BRANCH   7  21
HETATM   21  O3  UNL     1      27.488   9.345  51.137  1.00  0.00    -0.363 OA
HETATM   22  H22 UNL     1      27.164   8.615  51.782  1.00  0.00     0.217 HD
ENDBRANCH   7  21
BRANCH   1  23
HETATM   23  C5  UNL     1      31.745   6.672  48.407  1.00  0.00     0.070 C 
HETATM   24  C4  UNL     1      32.937   6.160  48.072  1.00  0.00    -0.017 C 
BRANCH  24  25
HETATM   25  C2  UNL     1      33.395   4.876  47.488  1.00  0.00    -0.000 C 
HETATM   26  C1  UNL     1      34.067   5.183  46.169  1.00  0.00     0.013 C 
HETATM   27  C3  UNL     1      32.249   3.898  47.324  1.00  0.00     0.013 C 
ENDBRANCH  24  25
ENDBRANCH   1  23
TORSDOF 8
ENDMDL
MODEL 8
REMARK VINA RESULT:      -6.5      4.423      7.297
REMARK  8 active torsions:
REMARK  status: ('A' for Active; 'I' for Inactive)
REMARK    1  A    between atoms: C2_2  and  C4_4 
REMARK    2  A    between atoms: C5_5  and  C6_6 
REMARK       I    between atoms: C6_6  and  N1_8 
REMARK    3  A    between atoms: C9_11  and  C10_12 
REMARK    4  A    between atoms: C13_17  and  N4_18 
REMARK    5  A    between atoms: N4_18  and  C14_19 
REMARK    6  A    between atoms: C14_19  and  C15_20 
REMARK    7  A    between atoms: C15_20  and  O2_21 
REMARK    8  A    between atoms: C16_22  and  O3_23 
ROOT
HETATM    1  C6  UNL     1      26.148   2.434  51.327  1.00  0.00     0.243 C 
HETATM    2  O1  UNL     1      27.387   2.516  51.592  1.00  0.00    -0.268 OA
HETATM    3  N1  UNL     1      25.679   3.268  50.282  1.00  0.00    -0.342 N 
HETATM    4  C7  UNL     1      24.308   3.318  49.851  1.00  0.00     0.131 C 
HETATM    5  C8  UNL     1      24.025   4.303  48.767  1.00  0.00     0.062 C 
HETATM    6  C9  UNL     1      24.647   5.604  49.105  1.00  0.00    -0.010 C 
HETATM    7  C16 UNL     1      25.905   5.478  49.490  1.00  0.00     0.068 C 
HETATM    8  C17 UNL     1      26.569   4.149  49.554  1.00  0.00     0.191 C 
ENDROOT
BRANCH   6   9
HETATM    9  C10 UNL     1      23.890   6.832  48.957  1.00  0.00     0.036 A 
HETATM   10  C11 UNL     1      24.024   7.349  47.665  1.00  0.00     0.134 A 
HETATM   11  N2  UNL     1      23.378   8.508  47.345  1.00  0.00    -0.253 NA
HETATM   12  C12 UNL     1      22.622   9.158  48.238  1.00  0.00     0.234 A 
HETATM   13  N3  UNL     1      22.511   8.640  49.471  1.00  0.00    -0.224 NA
HETATM   14  C13 UNL     1      23.111   7.509  49.868  1.00  0.00     0.137 A 
BRANCH  14  15
HETATM   15  N4  UNL     1      23.046   6.993  51.175  1.00  0.00    -0.372 N 
HETATM   16  H16 UNL     1      23.633   7.240  51.990  1.00  0.00     0.161 HD
BRANCH  15  17
HETATM   17  C14 UNL     1      22.013   6.015  51.393  1.00  0.00     0.147 C 
BRANCH  17  18
HETATM   18  C15 UNL     1      22.473   4.986  52.409  1.00  0.00     0.183 C 
BRANCH  18  19
HETATM   19  O2  UNL     1      23.829   5.146  52.708  1.00  0.00    -0.399 OA
HETATM   20  H21 UNL     1      24.008   4.475  53.426  1.00  0.00     0.209 HD
ENDBRANCH  18  19
ENDBRANCH  17  18
ENDBRANCH  15  17
ENDBRANCH  14  15
ENDBRANCH   6   9
BRANCH   7  21
HETATM   21  O3  UNL     1      26.622   6.611  49.843  1.00  0.00    -0.363 OA
HETATM   22  H22 UNL     1      27.252   6.555  50.653  1.00  0.00     0.217 HD
ENDBRANCH   7  21
BRANCH   1  23
HETATM   23  C5  UNL     1      25.321   1.513  52.089  1.00  0.00     0.070 C 
HETATM   24  C4  UNL     1      24.173   1.392  52.770  1.00  0.00    -0.017 C 
BRANCH  24  25
HETATM   25  C2  UNL     1      23.506   0.288  53.504  1.00  0.00    -0.000 C 
HETATM   26  C1  UNL     1      24.577  -0.681  53.951  1.00  0.00     0.013 C 
HETATM   27  C3  UNL     1      22.451  -0.389  52.653  1.00  0.00     0.013 C 
ENDBRANCH  24  25
ENDBRANCH   1  23
TORSDOF 8
ENDMDL
MODEL 9
REMARK VINA RESULT:      -6.4      3.606      5.716
REMARK  8 active torsions:
REMARK  status: ('A' for Active; 'I' for Inactive)
REMARK    1  A    between atoms: C2_2  and  C4_4 
REMARK    2  A    between atoms: C5_5  and  C6_6 
REMARK       I    between atoms: C6_6  and  N1_8 
REMARK    3  A    between atoms: C9_11  and  C10_12 
REMARK    4  A    between atoms: C13_17  and  N4_18 
REMARK    5  A    between atoms: N4_18  and  C14_19 
REMARK    6  A    between atoms: C14_19  and  C15_20 
REMARK    7  A    between atoms: C15_20  and  O2_21 
REMARK    8  A    between atoms: C16_22  and  O3_23 
ROOT
HETATM    1  C6  UNL     1      26.099   3.963  49.653  1.00  0.00     0.243 C 
HETATM    2  O1  UNL     1      27.155   3.558  49.074  1.00  0.00    -0.268 OA
HETATM    3  N1  UNL     1      25.833   3.401  50.926  1.00  0.00    -0.342 N 
HETATM    4  C7  UNL     1      24.681   3.730  51.721  1.00  0.00     0.131 C 
HETATM    5  C8  UNL     1      24.572   2.984  53.008  1.00  0.00     0.062 C 
HETATM    6  C9  UNL     1      24.803   1.541  52.766  1.00  0.00    -0.010 C 
HETATM    7  C16 UNL     1      25.877   1.317  52.030  1.00  0.00     0.068 C 
HETATM    8  C17 UNL     1      26.724   2.434  51.532  1.00  0.00     0.191 C 
ENDROOT
BRANCH   6   9
HETATM    9  C10 UNL     1      23.914   0.555  53.349  1.00  0.00     0.036 A 
HETATM   10  C11 UNL     1      22.577   0.903  53.141  1.00  0.00     0.134 A 
HETATM   11  N2  UNL     1      21.595   0.087  53.626  1.00  0.00    -0.253 NA
HETATM   12  C12 UNL     1      21.886  -1.035  54.294  1.00  0.00     0.234 A 
HETATM   13  N3  UNL     1      23.179  -1.346  54.481  1.00  0.00    -0.224 NA
HETATM   14  C13 UNL     1      24.201  -0.602  54.039  1.00  0.00     0.137 A 
BRANCH  14  15
HETATM   15  N4  UNL     1      25.557  -0.891  54.282  1.00  0.00    -0.372 N 
HETATM   16  H16 UNL     1      26.160  -1.580  53.801  1.00  0.00     0.161 HD
BRANCH  15  17
HETATM   17  C14 UNL     1      26.170  -0.104  55.319  1.00  0.00     0.147 C 
BRANCH  17  18
HETATM   18  C15 UNL     1      27.605   0.222  54.948  1.00  0.00     0.183 C 
BRANCH  18  19
HETATM   19  O2  UNL     1      28.142  -0.758  54.108  1.00  0.00    -0.399 OA
HETATM   20  H21 UNL     1      28.170  -1.582  54.671  1.00  0.00     0.209 HD
ENDBRANCH  18  19
ENDBRANCH  17  18
ENDBRANCH  15  17
ENDBRANCH  14  15
ENDBRANCH   6   9
BRANCH   7  21
HETATM   21  O3  UNL     1      26.223   0.013  51.714  1.00  0.00    -0.363 OA
HETATM   22  H22 UNL     1      26.176  -0.696  52.457  1.00  0.00     0.217 HD
ENDBRANCH   7  21
BRANCH   1  23
HETATM   23  C5  UNL     1      25.262   4.949  48.989  1.00  0.00     0.070 C 
HETATM   24  C4  UNL     1      25.006   6.259  48.876  1.00  0.00    -0.017 C 
BRANCH  24  25
HETATM   25  C2  UNL     1      24.048   7.072  48.088  1.00  0.00    -0.000 C 
HETATM   26  C1  UNL     1      23.496   8.146  48.998  1.00  0.00     0.013 C 
HETATM   27  C3  UNL     1      22.949   6.216  47.492  1.00  0.00     0.013 C 
ENDBRANCH  24  25
ENDBRANCH   1  23
TORSDOF 8
ENDMDL
