MODEL 1
REMARK VINA RESULT:      -7.6      0.000      0.000
REMARK  5 active torsions:
REMARK  status: ('A' for Active; 'I' for Inactive)
REMARK    1  A    between atoms: O1_2  and  C2_3 
REMARK    2  A    between atoms: C6_8  and  N2_9 
REMARK    3  A    between atoms: N2_9  and  C7_10 
REMARK    4  A    between atoms: C14_18  and  O2_19 
REMARK    5  A    between atoms: O2_19  and  N3_20 
ROOT
HETATM    1  C2  UNL     1      27.773   0.676  53.947  1.00  0.00     0.105 A 
HETATM    2  C3  UNL     1      27.095  -0.200  54.722  1.00  0.00     0.071 A 
HETATM    3  C4  UNL     1      25.637  -0.371  54.523  1.00  0.00     0.062 A 
HETATM    4  N1  UNL     1      24.920  -1.195  55.205  1.00  0.00    -0.299 NA
HETATM    5  C5  UNL     1      25.068   0.454  53.473  1.00  0.00     0.010 A 
HETATM    6  C6  UNL     1      23.787   0.387  53.230  1.00  0.00     0.102 C 
HETATM    7  C13 UNL     1      25.846   1.370  52.676  1.00  0.00     0.057 A 
HETATM    8  C14 UNL     1      27.135   1.465  52.912  1.00  0.00     0.126 A 
HETATM    9  H5  UNL     1      25.270  -1.819  55.954  1.00  0.00     0.187 HD
ENDROOT
BRANCH   6  10
HETATM   10  N2  UNL     1      22.646  -0.280  53.680  1.00  0.00    -0.363 N 
HETATM   11  H7  UNL     1      22.889  -0.869  54.517  1.00  0.00     0.165 HD
BRANCH  10  12
HETATM   12  C7  UNL     1      21.299  -0.268  53.213  1.00  0.00     0.071 A 
HETATM   13  C8  UNL     1      21.074   0.561  52.132  1.00  0.00     0.033 A 
HETATM   14  C9  UNL     1      19.800   0.647  51.559  1.00  0.00     0.002 A 
HETATM   15  C10 UNL     1      18.768  -0.117  52.101  1.00  0.00     0.003 A 
HETATM   16  C11 UNL     1      19.004  -0.949  53.190  1.00  0.00     0.044 A 
HETATM   17  C12 UNL     1      20.262  -1.032  53.752  1.00  0.00     0.142 A 
HETATM   18  F1  UNL     1      20.570  -1.821  54.804  1.00  0.00    -0.204 F 
ENDBRANCH  10  12
ENDBRANCH   6  10
BRANCH   8  19
HETATM   19  O2  UNL     1      28.014   2.293  52.237  1.00  0.00    -0.264 OA
BRANCH  19  20
HETATM   20  N3  UNL     1      28.932   3.041  52.960  1.00  0.00    -0.209 NA
HETATM   21  H13 UNL     1      28.944   4.020  52.596  1.00  0.00     0.150 HD
HETATM   22  H14 UNL     1      28.711   2.996  53.981  1.00  0.00     0.150 HD
ENDBRANCH  19  20
ENDBRANCH   8  19
BRANCH   1  23
HETATM   23  O1  UNL     1      29.115   0.619  54.370  1.00  0.00    -0.353 OA
HETATM   24  C1  UNL     1      29.943  -0.344  53.720  1.00  0.00     0.210 C 
ENDBRANCH   1  23
TORSDOF 5
ENDMDL
MODEL 2
REMARK VINA RESULT:      -7.5      1.776      2.378
REMARK  5 active torsions:
REMARK  status: ('A' for Active; 'I' for Inactive)
REMARK    1  A    between atoms: O1_2  and  C2_3 
REMARK    2  A    between atoms: C6_8  and  N2_9 
REMARK    3  A    between atoms: N2_9  and  C7_10 
REMARK    4  A    between atoms: C14_18  and  O2_19 
REMARK    5  A    between atoms: O2_19  and  N3_20 
ROOT
HETATM    1  C2  UNL     1      28.223   0.460  53.652  1.00  0.00     0.105 A 
HETATM    2  C3  UNL     1      27.510   1.608  53.680  1.00  0.00     0.071 A 
HETATM    3  C4  UNL     1      26.046   1.562  53.452  1.00  0.00     0.062 A 
HETATM    4  N1  UNL     1      25.291   2.604  53.479  1.00  0.00    -0.299 NA
HETATM    5  C5  UNL     1      25.512   0.234  53.214  1.00  0.00     0.010 A 
HETATM    6  C6  UNL     1      24.235   0.088  52.987  1.00  0.00     0.102 C 
HETATM    7  C13 UNL     1      26.327  -0.957  53.199  1.00  0.00     0.057 A 
HETATM    8  C14 UNL     1      27.617  -0.834  53.410  1.00  0.00     0.126 A 
HETATM    9  H5  UNL     1      25.611   3.574  53.659  1.00  0.00     0.187 HD
ENDROOT
BRANCH   6  10
HETATM   10  N2  UNL     1      23.072   0.856  52.884  1.00  0.00    -0.363 N 
HETATM   11  H7  UNL     1      23.320   1.877  52.924  1.00  0.00     0.165 HD
BRANCH  10  12
HETATM   12  C7  UNL     1      21.705   0.482  52.732  1.00  0.00     0.071 A 
HETATM   13  C8  UNL     1      21.181   0.721  51.478  1.00  0.00     0.033 A 
HETATM   14  C9  UNL     1      19.856   0.379  51.186  1.00  0.00     0.002 A 
HETATM   15  C10 UNL     1      19.080  -0.207  52.186  1.00  0.00     0.003 A 
HETATM   16  C11 UNL     1      19.616  -0.444  53.447  1.00  0.00     0.044 A 
HETATM   17  C12 UNL     1      20.924  -0.105  53.730  1.00  0.00     0.142 A 
HETATM   18  F1  UNL     1      21.518  -0.310  54.926  1.00  0.00    -0.204 F 
ENDBRANCH  10  12
ENDBRANCH   6  10
BRANCH   8  19
HETATM   19  O2  UNL     1      28.529  -1.875  53.428  1.00  0.00    -0.264 OA
BRANCH  19  20
HETATM   20  N3  UNL     1      28.181  -3.091  52.857  1.00  0.00    -0.209 NA
HETATM   21  H13 UNL     1      28.502  -3.112  51.864  1.00  0.00     0.150 HD
HETATM   22  H14 UNL     1      28.571  -3.880  53.422  1.00  0.00     0.150 HD
ENDBRANCH  19  20
ENDBRANCH   8  19
BRANCH   1  23
HETATM   23  O1  UNL     1      29.562   0.823  53.894  1.00  0.00    -0.353 OA
HETATM   24  C1  UNL     1      29.770   2.062  54.569  1.00  0.00     0.210 C 
ENDBRANCH   1  23
TORSDOF 5
ENDMDL
MODEL 3
REMARK VINA RESULT:      -7.3      4.265      6.805
REMARK  5 active torsions:
REMARK  status: ('A' for Active; 'I' for Inactive)
REMARK    1  A    between atoms: O1_2  and  C2_3 
REMARK    2  A    between atoms: C6_8  and  N2_9 
REMARK    3  A    between atoms: N2_9  and  C7_10 
REMARK    4  A    between atoms: C14_18  and  O2_19 
REMARK    5  A    between atoms: O2_19  and  N3_20 
ROOT
HETATM    1  C2  UNL     1      23.427  -0.557  53.943  1.00  0.00     0.105 A 
HETATM    2  C3  UNL     1      22.575   0.137  53.155  1.00  0.00     0.071 A 
HETATM    3  C4  UNL     1      23.107   1.185  52.253  1.00  0.00     0.062 A 
HETATM    4  N1  UNL     1      22.369   1.879  51.459  1.00  0.00    -0.299 NA
HETATM    5  C5  UNL     1      24.546   1.363  52.314  1.00  0.00     0.010 A 
HETATM    6  C6  UNL     1      25.111   2.274  51.569  1.00  0.00     0.102 C 
HETATM    7  C13 UNL     1      25.405   0.588  53.177  1.00  0.00     0.057 A 
HETATM    8  C14 UNL     1      24.858  -0.324  53.946  1.00  0.00     0.126 A 
HETATM    9  H5  UNL     1      21.341   1.787  51.360  1.00  0.00     0.187 HD
ENDROOT
BRANCH   6  10
HETATM   10  N2  UNL     1      24.771   3.245  50.624  1.00  0.00    -0.363 N 
HETATM   11  H7  UNL     1      23.741   3.188  50.415  1.00  0.00     0.165 HD
BRANCH  10  12
HETATM   12  C7  UNL     1      25.555   4.235  49.963  1.00  0.00     0.071 A 
HETATM   13  C8  UNL     1      26.725   3.761  49.405  1.00  0.00     0.033 A 
HETATM   14  C9  UNL     1      27.577   4.624  48.705  1.00  0.00     0.002 A 
HETATM   15  C10 UNL     1      27.219   5.966  48.586  1.00  0.00     0.003 A 
HETATM   16  C11 UNL     1      26.039   6.435  49.152  1.00  0.00     0.044 A 
HETATM   17  C12 UNL     1      25.202   5.580  49.840  1.00  0.00     0.142 A 
HETATM   18  F1  UNL     1      24.037   5.958  50.411  1.00  0.00    -0.204 F 
ENDBRANCH  10  12
ENDBRANCH   6  10
BRANCH   8  19
HETATM   19  O2  UNL     1      25.543  -1.146  54.824  1.00  0.00    -0.264 OA
BRANCH  19  20
HETATM   20  N3  UNL     1      25.073  -1.295  56.121  1.00  0.00    -0.209 NA
HETATM   21  H13 UNL     1      25.666  -0.733  56.771  1.00  0.00     0.150 HD
HETATM   22  H14 UNL     1      24.062  -1.030  56.172  1.00  0.00     0.150 HD
ENDBRANCH  19  20
ENDBRANCH   8  19
BRANCH   1  23
HETATM   23  O1  UNL     1      22.637  -1.463  54.676  1.00  0.00    -0.353 OA
HETATM   24  C1  UNL     1      21.232  -1.416  54.434  1.00  0.00     0.210 C 
ENDBRANCH   1  23
TORSDOF 5
ENDMDL
MODEL 4
REMARK VINA RESULT:      -7.2      2.496      3.305
REMARK  5 active torsions:
REMARK  status: ('A' for Active; 'I' for Inactive)
REMARK    1  A    between atoms: O1_2  and  C2_3 
REMARK    2  A    between atoms: C6_8  and  N2_9 
REMARK    3  A    between atoms: N2_9  and  C7_10 
REMARK    4  A    between atoms: C14_18  and  O2_19 
REMARK    5  A    between atoms: O2_19  and  N3_20 
ROOT
HETATM    1  C2  UNL     1      28.268   0.433  53.659  1.00  0.00     0.105 A 
HETATM    2  C3  UNL     1      27.528   1.565  53.664  1.00  0.00     0.071 A 
HETATM    3  C4  UNL     1      26.070   1.484  53.412  1.00  0.00     0.062 A 
HETATM    4  N1  UNL     1      25.292   2.509  53.416  1.00  0.00    -0.299 NA
HETATM    5  C5  UNL     1      25.570   0.142  53.175  1.00  0.00     0.010 A 
HETATM    6  C6  UNL     1      24.301  -0.034  52.928  1.00  0.00     0.102 C 
HETATM    7  C13 UNL     1      26.412  -1.031  53.185  1.00  0.00     0.057 A 
HETATM    8  C14 UNL     1      27.695  -0.876  53.418  1.00  0.00     0.126 A 
HETATM    9  H5  UNL     1      25.587   3.487  53.592  1.00  0.00     0.187 HD
ENDROOT
BRANCH   6  10
HETATM   10  N2  UNL     1      23.124   0.706  52.798  1.00  0.00    -0.363 N 
HETATM   11  H7  UNL     1      22.900   1.175  53.712  1.00  0.00     0.165 HD
BRANCH  10  12
HETATM   12  C7  UNL     1      22.255   0.912  51.686  1.00  0.00     0.071 A 
HETATM   13  C8  UNL     1      20.986   0.394  51.847  1.00  0.00     0.033 A 
HETATM   14  C9  UNL     1      20.026   0.548  50.840  1.00  0.00     0.002 A 
HETATM   15  C10 UNL     1      20.378   1.232  49.677  1.00  0.00     0.003 A 
HETATM   16  C11 UNL     1      21.659   1.750  49.524  1.00  0.00     0.044 A 
HETATM   17  C12 UNL     1      22.603   1.596  50.520  1.00  0.00     0.142 A 
HETATM   18  F1  UNL     1      23.864   2.077  50.449  1.00  0.00    -0.204 F 
ENDBRANCH  10  12
ENDBRANCH   6  10
BRANCH   8  19
HETATM   19  O2  UNL     1      28.629  -1.897  53.461  1.00  0.00    -0.264 OA
BRANCH  19  20
HETATM   20  N3  UNL     1      28.307  -3.134  52.921  1.00  0.00    -0.209 NA
HETATM   21  H13 UNL     1      27.637  -3.003  52.132  1.00  0.00     0.150 HD
HETATM   22  H14 UNL     1      29.176  -3.638  52.629  1.00  0.00     0.150 HD
ENDBRANCH  19  20
ENDBRANCH   8  19
BRANCH   1  23
HETATM   23  O1  UNL     1      29.594   0.828  53.921  1.00  0.00    -0.353 OA
HETATM   24  C1  UNL     1      29.764   2.104  54.535  1.00  0.00     0.210 C 
ENDBRANCH   1  23
TORSDOF 5
ENDMDL
MODEL 5
REMARK VINA RESULT:      -7.2      3.989      5.130
REMARK  5 active torsions:
REMARK  status: ('A' for Active; 'I' for Inactive)
REMARK    1  A    between atoms: O1_2  and  C2_3 
REMARK    2  A    between atoms: C6_8  and  N2_9 
REMARK    3  A    between atoms: N2_9  and  C7_10 
REMARK    4  A    between atoms: C14_18  and  O2_19 
REMARK    5  A    between atoms: O2_19  and  N3_20 
ROOT
HETATM    1  C2  UNL     1      27.081   0.061  53.929  1.00  0.00     0.105 A 
HETATM    2  C3  UNL     1      27.640   1.045  53.189  1.00  0.00     0.071 A 
HETATM    3  C4  UNL     1      26.782   1.871  52.308  1.00  0.00     0.062 A 
HETATM    4  N1  UNL     1      27.230   2.837  51.584  1.00  0.00    -0.299 NA
HETATM    5  C5  UNL     1      25.373   1.522  52.334  1.00  0.00     0.010 A 
HETATM    6  C6  UNL     1      24.536   2.181  51.580  1.00  0.00     0.102 C 
HETATM    7  C13 UNL     1      24.835   0.460  53.149  1.00  0.00     0.057 A 
HETATM    8  C14 UNL     1      25.661  -0.227  53.905  1.00  0.00     0.126 A 
HETATM    9  H5  UNL     1      28.220   3.142  51.535  1.00  0.00     0.187 HD
ENDROOT
BRANCH   6  10
HETATM   10  N2  UNL     1      24.525   3.226  50.654  1.00  0.00    -0.363 N 
HETATM   11  H7  UNL     1      25.280   3.919  50.894  1.00  0.00     0.165 HD
BRANCH  10  12
HETATM   12  C7  UNL     1      23.710   3.464  49.508  1.00  0.00     0.071 A 
HETATM   13  C8  UNL     1      22.975   2.373  49.091  1.00  0.00     0.033 A 
HETATM   14  C9  UNL     1      22.114   2.477  47.993  1.00  0.00     0.002 A 
HETATM   15  C10 UNL     1      22.016   3.701  47.332  1.00  0.00     0.003 A 
HETATM   16  C11 UNL     1      22.760   4.795  47.760  1.00  0.00     0.044 A 
HETATM   17  C12 UNL     1      23.607   4.688  48.845  1.00  0.00     0.142 A 
HETATM   18  F1  UNL     1      24.356   5.705  49.323  1.00  0.00    -0.204 F 
ENDBRANCH  10  12
ENDBRANCH   6  10
BRANCH   8  19
HETATM   19  O2  UNL     1      25.302  -1.271  54.740  1.00  0.00    -0.264 OA
BRANCH  19  20
HETATM   20  N3  UNL     1      25.417  -1.111  56.113  1.00  0.00    -0.209 NA
HETATM   21  H13 UNL     1      26.405  -1.287  56.400  1.00  0.00     0.150 HD
HETATM   22  H14 UNL     1      25.080  -0.162  56.397  1.00  0.00     0.150 HD
ENDBRANCH  19  20
ENDBRANCH   8  19
BRANCH   1  23
HETATM   23  O1  UNL     1      28.134  -0.539  54.646  1.00  0.00    -0.353 OA
HETATM   24  C1  UNL     1      29.421  -0.499  54.033  1.00  0.00     0.210 C 
ENDBRANCH   1  23
TORSDOF 5
ENDMDL
MODEL 6
REMARK VINA RESULT:      -7.2      4.102      5.468
REMARK  5 active torsions:
REMARK  status: ('A' for Active; 'I' for Inactive)
REMARK    1  A    between atoms: O1_2  and  C2_3 
REMARK    2  A    between atoms: C6_8  and  N2_9 
REMARK    3  A    between atoms: N2_9  and  C7_10 
REMARK    4  A    between atoms: C14_18  and  O2_19 
REMARK    5  A    between atoms: O2_19  and  N3_20 
ROOT
HETATM    1  C2  UNL     1      27.054   0.088  53.994  1.00  0.00     0.105 A 
HETATM    2  C3  UNL     1      27.611   1.072  53.253  1.00  0.00     0.071 A 
HETATM    3  C4  UNL     1      26.760   1.862  52.333  1.00  0.00     0.062 A 
HETATM    4  N1  UNL     1      27.206   2.827  51.606  1.00  0.00    -0.299 NA
HETATM    5  C5  UNL     1      25.360   1.479  52.323  1.00  0.00     0.010 A 
HETATM    6  C6  UNL     1      24.530   2.105  51.534  1.00  0.00     0.102 C 
HETATM    7  C13 UNL     1      24.823   0.418  53.141  1.00  0.00     0.057 A 
HETATM    8  C14 UNL     1      25.643  -0.235  53.933  1.00  0.00     0.126 A 
HETATM    9  H5  UNL     1      28.189   3.155  51.580  1.00  0.00     0.187 HD
ENDROOT
BRANCH   6  10
HETATM   10  N2  UNL     1      24.522   3.134  50.589  1.00  0.00    -0.363 N 
HETATM   11  H7  UNL     1      24.947   2.790  49.690  1.00  0.00     0.165 HD
BRANCH  10  12
HETATM   12  C7  UNL     1      24.046   4.476  50.658  1.00  0.00     0.071 A 
HETATM   13  C8  UNL     1      22.738   4.599  51.081  1.00  0.00     0.033 A 
HETATM   14  C9  UNL     1      22.154   5.864  51.216  1.00  0.00     0.002 A 
HETATM   15  C10 UNL     1      22.918   6.991  50.917  1.00  0.00     0.003 A 
HETATM   16  C11 UNL     1      24.236   6.857  50.493  1.00  0.00     0.044 A 
HETATM   17  C12 UNL     1      24.808   5.607  50.361  1.00  0.00     0.142 A 
HETATM   18  F1  UNL     1      26.082   5.396  49.962  1.00  0.00    -0.204 F 
ENDBRANCH  10  12
ENDBRANCH   6  10
BRANCH   8  19
HETATM   19  O2  UNL     1      25.284  -1.273  54.775  1.00  0.00    -0.264 OA
BRANCH  19  20
HETATM   20  N3  UNL     1      25.397  -1.103  56.147  1.00  0.00    -0.209 NA
HETATM   21  H13 UNL     1      24.575  -0.564  56.499  1.00  0.00     0.150 HD
HETATM   22  H14 UNL     1      25.499  -2.032  56.620  1.00  0.00     0.150 HD
ENDBRANCH  19  20
ENDBRANCH   8  19
BRANCH   1  23
HETATM   23  O1  UNL     1      28.099  -0.473  54.752  1.00  0.00    -0.353 OA
HETATM   24  C1  UNL     1      29.393  -0.461  54.152  1.00  0.00     0.210 C 
ENDBRANCH   1  23
TORSDOF 5
ENDMDL
MODEL 7
REMARK VINA RESULT:      -7.1      2.442      3.009
REMARK  5 active torsions:
REMARK  status: ('A' for Active; 'I' for Inactive)
REMARK    1  A    between atoms: O1_2  and  C2_3 
REMARK    2  A    between atoms: C6_8  and  N2_9 
REMARK    3  A    between atoms: N2_9  and  C7_10 
REMARK    4  A    between atoms: C14_18  and  O2_19 
REMARK    5  A    between atoms: O2_19  and  N3_20 
ROOT
HETATM    1  C2  UNL     1      27.803   0.403  53.976  1.00  0.00     0.105 A 
HETATM    2  C3  UNL     1      26.661  -0.309  53.844  1.00  0.00     0.071 A 
HETATM    3  C4  UNL     1      25.475   0.326  53.224  1.00  0.00     0.062 A 
HETATM    4  N1  UNL     1      24.356  -0.285  53.046  1.00  0.00    -0.299 NA
HETATM    5  C5  UNL     1      25.672   1.702  52.806  1.00  0.00     0.010 A 
HETATM    6  C6  UNL     1      24.681   2.355  52.262  1.00  0.00     0.102 C 
HETATM    7  C13 UNL     1      26.919   2.409  52.972  1.00  0.00     0.057 A 
HETATM    8  C14 UNL     1      27.927   1.777  53.530  1.00  0.00     0.126 A 
HETATM    9  H5  UNL     1      24.159  -1.269  53.308  1.00  0.00     0.187 HD
ENDROOT
BRANCH   6  10
HETATM   10  N2  UNL     1      23.346   2.165  51.901  1.00  0.00    -0.363 N 
HETATM   11  H7  UNL     1      22.739   2.208  52.759  1.00  0.00     0.165 HD
BRANCH  10  12
HETATM   12  C7  UNL     1      22.732   1.951  50.632  1.00  0.00     0.071 A 
HETATM   13  C8  UNL     1      23.186   2.781  49.628  1.00  0.00     0.033 A 
HETATM   14  C9  UNL     1      22.684   2.660  48.327  1.00  0.00     0.002 A 
HETATM   15  C10 UNL     1      21.720   1.686  48.069  1.00  0.00     0.003 A 
HETATM   16  C11 UNL     1      21.269   0.853  49.087  1.00  0.00     0.044 A 
HETATM   17  C12 UNL     1      21.767   0.977  50.369  1.00  0.00     0.142 A 
HETATM   18  F1  UNL     1      21.385   0.202  51.407  1.00  0.00    -0.204 F 
ENDBRANCH  10  12
ENDBRANCH   6  10
BRANCH   8  19
HETATM   19  O2  UNL     1      29.182   2.314  53.757  1.00  0.00    -0.264 OA
BRANCH  19  20
HETATM   20  N3  UNL     1      29.711   2.282  55.039  1.00  0.00    -0.209 NA
HETATM   21  H13 UNL     1      28.987   1.931  55.704  1.00  0.00     0.150 HD
HETATM   22  H14 UNL     1      30.584   1.704  55.055  1.00  0.00     0.150 HD
ENDBRANCH  19  20
ENDBRANCH   8  19
BRANCH   1  23
HETATM   23  O1  UNL     1      28.733  -0.455  54.593  1.00  0.00    -0.353 OA
HETATM   24  C1  UNL     1      29.588  -1.194  53.722  1.00  0.00     0.210 C 
ENDBRANCH   1  23
TORSDOF 5
ENDMDL
MODEL 8
REMARK VINA RESULT:      -7.1      4.519      7.325
REMARK  5 active torsions:
REMARK  status: ('A' for Active; 'I' for Inactive)
REMARK    1  A    between atoms: O1_2  and  C2_3 
REMARK    2  A    between atoms: C6_8  and  N2_9 
REMARK    3  A    between atoms: N2_9  and  C7_10 
REMARK    4  A    between atoms: C14_18  and  O2_19 
REMARK    5  A    between atoms: O2_19  and  N3_20 
ROOT
HETATM    1  C2  UNL     1      23.245   3.743  50.279  1.00  0.00     0.105 A 
HETATM    2  C3  UNL     1      24.583   3.710  50.088  1.00  0.00     0.071 A 
HETATM    3  C4  UNL     1      25.465   3.260  51.191  1.00  0.00     0.062 A 
HETATM    4  N1  UNL     1      26.746   3.183  51.087  1.00  0.00    -0.299 NA
HETATM    5  C5  UNL     1      24.771   2.888  52.409  1.00  0.00     0.010 A 
HETATM    6  C6  UNL     1      25.461   2.493  53.444  1.00  0.00     0.102 C 
HETATM    7  C13 UNL     1      23.336   2.943  52.552  1.00  0.00     0.057 A 
HETATM    8  C14 UNL     1      22.622   3.351  51.528  1.00  0.00     0.126 A 
HETATM    9  H5  UNL     1      27.297   3.420  50.241  1.00  0.00     0.187 HD
ENDROOT
BRANCH   6  10
HETATM   10  N2  UNL     1      26.786   2.278  53.828  1.00  0.00    -0.363 N 
HETATM   11  H7  UNL     1      27.163   3.143  54.294  1.00  0.00     0.165 HD
BRANCH  10  12
HETATM   12  C7  UNL     1      27.634   1.139  53.700  1.00  0.00     0.071 A 
HETATM   13  C8  UNL     1      27.030   0.037  53.129  1.00  0.00     0.033 A 
HETATM   14  C9  UNL     1      27.757  -1.141  52.923  1.00  0.00     0.002 A 
HETATM   15  C10 UNL     1      29.098  -1.177  53.305  1.00  0.00     0.003 A 
HETATM   16  C11 UNL     1      29.698  -0.061  53.879  1.00  0.00     0.044 A 
HETATM   17  C12 UNL     1      28.976   1.099  54.080  1.00  0.00     0.142 A 
HETATM   18  F1  UNL     1      29.490   2.224  54.624  1.00  0.00    -0.204 F 
ENDBRANCH  10  12
ENDBRANCH   6  10
BRANCH   8  19
HETATM   19  O2  UNL     1      21.242   3.458  51.506  1.00  0.00    -0.264 OA
BRANCH  19  20
HETATM   20  N3  UNL     1      20.533   3.322  52.690  1.00  0.00    -0.209 NA
HETATM   21  H13 UNL     1      21.199   3.311  53.494  1.00  0.00     0.150 HD
HETATM   22  H14 UNL     1      19.818   4.082  52.773  1.00  0.00     0.150 HD
ENDBRANCH  19  20
ENDBRANCH   8  19
BRANCH   1  23
HETATM   23  O1  UNL     1      22.687   4.209  49.074  1.00  0.00    -0.353 OA
HETATM   24  C1  UNL     1      22.493   3.236  48.049  1.00  0.00     0.210 C 
ENDBRANCH   1  23
TORSDOF 5
ENDMDL
MODEL 9
REMARK VINA RESULT:      -7.0      3.679      7.397
REMARK  5 active torsions:
REMARK  status: ('A' for Active; 'I' for Inactive)
REMARK    1  A    between atoms: O1_2  and  C2_3 
REMARK    2  A    between atoms: C6_8  and  N2_9 
REMARK    3  A    between atoms: N2_9  and  C7_10 
REMARK    4  A    between atoms: C14_18  and  O2_19 
REMARK    5  A    between atoms: O2_19  and  N3_20 
ROOT
HETATM    1  C2  UNL     1      21.155   2.422  52.700  1.00  0.00     0.105 A 
HETATM    2  C3  UNL     1      22.198   3.204  52.341  1.00  0.00     0.071 A 
HETATM    3  C4  UNL     1      23.556   2.617  52.267  1.00  0.00     0.062 A 
HETATM    4  N1  UNL     1      24.599   3.287  51.917  1.00  0.00    -0.299 NA
HETATM    5  C5  UNL     1      23.627   1.207  52.601  1.00  0.00     0.010 A 
HETATM    6  C6  UNL     1      24.783   0.601  52.580  1.00  0.00     0.102 C 
HETATM    7  C13 UNL     1      22.475   0.423  52.975  1.00  0.00     0.057 A 
HETATM    8  C14 UNL     1      21.303   1.015  53.017  1.00  0.00     0.126 A 
HETATM    9  H5  UNL     1      24.610   4.289  51.653  1.00  0.00     0.187 HD
ENDROOT
BRANCH   6  10
HETATM   10  N2  UNL     1      26.127   0.870  52.316  1.00  0.00    -0.363 N 
HETATM   11  H7  UNL     1      26.200   1.687  51.657  1.00  0.00     0.165 HD
BRANCH  10  12
HETATM   12  C7  UNL     1      27.324   0.253  52.785  1.00  0.00     0.071 A 
HETATM   13  C8  UNL     1      28.253   1.128  53.310  1.00  0.00     0.033 A 
HETATM   14  C9  UNL     1      29.462   0.650  53.828  1.00  0.00     0.002 A 
HETATM   15  C10 UNL     1      29.707  -0.722  53.802  1.00  0.00     0.003 A 
HETATM   16  C11 UNL     1      28.765  -1.597  53.271  1.00  0.00     0.044 A 
HETATM   17  C12 UNL     1      27.573  -1.121  52.762  1.00  0.00     0.142 A 
HETATM   18  F1  UNL     1      26.607  -1.906  52.236  1.00  0.00    -0.204 F 
ENDBRANCH  10  12
ENDBRANCH   6  10
BRANCH   8  19
HETATM   19  O2  UNL     1      20.109   0.403  53.356  1.00  0.00    -0.264 OA
BRANCH  19  20
HETATM   20  N3  UNL     1      20.129  -0.719  54.171  1.00  0.00    -0.209 NA
HETATM   21  H13 UNL     1      19.389  -0.629  54.902  1.00  0.00     0.150 HD
HETATM   22  H14 UNL     1      20.019  -1.586  53.595  1.00  0.00     0.150 HD
ENDBRANCH  19  20
ENDBRANCH   8  19
BRANCH   1  23
HETATM   23  O1  UNL     1      20.017   3.250  52.684  1.00  0.00    -0.353 OA
HETATM   24  C1  UNL     1      19.395   3.446  51.416  1.00  0.00     0.210 C 
ENDBRANCH   1  23
TORSDOF 5
ENDMDL
