MODEL 1
REMARK VINA RESULT:      -7.5      0.000      0.000
REMARK  4 active torsions:
REMARK  status: ('A' for Active; 'I' for Inactive)
REMARK    1  A    between atoms: C3_3  and  O1_4 
REMARK    2  A    between atoms: O1_4  and  C4_5 
REMARK    3  A    between atoms: C9_12  and  N3_13 
REMARK    4  A    between atoms: N3_13  and  C10_14 
ROOT
HETATM    1  C4  UNL     1      26.348   4.420  49.583  1.00  0.00     0.185 C 
HETATM    2  C5  UNL     1      26.508   3.098  49.844  1.00  0.00     0.073 C 
HETATM    3  C6  UNL     1      25.787   2.926  51.044  1.00  0.00     0.007 A 
HETATM    4  C7  UNL     1      24.958   2.785  52.127  1.00  0.00     0.199 A 
HETATM    5  N1  UNL     1      23.829   2.729  52.776  1.00  0.00    -0.257 NA
HETATM    6  C8  UNL     1      22.593   2.865  52.305  1.00  0.00     0.143 A 
HETATM    7  N2  UNL     1      23.125   3.027  51.105  1.00  0.00    -0.232 NA
HETATM    8  C9  UNL     1      24.378   3.022  50.784  1.00  0.00     0.181 A 
HETATM    9  C14 UNL     1      21.219   3.003  51.853  1.00  0.00     0.056 C 
HETATM   10  C15 UNL     1      20.827   4.184  51.305  1.00  0.00     0.062 C 
HETATM   11  C16 UNL     1      21.691   5.352  51.125  1.00  0.00     0.164 C 
HETATM   12  N4  UNL     1      21.135   6.270  50.387  1.00  0.00    -0.237 NA
HETATM   13  C17 UNL     1      21.732   7.538  50.171  1.00  0.00     0.118 C 
HETATM   14  C18 UNL     1      22.899   7.807  50.734  1.00  0.00     0.027 C 
HETATM   15  C19 UNL     1      23.773   6.686  51.135  1.00  0.00     0.179 C 
HETATM   16  C20 UNL     1      24.615   6.187  49.975  1.00  0.00     0.214 C 
HETATM   17  O2  UNL     1      25.639   5.336  50.331  1.00  0.00    -0.327 OA
HETATM   18  O3  UNL     1      22.936   5.656  51.573  1.00  0.00    -0.323 OA
ENDROOT
BRANCH   8  19
HETATM   19  N3  UNL     1      23.915   3.042  49.398  1.00  0.00    -0.354 N 
HETATM   20  H8  UNL     1      24.682   3.364  48.721  1.00  0.00     0.162 HD
BRANCH  19  21
HETATM   21  C10 UNL     1      22.756   2.757  48.581  1.00  0.00     0.069 A 
HETATM   22  C11 UNL     1      22.140   3.657  47.828  1.00  0.00     0.142 A 
HETATM   23  F1  UNL     1      22.496   4.951  47.714  1.00  0.00    -0.204 F 
HETATM   24  C12 UNL     1      21.275   2.553  47.474  1.00  0.00     0.047 A 
HETATM   25  C13 UNL     1      21.898   1.663  48.232  1.00  0.00     0.035 A 
ENDBRANCH  19  21
ENDBRANCH   8  19
BRANCH   1  26
HETATM   26  O1  UNL     1      26.977   4.895  48.412  1.00  0.00    -0.301 OA
BRANCH  26  27
HETATM   27  C3  UNL     1      28.327   5.156  48.451  1.00  0.00     0.140 C 
HETATM   28  C2  UNL     1      29.333   5.910  48.046  1.00  0.00    -0.006 C 
HETATM   29  C1  UNL     1      30.794   5.868  48.342  1.00  0.00     0.038 C 
ENDBRANCH  26  27
ENDBRANCH   1  26
TORSDOF 4
ENDMDL
MODEL 2
REMARK VINA RESULT:      -7.4      3.046      3.953
REMARK  4 active torsions:
REMARK  status: ('A' for Active; 'I' for Inactive)
REMARK    1  A    between atoms: C3_3  and  O1_4 
REMARK    2  A    between atoms: O1_4  and  C4_5 
REMARK    3  A    between atoms: C9_12  and  N3_13 
REMARK    4  A    between atoms: N3_13  and  C10_14 
ROOT
HETATM    1  C4  UNL     1      24.305   1.088  52.585  1.00  0.00     0.185 C 
HETATM    2  C5  UNL     1      23.418   0.060  52.593  1.00  0.00     0.073 C 
HETATM    3  C6  UNL     1      22.222   0.683  53.006  1.00  0.00     0.007 A 
HETATM    4  C7  UNL     1      21.060   1.361  53.269  1.00  0.00     0.199 A 
HETATM    5  N1  UNL     1      20.059   2.164  53.039  1.00  0.00    -0.257 NA
HETATM    6  C8  UNL     1      19.795   2.870  51.942  1.00  0.00     0.143 A 
HETATM    7  N2  UNL     1      20.890   2.351  51.411  1.00  0.00    -0.232 NA
HETATM    8  C9  UNL     1      21.719   1.519  51.951  1.00  0.00     0.181 A 
HETATM    9  C14 UNL     1      19.453   3.665  50.776  1.00  0.00     0.056 C 
HETATM   10  C15 UNL     1      20.308   4.643  50.378  1.00  0.00     0.062 C 
HETATM   11  C16 UNL     1      21.573   4.970  51.036  1.00  0.00     0.164 C 
HETATM   12  N4  UNL     1      22.298   5.794  50.336  1.00  0.00    -0.237 NA
HETATM   13  C17 UNL     1      23.511   6.344  50.822  1.00  0.00     0.118 C 
HETATM   14  C18 UNL     1      23.932   6.011  52.032  1.00  0.00     0.027 C 
HETATM   15  C19 UNL     1      23.447   4.753  52.634  1.00  0.00     0.179 C 
HETATM   16  C20 UNL     1      24.270   3.560  52.181  1.00  0.00     0.214 C 
HETATM   17  O2  UNL     1      24.055   2.406  52.903  1.00  0.00    -0.327 OA
HETATM   18  O3  UNL     1      22.125   4.586  52.216  1.00  0.00    -0.323 OA
ENDROOT
BRANCH   8  19
HETATM   19  N3  UNL     1      22.331   1.431  50.627  1.00  0.00    -0.354 N 
HETATM   20  H8  UNL     1      23.220   0.832  50.633  1.00  0.00     0.162 HD
BRANCH  19  21
HETATM   21  C10 UNL     1      22.150   1.863  49.259  1.00  0.00     0.069 A 
HETATM   22  C11 UNL     1      22.995   2.654  48.613  1.00  0.00     0.142 A 
HETATM   23  F1  UNL     1      24.129   3.166  49.128  1.00  0.00    -0.204 F 
HETATM   24  C12 UNL     1      22.070   2.498  47.512  1.00  0.00     0.047 A 
HETATM   25  C13 UNL     1      21.233   1.708  48.168  1.00  0.00     0.035 A 
ENDBRANCH  19  21
ENDBRANCH   8  19
BRANCH   1  26
HETATM   26  O1  UNL     1      25.623   0.757  52.204  1.00  0.00    -0.301 OA
BRANCH  26  27
HETATM   27  C3  UNL     1      26.578   0.622  53.185  1.00  0.00     0.140 C 
HETATM   28  C2  UNL     1      27.568  -0.090  53.693  1.00  0.00    -0.006 C 
HETATM   29  C1  UNL     1      28.439   0.120  54.885  1.00  0.00     0.038 C 
ENDBRANCH  26  27
ENDBRANCH   1  26
TORSDOF 4
ENDMDL
MODEL 3
REMARK VINA RESULT:      -7.3      3.721      6.879
REMARK  4 active torsions:
REMARK  status: ('A' for Active; 'I' for Inactive)
REMARK    1  A    between atoms: C3_3  and  O1_4 
REMARK    2  A    between atoms: O1_4  and  C4_5 
REMARK    3  A    between atoms: C9_12  and  N3_13 
REMARK    4  A    between atoms: N3_13  and  C10_14 
ROOT
HETATM    1  C4  UNL     1      19.684   3.273  51.664  1.00  0.00     0.185 C 
HETATM    2  C5  UNL     1      20.364   4.299  51.092  1.00  0.00     0.073 C 
HETATM    3  C6  UNL     1      21.506   4.414  51.911  1.00  0.00     0.007 A 
HETATM    4  C7  UNL     1      22.661   4.389  52.649  1.00  0.00     0.199 A 
HETATM    5  N1  UNL     1      23.804   3.930  53.075  1.00  0.00    -0.257 NA
HETATM    6  C8  UNL     1      24.441   2.819  52.713  1.00  0.00     0.143 A 
HETATM    7  N2  UNL     1      23.442   2.583  51.879  1.00  0.00    -0.232 NA
HETATM    8  C9  UNL     1      22.381   3.298  51.685  1.00  0.00     0.181 A 
HETATM    9  C14 UNL     1      25.184   1.622  52.362  1.00  0.00     0.056 C 
HETATM   10  C15 UNL     1      24.624   0.408  52.608  1.00  0.00     0.062 C 
HETATM   11  C16 UNL     1      23.305   0.200  53.208  1.00  0.00     0.164 C 
HETATM   12  N4  UNL     1      22.918  -1.041  53.136  1.00  0.00    -0.237 NA
HETATM   13  C17 UNL     1      21.729  -1.505  53.752  1.00  0.00     0.118 C 
HETATM   14  C18 UNL     1      20.975  -0.651  54.425  1.00  0.00     0.027 C 
HETATM   15  C19 UNL     1      21.085   0.790  54.123  1.00  0.00     0.179 C 
HETATM   16  C20 UNL     1      20.218   1.184  52.941  1.00  0.00     0.214 C 
HETATM   17  O2  UNL     1      20.058   2.543  52.772  1.00  0.00    -0.327 OA
HETATM   18  O3  UNL     1      22.425   1.038  53.814  1.00  0.00    -0.323 OA
ENDROOT
BRANCH   8  19
HETATM   19  N3  UNL     1      22.110   2.401  50.564  1.00  0.00    -0.354 N 
HETATM   20  H8  UNL     1      21.582   1.520  50.871  1.00  0.00     0.162 HD
BRANCH  19  21
HETATM   21  C10 UNL     1      22.289   2.281  49.134  1.00  0.00     0.069 A 
HETATM   22  C11 UNL     1      23.061   3.081  48.413  1.00  0.00     0.142 A 
HETATM   23  F1  UNL     1      23.782   4.110  48.898  1.00  0.00    -0.204 F 
HETATM   24  C12 UNL     1      22.633   2.254  47.306  1.00  0.00     0.047 A 
HETATM   25  C13 UNL     1      21.863   1.462  48.037  1.00  0.00     0.035 A 
ENDBRANCH  19  21
ENDBRANCH   8  19
BRANCH   1  26
HETATM   26  O1  UNL     1      18.465   2.923  51.045  1.00  0.00    -0.301 OA
BRANCH  26  27
HETATM   27  C3  UNL     1      17.290   3.200  51.702  1.00  0.00     0.140 C 
HETATM   28  C2  UNL     1      16.368   4.092  52.021  1.00  0.00    -0.006 C 
HETATM   29  C1  UNL     1      15.122   3.993  52.833  1.00  0.00     0.038 C 
ENDBRANCH  26  27
ENDBRANCH   1  26
TORSDOF 4
ENDMDL
MODEL 4
REMARK VINA RESULT:      -7.3      3.460      4.995
REMARK  4 active torsions:
REMARK  status: ('A' for Active; 'I' for Inactive)
REMARK    1  A    between atoms: C3_3  and  O1_4 
REMARK    2  A    between atoms: O1_4  and  C4_5 
REMARK    3  A    between atoms: C9_12  and  N3_13 
REMARK    4  A    between atoms: N3_13  and  C10_14 
ROOT
HETATM    1  C4  UNL     1      25.392   2.126  51.835  1.00  0.00     0.185 C 
HETATM    2  C5  UNL     1      25.190   2.486  53.129  1.00  0.00     0.073 C 
HETATM    3  C6  UNL     1      24.277   3.554  53.017  1.00  0.00     0.007 A 
HETATM    4  C7  UNL     1      23.285   4.488  52.863  1.00  0.00     0.199 A 
HETATM    5  N1  UNL     1      22.090   4.939  52.599  1.00  0.00    -0.257 NA
HETATM    6  C8  UNL     1      21.008   4.259  52.232  1.00  0.00     0.143 A 
HETATM    7  N2  UNL     1      21.738   3.159  52.310  1.00  0.00    -0.232 NA
HETATM    8  C9  UNL     1      22.988   3.055  52.629  1.00  0.00     0.181 A 
HETATM    9  C14 UNL     1      19.791   3.574  51.829  1.00  0.00     0.056 C 
HETATM   10  C15 UNL     1      19.781   2.902  50.648  1.00  0.00     0.062 C 
HETATM   11  C16 UNL     1      20.915   2.804  49.729  1.00  0.00     0.164 C 
HETATM   12  N4  UNL     1      20.714   1.932  48.783  1.00  0.00    -0.237 NA
HETATM   13  C17 UNL     1      21.622   1.747  47.711  1.00  0.00     0.118 C 
HETATM   14  C18 UNL     1      22.721   2.483  47.661  1.00  0.00     0.027 C 
HETATM   15  C19 UNL     1      23.230   3.089  48.908  1.00  0.00     0.179 C 
HETATM   16  C20 UNL     1      24.094   2.118  49.692  1.00  0.00     0.214 C 
HETATM   17  O2  UNL     1      24.819   2.690  50.715  1.00  0.00    -0.327 OA
HETATM   18  O3  UNL     1      22.115   3.437  49.674  1.00  0.00    -0.323 OA
ENDROOT
BRANCH   8  19
HETATM   19  N3  UNL     1      22.757   1.612  52.637  1.00  0.00    -0.354 N 
HETATM   20  H8  UNL     1      23.039   1.154  51.709  1.00  0.00     0.162 HD
BRANCH  19  21
HETATM   21  C10 UNL     1      22.283   0.539  53.483  1.00  0.00     0.069 A 
HETATM   22  C11 UNL     1      22.997  -0.533  53.792  1.00  0.00     0.142 A 
HETATM   23  F1  UNL     1      24.252  -0.780  53.368  1.00  0.00    -0.204 F 
HETATM   24  C12 UNL     1      21.829  -0.911  54.556  1.00  0.00     0.047 A 
HETATM   25  C13 UNL     1      21.124   0.165  54.239  1.00  0.00     0.035 A 
ENDBRANCH  19  21
ENDBRANCH   8  19
BRANCH   1  26
HETATM   26  O1  UNL     1      26.286   1.054  51.629  1.00  0.00    -0.301 OA
BRANCH  26  27
HETATM   27  C3  UNL     1      27.172   0.734  52.631  1.00  0.00     0.140 C 
HETATM   28  C2  UNL     1      27.805  -0.208  53.308  1.00  0.00    -0.006 C 
HETATM   29  C1  UNL     1      28.781  -0.143  54.433  1.00  0.00     0.038 C 
ENDBRANCH  26  27
ENDBRANCH   1  26
TORSDOF 4
ENDMDL
MODEL 5
REMARK VINA RESULT:      -7.2      2.144      4.124
REMARK  4 active torsions:
REMARK  status: ('A' for Active; 'I' for Inactive)
REMARK    1  A    between atoms: C3_3  and  O1_4 
REMARK    2  A    between atoms: O1_4  and  C4_5 
REMARK    3  A    between atoms: C9_12  and  N3_13 
REMARK    4  A    between atoms: N3_13  and  C10_14 
ROOT
HETATM    1  C4  UNL     1      23.555   6.089  50.927  1.00  0.00     0.185 C 
HETATM    2  C5  UNL     1      23.628   5.571  52.180  1.00  0.00     0.073 C 
HETATM    3  C6  UNL     1      22.450   4.800  52.269  1.00  0.00     0.007 A 
HETATM    4  C7  UNL     1      21.371   3.956  52.252  1.00  0.00     0.199 A 
HETATM    5  N1  UNL     1      20.667   2.912  51.912  1.00  0.00    -0.257 NA
HETATM    6  C8  UNL     1      20.995   1.923  51.085  1.00  0.00     0.143 A 
HETATM    7  N2  UNL     1      22.160   2.525  50.913  1.00  0.00    -0.232 NA
HETATM    8  C9  UNL     1      22.570   3.631  51.444  1.00  0.00     0.181 A 
HETATM    9  C14 UNL     1      21.293   0.815  50.194  1.00  0.00     0.056 C 
HETATM   10  C15 UNL     1      21.512   1.076  48.878  1.00  0.00     0.062 C 
HETATM   11  C16 UNL     1      21.477   2.406  48.270  1.00  0.00     0.164 C 
HETATM   12  N4  UNL     1      21.931   2.406  47.049  1.00  0.00    -0.237 NA
HETATM   13  C17 UNL     1      21.886   3.554  46.220  1.00  0.00     0.118 C 
HETATM   14  C18 UNL     1      21.368   4.675  46.695  1.00  0.00     0.027 C 
HETATM   15  C19 UNL     1      21.314   4.871  48.158  1.00  0.00     0.179 C 
HETATM   16  C20 UNL     1      22.621   5.419  48.700  1.00  0.00     0.214 C 
HETATM   17  O2  UNL     1      22.558   5.880  49.997  1.00  0.00    -0.327 OA
HETATM   18  O3  UNL     1      21.069   3.619  48.726  1.00  0.00    -0.323 OA
ENDROOT
BRANCH   8  19
HETATM   19  N3  UNL     1      23.871   3.305  50.864  1.00  0.00    -0.354 N 
HETATM   20  H8  UNL     1      23.911   3.526  49.815  1.00  0.00     0.162 HD
BRANCH  19  21
HETATM   21  C10 UNL     1      25.175   2.788  51.213  1.00  0.00     0.069 A 
HETATM   22  C11 UNL     1      25.494   2.330  52.415  1.00  0.00     0.142 A 
HETATM   23  F1  UNL     1      24.662   2.280  53.474  1.00  0.00    -0.204 F 
HETATM   24  C12 UNL     1      26.788   2.086  51.818  1.00  0.00     0.047 A 
HETATM   25  C13 UNL     1      26.458   2.547  50.621  1.00  0.00     0.035 A 
ENDBRANCH  19  21
ENDBRANCH   8  19
BRANCH   1  26
HETATM   26  O1  UNL     1      24.625   6.927  50.545  1.00  0.00    -0.301 OA
BRANCH  26  27
HETATM   27  C3  UNL     1      25.724   6.358  49.946  1.00  0.00     0.140 C 
HETATM   28  C2  UNL     1      26.318   5.976  48.829  1.00  0.00    -0.006 C 
HETATM   29  C1  UNL     1      27.640   5.336  48.570  1.00  0.00     0.038 C 
ENDBRANCH  26  27
ENDBRANCH   1  26
TORSDOF 4
ENDMDL
MODEL 6
REMARK VINA RESULT:      -7.2      2.552      6.305
REMARK  4 active torsions:
REMARK  status: ('A' for Active; 'I' for Inactive)
REMARK    1  A    between atoms: C3_3  and  O1_4 
REMARK    2  A    between atoms: O1_4  and  C4_5 
REMARK    3  A    between atoms: C9_12  and  N3_13 
REMARK    4  A    between atoms: N3_13  and  C10_14 
ROOT
HETATM    1  C4  UNL     1      21.148   1.679  52.493  1.00  0.00     0.185 C 
HETATM    2  C5  UNL     1      20.440   2.744  52.038  1.00  0.00     0.073 C 
HETATM    3  C6  UNL     1      21.322   3.823  52.257  1.00  0.00     0.007 A 
HETATM    4  C7  UNL     1      22.267   4.810  52.358  1.00  0.00     0.199 A 
HETATM    5  N1  UNL     1      23.355   5.466  52.065  1.00  0.00    -0.257 NA
HETATM    6  C8  UNL     1      24.260   5.197  51.129  1.00  0.00     0.143 A 
HETATM    7  N2  UNL     1      23.524   4.150  50.794  1.00  0.00    -0.232 NA
HETATM    8  C9  UNL     1      22.414   3.756  51.327  1.00  0.00     0.181 A 
HETATM    9  C14 UNL     1      25.283   4.958  50.125  1.00  0.00     0.056 C 
HETATM   10  C15 UNL     1      26.012   3.813  50.195  1.00  0.00     0.062 C 
HETATM   11  C16 UNL     1      25.848   2.776  51.215  1.00  0.00     0.164 C 
HETATM   12  N4  UNL     1      26.514   1.693  50.932  1.00  0.00    -0.237 NA
HETATM   13  C17 UNL     1      26.602   0.598  51.827  1.00  0.00     0.118 C 
HETATM   14  C18 UNL     1      25.986   0.668  52.996  1.00  0.00     0.027 C 
HETATM   15  C19 UNL     1      24.853   1.603  53.150  1.00  0.00     0.179 C 
HETATM   16  C20 UNL     1      23.551   0.992  52.667  1.00  0.00     0.214 C 
HETATM   17  O2  UNL     1      22.419   1.691  53.027  1.00  0.00    -0.327 OA
HETATM   18  O3  UNL     1      25.149   2.728  52.378  1.00  0.00    -0.323 OA
ENDROOT
BRANCH   8  19
HETATM   19  N3  UNL     1      22.344   2.802  50.222  1.00  0.00    -0.354 N 
HETATM   20  H8  UNL     1      22.452   1.790  50.556  1.00  0.00     0.162 HD
BRANCH  19  21
HETATM   21  C10 UNL     1      22.158   2.732  48.790  1.00  0.00     0.069 A 
HETATM   22  C11 UNL     1      21.287   3.471  48.118  1.00  0.00     0.142 A 
HETATM   23  F1  UNL     1      20.457   4.383  48.662  1.00  0.00    -0.204 F 
HETATM   24  C12 UNL     1      21.806   2.772  46.963  1.00  0.00     0.047 A 
HETATM   25  C13 UNL     1      22.672   2.038  47.646  1.00  0.00     0.035 A 
ENDBRANCH  19  21
ENDBRANCH   8  19
BRANCH   1  26
HETATM   26  O1  UNL     1      20.501   0.428  52.401  1.00  0.00    -0.301 OA
BRANCH  26  27
HETATM   27  C3  UNL     1      19.435   0.300  51.541  1.00  0.00     0.140 C 
HETATM   28  C2  UNL     1      18.189  -0.098  51.354  1.00  0.00    -0.006 C 
HETATM   29  C1  UNL     1      17.298  -0.059  50.159  1.00  0.00     0.038 C 
ENDBRANCH  26  27
ENDBRANCH   1  26
TORSDOF 4
ENDMDL
MODEL 7
REMARK VINA RESULT:      -6.9      2.430      5.709
REMARK  4 active torsions:
REMARK  status: ('A' for Active; 'I' for Inactive)
REMARK    1  A    between atoms: C3_3  and  O1_4 
REMARK    2  A    between atoms: O1_4  and  C4_5 
REMARK    3  A    between atoms: C9_12  and  N3_13 
REMARK    4  A    between atoms: N3_13  and  C10_14 
ROOT
HETATM    1  C4  UNL     1      23.392   1.899  52.316  1.00  0.00     0.185 C 
HETATM    2  C5  UNL     1      24.523   2.241  52.985  1.00  0.00     0.073 C 
HETATM    3  C6  UNL     1      25.446   2.465  51.943  1.00  0.00     0.007 A 
HETATM    4  C7  UNL     1      26.260   2.808  50.895  1.00  0.00     0.199 A 
HETATM    5  N1  UNL     1      26.692   3.521  49.893  1.00  0.00    -0.257 NA
HETATM    6  C8  UNL     1      26.195   4.655  49.405  1.00  0.00     0.143 A 
HETATM    7  N2  UNL     1      25.268   4.590  50.346  1.00  0.00    -0.232 NA
HETATM    8  C9  UNL     1      25.116   3.679  51.252  1.00  0.00     0.181 A 
HETATM    9  C14 UNL     1      25.702   5.893  48.827  1.00  0.00     0.056 C 
HETATM   10  C15 UNL     1      24.457   5.908  48.281  1.00  0.00     0.062 C 
HETATM   11  C16 UNL     1      23.551   4.760  48.227  1.00  0.00     0.164 C 
HETATM   12  N4  UNL     1      22.350   5.094  47.850  1.00  0.00    -0.237 NA
HETATM   13  C17 UNL     1      21.332   4.136  47.613  1.00  0.00     0.118 C 
HETATM   14  C18 UNL     1      21.603   2.852  47.780  1.00  0.00     0.027 C 
HETATM   15  C19 UNL     1      22.729   2.468  48.655  1.00  0.00     0.179 C 
HETATM   16  C20 UNL     1      22.315   2.419  50.114  1.00  0.00     0.214 C 
HETATM   17  O2  UNL     1      23.227   1.811  50.950  1.00  0.00    -0.327 OA
HETATM   18  O3  UNL     1      23.720   3.439  48.489  1.00  0.00    -0.323 OA
ENDROOT
BRANCH   8  19
HETATM   19  N3  UNL     1      24.102   4.564  51.822  1.00  0.00    -0.354 N 
HETATM   20  H8  UNL     1      23.887   4.324  52.844  1.00  0.00     0.162 HD
BRANCH  19  21
HETATM   21  C10 UNL     1      23.268   5.699  51.494  1.00  0.00     0.069 A 
HETATM   22  C11 UNL     1      21.943   5.667  51.483  1.00  0.00     0.142 A 
HETATM   23  F1  UNL     1      21.189   4.588  51.768  1.00  0.00    -0.204 F 
HETATM   24  C12 UNL     1      22.059   7.060  51.110  1.00  0.00     0.047 A 
HETATM   25  C13 UNL     1      23.384   7.079  51.124  1.00  0.00     0.035 A 
ENDBRANCH  19  21
ENDBRANCH   8  19
BRANCH   1  26
HETATM   26  O1  UNL     1      22.268   1.608  53.119  1.00  0.00    -0.301 OA
BRANCH  26  27
HETATM   27  C3  UNL     1      22.109   0.325  53.588  1.00  0.00     0.140 C 
HETATM   28  C2  UNL     1      21.707  -0.468  54.566  1.00  0.00    -0.006 C 
HETATM   29  C1  UNL     1      21.699  -1.952  54.707  1.00  0.00     0.038 C 
ENDBRANCH  26  27
ENDBRANCH   1  26
TORSDOF 4
ENDMDL
MODEL 8
REMARK VINA RESULT:      -6.9     17.069     19.608
REMARK  4 active torsions:
REMARK  status: ('A' for Active; 'I' for Inactive)
REMARK    1  A    between atoms: C3_3  and  O1_4 
REMARK    2  A    between atoms: O1_4  and  C4_5 
REMARK    3  A    between atoms: C9_12  and  N3_13 
REMARK    4  A    between atoms: N3_13  and  C10_14 
ROOT
HETATM    1  C4  UNL     1      26.242  -6.718  64.361  1.00  0.00     0.185 C 
HETATM    2  C5  UNL     1      27.262  -6.477  63.498  1.00  0.00     0.073 C 
HETATM    3  C6  UNL     1      27.378  -5.072  63.535  1.00  0.00     0.007 A 
HETATM    4  C7  UNL     1      27.543  -3.723  63.716  1.00  0.00     0.199 A 
HETATM    5  N1  UNL     1      27.871  -2.626  64.339  1.00  0.00    -0.257 NA
HETATM    6  C8  UNL     1      28.380  -2.485  65.560  1.00  0.00     0.143 A 
HETATM    7  N2  UNL     1      28.348  -3.803  65.668  1.00  0.00    -0.232 NA
HETATM    8  C9  UNL     1      27.933  -4.662  64.794  1.00  0.00     0.181 A 
HETATM    9  C14 UNL     1      28.936  -2.264  66.884  1.00  0.00     0.056 C 
HETATM   10  C15 UNL     1      28.210  -2.644  67.969  1.00  0.00     0.062 C 
HETATM   11  C16 UNL     1      26.890  -3.272  67.916  1.00  0.00     0.164 C 
HETATM   12  N4  UNL     1      26.511  -3.729  69.076  1.00  0.00    -0.237 NA
HETATM   13  C17 UNL     1      25.222  -4.274  69.296  1.00  0.00     0.118 C 
HETATM   14  C18 UNL     1      24.363  -4.327  68.290  1.00  0.00     0.027 C 
HETATM   15  C19 UNL     1      24.881  -4.303  66.908  1.00  0.00     0.179 C 
HETATM   16  C20 UNL     1      25.291  -5.686  66.437  1.00  0.00     0.214 C 
HETATM   17  O2  UNL     1      25.525  -5.787  65.082  1.00  0.00    -0.327 OA
HETATM   18  O3  UNL     1      26.000  -3.466  66.909  1.00  0.00    -0.323 OA
ENDROOT
BRANCH   8  19
HETATM   19  N3  UNL     1      28.478  -5.679  65.692  1.00  0.00    -0.354 N 
HETATM   20  H8  UNL     1      27.714  -6.318  66.087  1.00  0.00     0.162 HD
BRANCH  19  21
HETATM   21  C10 UNL     1      29.725  -6.160  66.243  1.00  0.00     0.069 A 
HETATM   22  C11 UNL     1      30.400  -7.193  65.761  1.00  0.00     0.142 A 
HETATM   23  F1  UNL     1      30.029  -7.939  64.703  1.00  0.00    -0.204 F 
HETATM   24  C12 UNL     1      31.334  -6.892  66.824  1.00  0.00     0.047 A 
HETATM   25  C13 UNL     1      30.650  -5.860  67.297  1.00  0.00     0.035 A 
ENDBRANCH  19  21
ENDBRANCH   8  19
BRANCH   1  26
HETATM   26  O1  UNL     1      25.889  -8.074  64.531  1.00  0.00    -0.301 OA
BRANCH  26  27
HETATM   27  C3  UNL     1      26.806  -9.040  64.188  1.00  0.00     0.140 C 
HETATM   28  C2  UNL     1      27.049 -10.188  63.582  1.00  0.00    -0.006 C 
HETATM   29  C1  UNL     1      28.299 -10.984  63.415  1.00  0.00     0.038 C 
ENDBRANCH  26  27
ENDBRANCH   1  26
TORSDOF 4
ENDMDL
MODEL 9
REMARK VINA RESULT:      -6.4     23.328     25.764
REMARK  4 active torsions:
REMARK  status: ('A' for Active; 'I' for Inactive)
REMARK    1  A    between atoms: C3_3  and  O1_4 
REMARK    2  A    between atoms: O1_4  and  C4_5 
REMARK    3  A    between atoms: C9_12  and  N3_13 
REMARK    4  A    between atoms: N3_13  and  C10_14 
ROOT
HETATM    1  C4  UNL     1      38.455   0.784  68.438  1.00  0.00     0.185 C 
HETATM    2  C5  UNL     1      37.319   0.063  68.258  1.00  0.00     0.073 C 
HETATM    3  C6  UNL     1      37.741  -0.981  67.410  1.00  0.00     0.007 A 
HETATM    4  C7  UNL     1      38.233  -2.049  66.706  1.00  0.00     0.199 A 
HETATM    5  N1  UNL     1      38.906  -3.147  66.504  1.00  0.00    -0.257 NA
HETATM    6  C8  UNL     1      39.647  -3.838  67.367  1.00  0.00     0.143 A 
HETATM    7  N2  UNL     1      39.322  -2.940  68.282  1.00  0.00    -0.232 NA
HETATM    8  C9  UNL     1      38.574  -1.894  68.140  1.00  0.00     0.181 A 
HETATM    9  C14 UNL     1      40.470  -4.636  68.259  1.00  0.00     0.056 C 
HETATM   10  C15 UNL     1      41.582  -4.073  68.801  1.00  0.00     0.062 C 
HETATM   11  C16 UNL     1      42.030  -2.701  68.558  1.00  0.00     0.164 C 
HETATM   12  N4  UNL     1      42.994  -2.345  69.359  1.00  0.00    -0.237 NA
HETATM   13  C17 UNL     1      43.668  -1.104  69.235  1.00  0.00     0.118 C 
HETATM   14  C18 UNL     1      43.309  -0.267  68.275  1.00  0.00     0.027 C 
HETATM   15  C19 UNL     1      41.956  -0.385  67.695  1.00  0.00     0.179 C 
HETATM   16  C20 UNL     1      40.922   0.356  68.524  1.00  0.00     0.214 C 
HETATM   17  O2  UNL     1      39.700   0.520  67.909  1.00  0.00    -0.327 OA
HETATM   18  O3  UNL     1      41.640  -1.746  67.675  1.00  0.00    -0.323 OA
ENDROOT
BRANCH   8  19
HETATM   19  N3  UNL     1      38.666  -1.761  69.593  1.00  0.00    -0.354 N 
HETATM   20  H8  UNL     1      39.210  -0.884  69.883  1.00  0.00     0.162 HD
BRANCH  19  21
HETATM   21  C10 UNL     1      38.258  -2.402  70.823  1.00  0.00     0.069 A 
HETATM   22  C11 UNL     1      37.080  -2.218  71.400  1.00  0.00     0.142 A 
HETATM   23  F1  UNL     1      36.103  -1.416  70.934  1.00  0.00    -0.204 F 
HETATM   24  C12 UNL     1      37.579  -3.152  72.384  1.00  0.00     0.047 A 
HETATM   25  C13 UNL     1      38.755  -3.328  71.798  1.00  0.00     0.035 A 
ENDBRANCH  19  21
ENDBRANCH   8  19
BRANCH   1  26
HETATM   26  O1  UNL     1      38.336   1.922  69.264  1.00  0.00    -0.301 OA
BRANCH  26  27
HETATM   27  C3  UNL     1      38.016   1.743  70.590  1.00  0.00     0.140 C 
HETATM   28  C2  UNL     1      37.087   1.755  71.529  1.00  0.00    -0.006 C 
HETATM   29  C1  UNL     1      37.144   1.475  72.992  1.00  0.00     0.038 C 
ENDBRANCH  26  27
ENDBRANCH   1  26
TORSDOF 4
ENDMDL
