MODEL 1
REMARK VINA RESULT:      -8.8      0.000      0.000
REMARK  4 active torsions:
REMARK  status: ('A' for Active; 'I' for Inactive)
REMARK    1  A    between atoms: C2_2  and  O1_3 
REMARK    2  A    between atoms: O1_3  and  C3_4 
REMARK    3  A    between atoms: C7_10  and  C8_11 
REMARK    4  A    between atoms: C22_27  and  O2_28 
ROOT
HETATM    1  C3  UNL     1      26.932   0.131  53.748  1.00  0.00     0.105 A 
HETATM    2  C4  UNL     1      27.570   0.874  52.702  1.00  0.00     0.085 A 
HETATM    3  C5  UNL     1      26.722   1.663  51.931  1.00  0.00     0.123 A 
HETATM    4  N1  UNL     1      26.697   2.434  50.969  1.00  0.00    -0.398 NA
HETATM    5  C6  UNL     1      26.287   3.184  50.117  1.00  0.00     0.300 A 
HETATM    6  N2  UNL     1      24.966   3.137  50.476  1.00  0.00    -0.229 NA
HETATM    7  C7  UNL     1      24.466   2.421  51.496  1.00  0.00     0.085 A 
HETATM    8  C20 UNL     1      25.355   1.676  52.224  1.00  0.00     0.037 A 
HETATM    9  C21 UNL     1      24.813   0.938  53.243  1.00  0.00     0.057 A 
HETATM   10  C22 UNL     1      25.548   0.127  54.060  1.00  0.00     0.102 A 
ENDROOT
BRANCH   7  11
HETATM   11  C8  UNL     1      23.030   2.521  51.917  1.00  0.00     0.017 C 
HETATM   12  C9  UNL     1      22.249   1.497  51.955  1.00  0.00     0.032 C 
HETATM   13  S1  UNL     1      20.667   1.950  52.068  1.00  0.00    -0.102 SA
HETATM   14  C10 UNL     1      19.287   0.768  51.812  1.00  0.00     0.007 A 
HETATM   15  C15 UNL     1      19.827   3.412  51.307  1.00  0.00     0.069 C 
HETATM   16  C11 UNL     1      18.769  -0.453  51.882  1.00  0.00     0.016 A 
HETATM   17  C14 UNL     1      18.345   1.725  51.338  1.00  0.00     0.171 A 
HETATM   18  C12 UNL     1      17.460  -0.188  51.315  1.00  0.00    -0.001 A 
HETATM   19  C13 UNL     1      17.147   1.037  50.955  1.00  0.00     0.005 A 
HETATM   20  N3  UNL     1      18.653   2.998  51.000  1.00  0.00    -0.273 NA
HETATM   21  C16 UNL     1      20.546   4.733  51.140  1.00  0.00     0.093 C 
HETATM   22  C17 UNL     1      21.811   4.763  51.883  1.00  0.00    -0.013 C 
HETATM   23  C18 UNL     1      22.844   3.978  52.247  1.00  0.00    -0.051 C 
HETATM   24  C19 UNL     1      23.901   4.703  53.057  1.00  0.00     0.049 C 
ENDBRANCH   7  11
BRANCH  10  25
HETATM   25  O2  UNL     1      25.609  -0.752  55.093  1.00  0.00    -0.353 OA
HETATM   26  C23 UNL     1      24.396  -1.285  55.663  1.00  0.00     0.210 C 
ENDBRANCH  10  25
BRANCH   1  27
HETATM   27  O1  UNL     1      27.985  -0.554  54.340  1.00  0.00    -0.349 OA
BRANCH  27  28
HETATM   28  C2  UNL     1      29.306  -0.618  53.961  1.00  0.00     0.171 C 
HETATM   29  C1  UNL     1      29.724  -1.987  53.431  1.00  0.00     0.034 C 
ENDBRANCH  27  28
ENDBRANCH   1  27
TORSDOF 4
ENDMDL
MODEL 2
REMARK VINA RESULT:      -8.5      4.032      7.862
REMARK  4 active torsions:
REMARK  status: ('A' for Active; 'I' for Inactive)
REMARK    1  A    between atoms: C2_2  and  O1_3 
REMARK    2  A    between atoms: O1_3  and  C3_4 
REMARK    3  A    between atoms: C7_10  and  C8_11 
REMARK    4  A    between atoms: C22_27  and  O2_28 
ROOT
HETATM    1  C3  UNL     1      23.344   6.250  48.749  1.00  0.00     0.105 A 
HETATM    2  C4  UNL     1      22.567   5.324  47.980  1.00  0.00     0.085 A 
HETATM    3  C5  UNL     1      22.520   4.027  48.481  1.00  0.00     0.123 A 
HETATM    4  N1  UNL     1      22.068   2.901  48.261  1.00  0.00    -0.398 NA
HETATM    5  C6  UNL     1      21.827   1.724  48.379  1.00  0.00     0.300 A 
HETATM    6  N2  UNL     1      22.527   1.526  49.539  1.00  0.00    -0.229 NA
HETATM    7  C7  UNL     1      23.211   2.472  50.201  1.00  0.00     0.085 A 
HETATM    8  C20 UNL     1      23.207   3.731  49.662  1.00  0.00     0.037 A 
HETATM    9  C21 UNL     1      23.932   4.670  50.347  1.00  0.00     0.057 A 
HETATM   10  C22 UNL     1      24.052   5.970  49.946  1.00  0.00     0.102 A 
ENDROOT
BRANCH   7  11
HETATM   11  C8  UNL     1      23.844   2.217  51.537  1.00  0.00     0.017 C 
HETATM   12  C9  UNL     1      25.080   2.485  51.777  1.00  0.00     0.032 C 
HETATM   13  S1  UNL     1      25.597   1.756  53.164  1.00  0.00    -0.102 SA
HETATM   14  C10 UNL     1      27.372   1.657  53.618  1.00  0.00     0.007 A 
HETATM   15  C15 UNL     1      25.120   0.104  53.845  1.00  0.00     0.069 C 
HETATM   16  C11 UNL     1      28.606   2.149  53.616  1.00  0.00     0.016 A 
HETATM   17  C14 UNL     1      27.276   0.450  54.368  1.00  0.00     0.171 A 
HETATM   18  C12 UNL     1      29.285   1.090  54.339  1.00  0.00    -0.001 A 
HETATM   19  C13 UNL     1      28.593   0.066  54.786  1.00  0.00     0.005 A 
HETATM   20  N3  UNL     1      26.188  -0.354  54.387  1.00  0.00    -0.273 NA
HETATM   21  C16 UNL     1      23.718  -0.440  53.680  1.00  0.00     0.093 C 
HETATM   22  C17 UNL     1      22.789   0.586  53.193  1.00  0.00    -0.013 C 
HETATM   23  C18 UNL     1      22.725   1.653  52.372  1.00  0.00    -0.051 C 
HETATM   24  C19 UNL     1      21.353   2.297  52.318  1.00  0.00     0.049 C 
ENDBRANCH   7  11
BRANCH  10  25
HETATM   25  O2  UNL     1      24.559   7.215  50.138  1.00  0.00    -0.353 OA
HETATM   26  C23 UNL     1      25.986   7.428  50.105  1.00  0.00     0.210 C 
ENDBRANCH  10  25
BRANCH   1  27
HETATM   27  O1  UNL     1      23.225   7.435  48.036  1.00  0.00    -0.349 OA
BRANCH  27  28
HETATM   28  C2  UNL     1      23.557   7.703  46.727  1.00  0.00     0.171 C 
HETATM   29  C1  UNL     1      25.020   8.096  46.536  1.00  0.00     0.034 C 
ENDBRANCH  27  28
ENDBRANCH   1  27
TORSDOF 4
ENDMDL
MODEL 3
REMARK VINA RESULT:      -7.9      2.442      4.753
REMARK  4 active torsions:
REMARK  status: ('A' for Active; 'I' for Inactive)
REMARK    1  A    between atoms: C2_2  and  O1_3 
REMARK    2  A    between atoms: O1_3  and  C3_4 
REMARK    3  A    between atoms: C7_10  and  C8_11 
REMARK    4  A    between atoms: C22_27  and  O2_28 
ROOT
HETATM    1  C3  UNL     1      26.569  -0.099  53.715  1.00  0.00     0.105 A 
HETATM    2  C4  UNL     1      25.531  -0.846  54.361  1.00  0.00     0.085 A 
HETATM    3  C5  UNL     1      24.234  -0.434  54.072  1.00  0.00     0.123 A 
HETATM    4  N1  UNL     1      23.049  -0.662  54.323  1.00  0.00    -0.398 NA
HETATM    5  C6  UNL     1      21.845  -0.578  54.323  1.00  0.00     0.300 A 
HETATM    6  N2  UNL     1      21.752   0.479  53.457  1.00  0.00    -0.229 NA
HETATM    7  C7  UNL     1      22.793   1.102  52.882  1.00  0.00     0.085 A 
HETATM    8  C20 UNL     1      24.042   0.640  53.198  1.00  0.00     0.037 A 
HETATM    9  C21 UNL     1      25.085   1.310  52.614  1.00  0.00     0.057 A 
HETATM   10  C22 UNL     1      26.397   0.995  52.829  1.00  0.00     0.102 A 
ENDROOT
BRANCH   7  11
HETATM   11  C8  UNL     1      22.614   2.165  51.839  1.00  0.00     0.017 C 
HETATM   12  C9  UNL     1      23.407   3.175  51.741  1.00  0.00     0.032 C 
HETATM   13  S1  UNL     1      22.761   4.359  50.790  1.00  0.00    -0.102 SA
HETATM   14  C10 UNL     1      23.469   6.049  50.709  1.00  0.00     0.007 A 
HETATM   15  C15 UNL     1      20.991   4.871  50.628  1.00  0.00     0.069 C 
HETATM   16  C11 UNL     1      24.500   6.886  50.761  1.00  0.00     0.016 A 
HETATM   17  C14 UNL     1      22.249   6.717  50.402  1.00  0.00     0.171 A 
HETATM   18  C12 UNL     1      23.797   8.140  50.562  1.00  0.00    -0.001 A 
HETATM   19  C13 UNL     1      22.497   8.129  50.370  1.00  0.00     0.005 A 
HETATM   20  N3  UNL     1      21.027   6.142  50.464  1.00  0.00    -0.273 NA
HETATM   21  C16 UNL     1      19.868   3.861  50.720  1.00  0.00     0.093 C 
HETATM   22  C17 UNL     1      20.369   2.483  50.667  1.00  0.00    -0.013 C 
HETATM   23  C18 UNL     1      21.406   1.717  51.060  1.00  0.00    -0.051 C 
HETATM   24  C19 UNL     1      21.273   0.261  50.658  1.00  0.00     0.049 C 
ENDBRANCH   7  11
BRANCH  10  25
HETATM   25  O2  UNL     1      27.714   1.239  52.602  1.00  0.00    -0.353 OA
HETATM   26  C23 UNL     1      28.371   2.339  53.266  1.00  0.00     0.210 C 
ENDBRANCH  10  25
BRANCH   1  27
HETATM   27  O1  UNL     1      27.731  -0.705  54.174  1.00  0.00    -0.349 OA
BRANCH  27  28
HETATM   28  C2  UNL     1      28.625  -1.501  53.495  1.00  0.00     0.171 C 
HETATM   29  C1  UNL     1      30.079  -1.067  53.662  1.00  0.00     0.034 C 
ENDBRANCH  27  28
ENDBRANCH   1  27
TORSDOF 4
ENDMDL
MODEL 4
REMARK VINA RESULT:      -7.9      3.102      4.565
REMARK  4 active torsions:
REMARK  status: ('A' for Active; 'I' for Inactive)
REMARK    1  A    between atoms: C2_2  and  O1_3 
REMARK    2  A    between atoms: O1_3  and  C3_4 
REMARK    3  A    between atoms: C7_10  and  C8_11 
REMARK    4  A    between atoms: C22_27  and  O2_28 
ROOT
HETATM    1  C3  UNL     1      26.648   1.518  52.072  1.00  0.00     0.105 A 
HETATM    2  C4  UNL     1      26.119   0.397  52.790  1.00  0.00     0.085 A 
HETATM    3  C5  UNL     1      24.739   0.238  52.710  1.00  0.00     0.123 A 
HETATM    4  N1  UNL     1      23.804  -0.466  53.099  1.00  0.00    -0.398 NA
HETATM    5  C6  UNL     1      22.687  -0.889  53.266  1.00  0.00     0.300 A 
HETATM    6  N2  UNL     1      22.038   0.049  52.506  1.00  0.00    -0.229 NA
HETATM    7  C7  UNL     1      22.632   1.057  51.848  1.00  0.00     0.085 A 
HETATM    8  C20 UNL     1      23.994   1.150  51.957  1.00  0.00     0.037 A 
HETATM    9  C21 UNL     1      24.569   2.202  51.294  1.00  0.00     0.057 A 
HETATM   10  C22 UNL     1      25.911   2.457  51.306  1.00  0.00     0.102 A 
ENDROOT
BRANCH   7  11
HETATM   11  C8  UNL     1      21.877   1.967  50.927  1.00  0.00     0.017 C 
HETATM   12  C9  UNL     1      22.022   1.930  49.648  1.00  0.00     0.032 C 
HETATM   13  S1  UNL     1      21.386   3.272  48.928  1.00  0.00    -0.102 SA
HETATM   14  C10 UNL     1      21.713   3.692  47.173  1.00  0.00     0.007 A 
HETATM   15  C15 UNL     1      21.359   5.012  49.553  1.00  0.00     0.069 C 
HETATM   16  C11 UNL     1      21.960   3.341  45.916  1.00  0.00     0.016 A 
HETATM   17  C14 UNL     1      21.580   5.103  47.321  1.00  0.00     0.171 A 
HETATM   18  C12 UNL     1      22.072   4.659  45.319  1.00  0.00    -0.001 A 
HETATM   19  C13 UNL     1      21.889   5.725  46.066  1.00  0.00     0.005 A 
HETATM   20  N3  UNL     1      21.507   5.743  48.510  1.00  0.00    -0.273 NA
HETATM   21  C16 UNL     1      21.210   5.316  51.028  1.00  0.00     0.093 C 
HETATM   22  C17 UNL     1      20.825   4.125  51.794  1.00  0.00    -0.013 C 
HETATM   23  C18 UNL     1      21.017   2.793  51.847  1.00  0.00    -0.051 C 
HETATM   24  C19 UNL     1      20.277   2.117  52.985  1.00  0.00     0.049 C 
ENDBRANCH   7  11
BRANCH  10  25
HETATM   25  O2  UNL     1      26.962   3.229  50.926  1.00  0.00    -0.353 OA
HETATM   26  C23 UNL     1      26.908   3.963  49.684  1.00  0.00     0.210 C 
ENDBRANCH  10  25
BRANCH   1  27
HETATM   27  O1  UNL     1      28.012   1.442  52.322  1.00  0.00    -0.349 OA
BRANCH  27  28
HETATM   28  C2  UNL     1      28.671   1.263  53.517  1.00  0.00     0.171 C 
HETATM   29  C1  UNL     1      29.671   0.110  53.498  1.00  0.00     0.034 C 
ENDBRANCH  27  28
ENDBRANCH   1  27
TORSDOF 4
ENDMDL
MODEL 5
REMARK VINA RESULT:      -7.7      9.196     12.467
REMARK  4 active torsions:
REMARK  status: ('A' for Active; 'I' for Inactive)
REMARK    1  A    between atoms: C2_2  and  O1_3 
REMARK    2  A    between atoms: O1_3  and  C3_4 
REMARK    3  A    between atoms: C7_10  and  C8_11 
REMARK    4  A    between atoms: C22_27  and  O2_28 
ROOT
HETATM    1  C3  UNL     1      33.593   6.095  42.735  1.00  0.00     0.105 A 
HETATM    2  C4  UNL     1      34.515   5.049  43.068  1.00  0.00     0.085 A 
HETATM    3  C5  UNL     1      34.510   4.654  44.402  1.00  0.00     0.123 A 
HETATM    4  N1  UNL     1      35.047   3.888  45.205  1.00  0.00    -0.398 NA
HETATM    5  C6  UNL     1      35.323   3.324  46.235  1.00  0.00     0.300 A 
HETATM    6  N2  UNL     1      34.432   3.991  47.034  1.00  0.00    -0.229 NA
HETATM    7  C7  UNL     1      33.587   4.948  46.619  1.00  0.00     0.085 A 
HETATM    8  C20 UNL     1      33.633   5.281  45.291  1.00  0.00     0.037 A 
HETATM    9  C21 UNL     1      32.776   6.277  44.902  1.00  0.00     0.057 A 
HETATM   10  C22 UNL     1      32.698   6.746  43.622  1.00  0.00     0.102 A 
ENDROOT
BRANCH   7  11
HETATM   11  C8  UNL     1      32.544   5.541  47.518  1.00  0.00     0.017 C 
HETATM   12  C9  UNL     1      31.403   4.980  47.716  1.00  0.00     0.032 C 
HETATM   13  S1  UNL     1      30.330   6.021  48.415  1.00  0.00    -0.102 SA
HETATM   14  C10 UNL     1      28.537   5.653  48.529  1.00  0.00     0.007 A 
HETATM   15  C15 UNL     1      30.148   7.842  48.146  1.00  0.00     0.069 C 
HETATM   16  C11 UNL     1      27.526   4.799  48.647  1.00  0.00     0.016 A 
HETATM   17  C14 UNL     1      28.096   7.007  48.512  1.00  0.00     0.171 A 
HETATM   18  C12 UNL     1      26.418   5.734  48.597  1.00  0.00    -0.001 A 
HETATM   19  C13 UNL     1      26.662   7.022  48.497  1.00  0.00     0.005 A 
HETATM   20  N3  UNL     1      28.888   8.065  48.223  1.00  0.00    -0.273 NA
HETATM   21  C16 UNL     1      31.350   8.722  47.881  1.00  0.00     0.093 C 
HETATM   22  C17 UNL     1      32.610   8.016  48.140  1.00  0.00    -0.013 C 
HETATM   23  C18 UNL     1      33.183   6.801  48.042  1.00  0.00    -0.051 C 
HETATM   24  C19 UNL     1      34.626   6.769  48.507  1.00  0.00     0.049 C 
ENDBRANCH   7  11
BRANCH  10  25
HETATM   25  O2  UNL     1      32.153   7.599  42.716  1.00  0.00    -0.353 OA
HETATM   26  C23 UNL     1      31.714   8.910  43.129  1.00  0.00     0.210 C 
ENDBRANCH  10  25
BRANCH   1  27
HETATM   27  O1  UNL     1      33.808   6.289  41.377  1.00  0.00    -0.349 OA
BRANCH  27  28
HETATM   28  C2  UNL     1      33.546   5.442  40.324  1.00  0.00     0.171 C 
HETATM   29  C1  UNL     1      32.071   5.076  40.186  1.00  0.00     0.034 C 
ENDBRANCH  27  28
ENDBRANCH   1  27
TORSDOF 4
ENDMDL
MODEL 6
REMARK VINA RESULT:      -7.7      2.470      4.716
REMARK  4 active torsions:
REMARK  status: ('A' for Active; 'I' for Inactive)
REMARK    1  A    between atoms: C2_2  and  O1_3 
REMARK    2  A    between atoms: O1_3  and  C3_4 
REMARK    3  A    between atoms: C7_10  and  C8_11 
REMARK    4  A    between atoms: C22_27  and  O2_28 
ROOT
HETATM    1  C3  UNL     1      25.389   0.094  53.130  1.00  0.00     0.105 A 
HETATM    2  C4  UNL     1      24.392  -0.472  53.991  1.00  0.00     0.085 A 
HETATM    3  C5  UNL     1      23.104   0.022  53.814  1.00  0.00     0.123 A 
HETATM    4  N1  UNL     1      21.949  -0.064  54.238  1.00  0.00    -0.398 NA
HETATM    5  C6  UNL     1      20.766   0.131  54.375  1.00  0.00     0.300 A 
HETATM    6  N2  UNL     1      20.639   1.083  53.399  1.00  0.00    -0.229 NA
HETATM    7  C7  UNL     1      21.638   1.534  52.623  1.00  0.00     0.085 A 
HETATM    8  C20 UNL     1      22.880   0.998  52.839  1.00  0.00     0.037 A 
HETATM    9  C21 UNL     1      23.883   1.494  52.049  1.00  0.00     0.057 A 
HETATM   10  C22 UNL     1      25.184   1.087  52.139  1.00  0.00     0.102 A 
ENDROOT
BRANCH   7  11
HETATM   11  C8  UNL     1      21.404   2.478  51.482  1.00  0.00     0.017 C 
HETATM   12  C9  UNL     1      21.777   3.710  51.518  1.00  0.00     0.032 C 
HETATM   13  S1  UNL     1      21.058   4.594  50.324  1.00  0.00    -0.102 SA
HETATM   14  C10 UNL     1      21.108   6.427  50.294  1.00  0.00     0.007 A 
HETATM   15  C15 UNL     1      19.350   4.426  49.634  1.00  0.00     0.069 C 
HETATM   16  C11 UNL     1      21.712   7.582  50.554  1.00  0.00     0.016 A 
HETATM   17  C14 UNL     1      19.876   6.609  49.603  1.00  0.00     0.171 A 
HETATM   18  C12 UNL     1      20.699   8.496  50.058  1.00  0.00    -0.001 A 
HETATM   19  C13 UNL     1      19.603   8.013  49.516  1.00  0.00     0.005 A 
HETATM   20  N3  UNL     1      18.977   5.625  49.375  1.00  0.00    -0.273 NA
HETATM   21  C16 UNL     1      18.684   3.074  49.502  1.00  0.00     0.093 C 
HETATM   22  C17 UNL     1      19.635   1.976  49.712  1.00  0.00    -0.013 C 
HETATM   23  C18 UNL     1      20.715   1.635  50.442  1.00  0.00    -0.051 C 
HETATM   24  C19 UNL     1      21.231   0.240  50.149  1.00  0.00     0.049 C 
ENDBRANCH   7  11
BRANCH  10  25
HETATM   25  O2  UNL     1      26.473   1.178  51.721  1.00  0.00    -0.353 OA
HETATM   26  C23 UNL     1      27.159   2.446  51.764  1.00  0.00     0.210 C 
ENDBRANCH  10  25
BRANCH   1  27
HETATM   27  O1  UNL     1      26.551  -0.560  53.516  1.00  0.00    -0.349 OA
BRANCH  27  28
HETATM   28  C2  UNL     1      27.489  -0.191  54.453  1.00  0.00     0.171 C 
HETATM   29  C1  UNL     1      28.924  -0.244  53.936  1.00  0.00     0.034 C 
ENDBRANCH  27  28
ENDBRANCH   1  27
TORSDOF 4
ENDMDL
MODEL 7
REMARK VINA RESULT:      -7.7      4.409      7.449
REMARK  4 active torsions:
REMARK  status: ('A' for Active; 'I' for Inactive)
REMARK    1  A    between atoms: C2_2  and  O1_3 
REMARK    2  A    between atoms: O1_3  and  C3_4 
REMARK    3  A    between atoms: C7_10  and  C8_11 
REMARK    4  A    between atoms: C22_27  and  O2_28 
ROOT
HETATM    1  C3  UNL     1      22.287   5.635  46.818  1.00  0.00     0.105 A 
HETATM    2  C4  UNL     1      22.987   6.742  47.399  1.00  0.00     0.085 A 
HETATM    3  C5  UNL     1      23.696   6.454  48.561  1.00  0.00     0.123 A 
HETATM    4  N1  UNL     1      24.405   6.960  49.434  1.00  0.00    -0.398 NA
HETATM    5  C6  UNL     1      25.086   7.082  50.423  1.00  0.00     0.300 A 
HETATM    6  N2  UNL     1      25.014   5.778  50.836  1.00  0.00    -0.229 NA
HETATM    7  C7  UNL     1      24.346   4.801  50.204  1.00  0.00     0.085 A 
HETATM    8  C20 UNL     1      23.679   5.148  49.059  1.00  0.00     0.037 A 
HETATM    9  C21 UNL     1      22.987   4.135  48.448  1.00  0.00     0.057 A 
HETATM   10  C22 UNL     1      22.255   4.304  47.308  1.00  0.00     0.102 A 
ENDROOT
BRANCH   7  11
HETATM   11  C8  UNL     1      24.421   3.368  50.638  1.00  0.00     0.017 C 
HETATM   12  C9  UNL     1      23.379   2.698  50.990  1.00  0.00     0.032 C 
HETATM   13  S1  UNL     1      23.793   1.308  51.777  1.00  0.00    -0.102 SA
HETATM   14  C10 UNL     1      22.568   0.298  52.695  1.00  0.00     0.007 A 
HETATM   15  C15 UNL     1      25.207   1.013  52.932  1.00  0.00     0.069 C 
HETATM   16  C11 UNL     1      21.336  -0.169  52.869  1.00  0.00     0.016 A 
HETATM   17  C14 UNL     1      23.484  -0.238  53.645  1.00  0.00     0.171 A 
HETATM   18  C12 UNL     1      21.548  -0.957  54.069  1.00  0.00    -0.001 A 
HETATM   19  C13 UNL     1      22.752  -1.029  54.591  1.00  0.00     0.005 A 
HETATM   20  N3  UNL     1      24.753   0.199  53.812  1.00  0.00    -0.273 NA
HETATM   21  C16 UNL     1      26.541   1.700  52.734  1.00  0.00     0.093 C 
HETATM   22  C17 UNL     1      26.628   2.354  51.423  1.00  0.00    -0.013 C 
HETATM   23  C18 UNL     1      25.883   3.024  50.523  1.00  0.00    -0.051 C 
HETATM   24  C19 UNL     1      26.660   3.465  49.298  1.00  0.00     0.049 C 
ENDBRANCH   7  11
BRANCH  10  25
HETATM   25  O2  UNL     1      21.443   3.790  46.348  1.00  0.00    -0.353 OA
HETATM   26  C23 UNL     1      20.137   3.287  46.697  1.00  0.00     0.210 C 
ENDBRANCH  10  25
BRANCH   1  27
HETATM   27  O1  UNL     1      21.678   6.193  45.702  1.00  0.00    -0.349 OA
BRANCH  27  28
HETATM   28  C2  UNL     1      20.809   7.257  45.624  1.00  0.00     0.171 C 
HETATM   29  C1  UNL     1      19.401   6.933  46.117  1.00  0.00     0.034 C 
ENDBRANCH  27  28
ENDBRANCH   1  27
TORSDOF 4
ENDMDL
MODEL 8
REMARK VINA RESULT:      -7.5      6.855     11.125
REMARK  4 active torsions:
REMARK  status: ('A' for Active; 'I' for Inactive)
REMARK    1  A    between atoms: C2_2  and  O1_3 
REMARK    2  A    between atoms: O1_3  and  C3_4 
REMARK    3  A    between atoms: C7_10  and  C8_11 
REMARK    4  A    between atoms: C22_27  and  O2_28 
ROOT
HETATM    1  C3  UNL     1      25.523   5.974  49.786  1.00  0.00     0.105 A 
HETATM    2  C4  UNL     1      25.632   7.367  50.106  1.00  0.00     0.085 A 
HETATM    3  C5  UNL     1      26.770   8.001  49.619  1.00  0.00     0.123 A 
HETATM    4  N1  UNL     1      27.361   9.083  49.594  1.00  0.00    -0.398 NA
HETATM    5  C6  UNL     1      28.196   9.923  49.363  1.00  0.00     0.300 A 
HETATM    6  N2  UNL     1      29.042   9.122  48.642  1.00  0.00    -0.229 NA
HETATM    7  C7  UNL     1      28.838   7.823  48.375  1.00  0.00     0.085 A 
HETATM    8  C20 UNL     1      27.692   7.262  48.873  1.00  0.00     0.037 A 
HETATM    9  C21 UNL     1      27.522   5.929  48.603  1.00  0.00     0.057 A 
HETATM   10  C22 UNL     1      26.447   5.205  49.034  1.00  0.00     0.102 A 
ENDROOT
BRANCH   7  11
HETATM   11  C8  UNL     1      29.738   7.040  47.467  1.00  0.00     0.017 C 
HETATM   12  C9  UNL     1      30.350   5.975  47.852  1.00  0.00     0.032 C 
HETATM   13  S1  UNL     1      31.550   5.554  46.800  1.00  0.00    -0.102 SA
HETATM   14  C10 UNL     1      32.820   4.296  47.212  1.00  0.00     0.007 A 
HETATM   15  C15 UNL     1      32.666   6.658  45.822  1.00  0.00     0.069 C 
HETATM   16  C11 UNL     1      33.204   3.186  47.832  1.00  0.00     0.016 A 
HETATM   17  C14 UNL     1      33.851   4.838  46.392  1.00  0.00     0.171 A 
HETATM   18  C12 UNL     1      34.591   3.145  47.408  1.00  0.00    -0.001 A 
HETATM   19  C13 UNL     1      35.047   4.073  46.596  1.00  0.00     0.005 A 
HETATM   20  N3  UNL     1      33.795   6.050  45.796  1.00  0.00    -0.273 NA
HETATM   21  C16 UNL     1      32.178   7.978  45.267  1.00  0.00     0.093 C 
HETATM   22  C17 UNL     1      30.719   8.104  45.364  1.00  0.00    -0.013 C 
HETATM   23  C18 UNL     1      29.679   7.785  46.159  1.00  0.00    -0.051 C 
HETATM   24  C19 UNL     1      28.341   8.267  45.633  1.00  0.00     0.049 C 
ENDBRANCH   7  11
BRANCH  10  25
HETATM   25  O2  UNL     1      25.784   4.021  49.111  1.00  0.00    -0.353 OA
HETATM   26  C23 UNL     1      26.354   2.920  49.849  1.00  0.00     0.210 C 
ENDBRANCH  10  25
BRANCH   1  27
HETATM   27  O1  UNL     1      24.326   5.603  50.385  1.00  0.00    -0.349 OA
BRANCH  27  28
HETATM   28  C2  UNL     1      23.826   5.947  51.620  1.00  0.00     0.171 C 
HETATM   29  C1  UNL     1      22.665   5.067  52.076  1.00  0.00     0.034 C 
ENDBRANCH  27  28
ENDBRANCH   1  27
TORSDOF 4
ENDMDL
MODEL 9
REMARK VINA RESULT:      -7.5      3.743      6.437
REMARK  4 active torsions:
REMARK  status: ('A' for Active; 'I' for Inactive)
REMARK    1  A    between atoms: C2_2  and  O1_3 
REMARK    2  A    between atoms: O1_3  and  C3_4 
REMARK    3  A    between atoms: C7_10  and  C8_11 
REMARK    4  A    between atoms: C22_27  and  O2_28 
ROOT
HETATM    1  C3  UNL     1      24.686   0.555  52.698  1.00  0.00     0.105 A 
HETATM    2  C4  UNL     1      23.277   0.627  52.952  1.00  0.00     0.085 A 
HETATM    3  C5  UNL     1      22.614   1.678  52.327  1.00  0.00     0.123 A 
HETATM    4  N1  UNL     1      21.509   2.210  52.201  1.00  0.00    -0.398 NA
HETATM    5  C6  UNL     1      20.643   2.976  51.854  1.00  0.00     0.300 A 
HETATM    6  N2  UNL     1      21.436   3.785  51.083  1.00  0.00    -0.229 NA
HETATM    7  C7  UNL     1      22.753   3.619  50.888  1.00  0.00     0.085 A 
HETATM    8  C20 UNL     1      23.343   2.557  51.521  1.00  0.00     0.037 A 
HETATM    9  C21 UNL     1      24.693   2.426  51.322  1.00  0.00     0.057 A 
HETATM   10  C22 UNL     1      25.445   1.437  51.888  1.00  0.00     0.102 A 
ENDROOT
BRANCH   7  11
HETATM   11  C8  UNL     1      23.534   4.461  49.925  1.00  0.00     0.017 C 
HETATM   12  C9  UNL     1      24.439   5.293  50.311  1.00  0.00     0.032 C 
HETATM   13  S1  UNL     1      24.846   6.344  49.106  1.00  0.00    -0.102 SA
HETATM   14  C10 UNL     1      25.847   7.850  49.414  1.00  0.00     0.007 A 
HETATM   15  C15 UNL     1      23.759   7.085  47.806  1.00  0.00     0.069 C 
HETATM   16  C11 UNL     1      26.793   8.506  50.077  1.00  0.00     0.016 A 
HETATM   17  C14 UNL     1      25.299   8.625  48.352  1.00  0.00     0.171 A 
HETATM   18  C12 UNL     1      26.710   9.788  49.402  1.00  0.00    -0.001 A 
HETATM   19  C13 UNL     1      25.858   9.944  48.413  1.00  0.00     0.005 A 
HETATM   20  N3  UNL     1      24.207   8.275  47.636  1.00  0.00    -0.273 NA
HETATM   21  C16 UNL     1      22.612   6.305  47.201  1.00  0.00     0.093 C 
HETATM   22  C17 UNL     1      22.670   4.884  47.560  1.00  0.00    -0.013 C 
HETATM   23  C18 UNL     1      23.005   4.060  48.573  1.00  0.00    -0.051 C 
HETATM   24  C19 UNL     1      22.789   2.593  48.260  1.00  0.00     0.049 C 
ENDBRANCH   7  11
BRANCH  10  25
HETATM   25  O2  UNL     1      26.653   0.844  52.077  1.00  0.00    -0.353 OA
HETATM   26  C23 UNL     1      27.727   1.574  52.705  1.00  0.00     0.210 C 
ENDBRANCH  10  25
BRANCH   1  27
HETATM   27  O1  UNL     1      25.085  -0.556  53.430  1.00  0.00    -0.349 OA
BRANCH  27  28
HETATM   28  C2  UNL     1      25.079  -0.751  54.792  1.00  0.00     0.171 C 
HETATM   29  C1  UNL     1      26.284  -0.138  55.502  1.00  0.00     0.034 C 
ENDBRANCH  27  28
ENDBRANCH   1  27
TORSDOF 4
ENDMDL
