MODEL 1
REMARK VINA RESULT:      -8.8      0.000      0.000
REMARK  7 active torsions:
REMARK  status: ('A' for Active; 'I' for Inactive)
REMARK       I    between atoms: C2_2  and  N1_4 
REMARK    1  A    between atoms: N1_4  and  C3_5 
REMARK    2  A    between atoms: C6_8  and  S1_9 
REMARK    3  A    between atoms: S1_9  and  N2_12 
REMARK    4  A    between atoms: N2_12  and  C7_13 
REMARK    5  A    between atoms: C13_21  and  C14_22 
REMARK    6  A    between atoms: C17_25  and  C18_26 
REMARK    7  A    between atoms: C18_26  and  O5_28 
ROOT
HETATM    1  C7  UNL     1      24.476   2.015  53.152  1.00  0.00     0.167 C 
HETATM    2  N3  UNL     1      25.835   2.194  53.515  1.00  0.00    -0.229 NA
HETATM    3  C8  UNL     1      26.552   0.874  53.636  1.00  0.00     0.057 C 
HETATM    4  C9  UNL     1      26.321   0.164  54.769  1.00  0.00     0.036 C 
HETATM    5  C10 UNL     1      25.926  -0.844  53.761  1.00  0.00     0.157 C 
HETATM    6  C11 UNL     1      27.295  -0.971  53.104  1.00  0.00     0.006 C 
HETATM    7  C12 UNL     1      27.232   0.183  52.485  1.00  0.00     0.029 C 
HETATM    8  N4  UNL     1      24.848  -0.440  52.882  1.00  0.00    -0.272 NA
HETATM    9  C13 UNL     1      23.971   0.576  53.072  1.00  0.00     0.109 C 
ENDROOT
BRANCH   1  10
HETATM   10  N2  UNL     1      23.567   3.008  52.810  1.00  0.00    -0.262 N 
HETATM   11  H7  UNL     1      22.939   3.241  53.650  1.00  0.00     0.180 HD
BRANCH  10  12
HETATM   12  S1  UNL     1      23.814   3.455  51.147  1.00  0.00     0.264 S 
HETATM   13  O2  UNL     1      24.185   4.933  51.203  1.00  0.00    -0.200 OA
HETATM   14  O3  UNL     1      24.975   2.776  50.526  1.00  0.00    -0.200 OA
BRANCH  12  15
HETATM   15  C6  UNL     1      22.385   3.267  50.170  1.00  0.00     0.080 A 
HETATM   16  C5  UNL     1      21.158   3.888  50.280  1.00  0.00     0.027 A 
HETATM   17  C4  UNL     1      20.150   3.604  49.383  1.00  0.00     0.031 A 
HETATM   18  C3  UNL     1      20.296   2.707  48.344  1.00  0.00     0.034 A 
HETATM   19  C22 UNL     1      21.515   2.073  48.213  1.00  0.00     0.031 A 
HETATM   20  C21 UNL     1      22.521   2.359  49.113  1.00  0.00     0.027 A 
BRANCH  18  21
HETATM   21  N1  UNL     1      19.190   2.488  47.474  1.00  0.00    -0.328 N 
HETATM   22  C2  UNL     1      19.268   3.338  46.345  1.00  0.00     0.218 C 
HETATM   23  C1  UNL     1      18.296   3.391  45.229  1.00  0.00     0.117 C 
HETATM   24  O1  UNL     1      20.199   4.170  46.152  1.00  0.00    -0.274 OA
HETATM   25  H4  UNL     1      18.383   1.845  47.531  1.00  0.00     0.169 HD
ENDBRANCH  18  21
ENDBRANCH  12  15
ENDBRANCH  10  12
ENDBRANCH   1  10
BRANCH   9  26
HETATM   26  C14 UNL     1      22.562   0.307  53.120  1.00  0.00    -0.004 A 
HETATM   27  C15 UNL     1      21.834   0.315  51.967  1.00  0.00     0.015 A 
HETATM   28  C16 UNL     1      20.521  -0.008  51.865  1.00  0.00     0.019 A 
HETATM   29  C17 UNL     1      19.819  -0.381  52.974  1.00  0.00     0.037 A 
HETATM   30  C19 UNL     1      20.534  -0.398  54.148  1.00  0.00     0.019 A 
HETATM   31  C20 UNL     1      21.866  -0.065  54.219  1.00  0.00     0.015 A 
BRANCH  29  32
HETATM   32  C18 UNL     1      18.406  -0.732  52.894  1.00  0.00     0.176 C 
HETATM   33  O4  UNL     1      17.852  -0.629  51.770  1.00  0.00    -0.646 OA
BRANCH  32  34
HETATM   34  O5  UNL     1      17.721  -1.161  54.018  1.00  0.00    -0.773 OA
HETATM   35  H14 UNL     1      18.039  -0.871  54.935  1.00  0.00     0.167 HD
ENDBRANCH  32  34
ENDBRANCH  29  32
ENDBRANCH   9  26
TORSDOF 7
ENDMDL
MODEL 2
REMARK VINA RESULT:      -8.8      4.496      7.171
REMARK  7 active torsions:
REMARK  status: ('A' for Active; 'I' for Inactive)
REMARK       I    between atoms: C2_2  and  N1_4 
REMARK    1  A    between atoms: N1_4  and  C3_5 
REMARK    2  A    between atoms: C6_8  and  S1_9 
REMARK    3  A    between atoms: S1_9  and  N2_12 
REMARK    4  A    between atoms: N2_12  and  C7_13 
REMARK    5  A    between atoms: C13_21  and  C14_22 
REMARK    6  A    between atoms: C17_25  and  C18_26 
REMARK    7  A    between atoms: C18_26  and  O5_28 
ROOT
HETATM    1  C7  UNL     1      23.782   3.138  51.597  1.00  0.00     0.167 C 
HETATM    2  N3  UNL     1      22.543   3.374  50.949  1.00  0.00    -0.229 NA
HETATM    3  C8  UNL     1      21.487   2.402  51.409  1.00  0.00     0.057 C 
HETATM    4  C9  UNL     1      21.547   1.152  50.884  1.00  0.00     0.036 C 
HETATM    5  C10 UNL     1      21.605   0.818  52.324  1.00  0.00     0.157 C 
HETATM    6  C11 UNL     1      20.233   1.378  52.681  1.00  0.00     0.006 C 
HETATM    7  C12 UNL     1      20.598   2.634  52.600  1.00  0.00     0.029 C 
HETATM    8  N4  UNL     1      22.721   1.398  53.042  1.00  0.00    -0.272 NA
HETATM    9  C13 UNL     1      23.856   1.919  52.513  1.00  0.00     0.109 C 
ENDROOT
BRANCH   1  10
HETATM   10  N2  UNL     1      24.922   3.928  51.529  1.00  0.00    -0.262 N 
HETATM   11  H7  UNL     1      25.013   4.526  52.416  1.00  0.00     0.180 HD
BRANCH  10  12
HETATM   12  S1  UNL     1      25.727   3.631  50.016  1.00  0.00     0.264 S 
HETATM   13  O2  UNL     1      26.943   2.791  50.392  1.00  0.00    -0.200 OA
HETATM   14  O3  UNL     1      24.935   2.791  49.087  1.00  0.00    -0.200 OA
BRANCH  12  15
HETATM   15  C6  UNL     1      26.267   5.089  49.231  1.00  0.00     0.080 A 
HETATM   16  C5  UNL     1      25.590   6.271  49.011  1.00  0.00     0.027 A 
HETATM   17  C4  UNL     1      26.214   7.323  48.375  1.00  0.00     0.031 A 
HETATM   18  C3  UNL     1      27.518   7.268  47.929  1.00  0.00     0.034 A 
HETATM   19  C22 UNL     1      28.217   6.097  48.137  1.00  0.00     0.031 A 
HETATM   20  C21 UNL     1      27.589   5.045  48.775  1.00  0.00     0.027 A 
BRANCH  18  21
HETATM   21  N1  UNL     1      28.065   8.414  47.284  1.00  0.00    -0.328 N 
HETATM   22  C2  UNL     1      28.634   9.297  48.232  1.00  0.00     0.218 C 
HETATM   23  C1  UNL     1      29.294  10.587  47.932  1.00  0.00     0.117 C 
HETATM   24  O1  UNL     1      28.646   9.081  49.478  1.00  0.00    -0.274 OA
HETATM   25  H4  UNL     1      28.110   8.691  46.289  1.00  0.00     0.169 HD
ENDBRANCH  18  21
ENDBRANCH  12  15
ENDBRANCH  10  12
ENDBRANCH   1  10
BRANCH   9  26
HETATM   26  C14 UNL     1      25.132   1.372  52.877  1.00  0.00    -0.004 A 
HETATM   27  C15 UNL     1      25.599   0.263  52.235  1.00  0.00     0.015 A 
HETATM   28  C16 UNL     1      26.819  -0.298  52.422  1.00  0.00     0.019 A 
HETATM   29  C17 UNL     1      27.696   0.251  53.313  1.00  0.00     0.037 A 
HETATM   30  C19 UNL     1      27.247   1.371  53.970  1.00  0.00     0.019 A 
HETATM   31  C20 UNL     1      26.002   1.916  53.759  1.00  0.00     0.015 A 
BRANCH  29  32
HETATM   32  C18 UNL     1      29.014  -0.332  53.535  1.00  0.00     0.176 C 
HETATM   33  O4  UNL     1      29.069  -1.574  53.719  1.00  0.00    -0.646 OA
BRANCH  32  34
HETATM   34  O5  UNL     1      30.146   0.466  53.538  1.00  0.00    -0.773 OA
HETATM   35  H14 UNL     1      31.028   0.078  53.225  1.00  0.00     0.167 HD
ENDBRANCH  32  34
ENDBRANCH  29  32
ENDBRANCH   9  26
TORSDOF 7
ENDMDL
MODEL 3
REMARK VINA RESULT:      -8.7      3.839      6.716
REMARK  7 active torsions:
REMARK  status: ('A' for Active; 'I' for Inactive)
REMARK       I    between atoms: C2_2  and  N1_4 
REMARK    1  A    between atoms: N1_4  and  C3_5 
REMARK    2  A    between atoms: C6_8  and  S1_9 
REMARK    3  A    between atoms: S1_9  and  N2_12 
REMARK    4  A    between atoms: N2_12  and  C7_13 
REMARK    5  A    between atoms: C13_21  and  C14_22 
REMARK    6  A    between atoms: C17_25  and  C18_26 
REMARK    7  A    between atoms: C18_26  and  O5_28 
ROOT
HETATM    1  C7  UNL     1      23.080   1.373  51.300  1.00  0.00     0.167 C 
HETATM    2  N3  UNL     1      21.771   0.908  51.018  1.00  0.00    -0.229 NA
HETATM    3  C8  UNL     1      21.152   0.241  52.221  1.00  0.00     0.057 C 
HETATM    4  C9  UNL     1      21.566  -1.024  52.487  1.00  0.00     0.036 C 
HETATM    5  C10 UNL     1      21.887  -0.381  53.780  1.00  0.00     0.157 C 
HETATM    6  C11 UNL     1      20.455  -0.005  54.142  1.00  0.00     0.006 C 
HETATM    7  C12 UNL     1      20.373   0.976  53.277  1.00  0.00     0.029 C 
HETATM    8  N4  UNL     1      22.820   0.724  53.698  1.00  0.00    -0.272 NA
HETATM    9  C13 UNL     1      23.653   1.021  52.671  1.00  0.00     0.109 C 
ENDROOT
BRANCH   1  10
HETATM   10  N2  UNL     1      23.880   2.159  50.481  1.00  0.00    -0.262 N 
HETATM   11  H7  UNL     1      24.619   1.553  49.991  1.00  0.00     0.180 HD
BRANCH  10  12
HETATM   12  S1  UNL     1      23.358   3.814  50.599  1.00  0.00     0.264 S 
HETATM   13  O2  UNL     1      22.213   3.923  49.596  1.00  0.00    -0.200 OA
HETATM   14  O3  UNL     1      22.768   4.148  51.916  1.00  0.00    -0.200 OA
BRANCH  12  15
HETATM   15  C6  UNL     1      24.601   4.954  50.165  1.00  0.00     0.080 A 
HETATM   16  C5  UNL     1      24.713   6.293  50.480  1.00  0.00     0.027 A 
HETATM   17  C4  UNL     1      25.798   7.023  50.044  1.00  0.00     0.031 A 
HETATM   18  C3  UNL     1      26.814   6.482  49.284  1.00  0.00     0.034 A 
HETATM   19  C22 UNL     1      26.725   5.144  48.955  1.00  0.00     0.031 A 
HETATM   20  C21 UNL     1      25.637   4.416  49.394  1.00  0.00     0.027 A 
BRANCH  18  21
HETATM   21  N1  UNL     1      27.890   7.326  48.885  1.00  0.00    -0.328 N 
HETATM   22  C2  UNL     1      27.591   7.971  47.661  1.00  0.00     0.218 C 
HETATM   23  C1  UNL     1      28.470   8.920  46.942  1.00  0.00     0.117 C 
HETATM   24  O1  UNL     1      26.512   7.807  47.023  1.00  0.00    -0.274 OA
HETATM   25  H4  UNL     1      28.804   7.533  49.321  1.00  0.00     0.169 HD
ENDBRANCH  18  21
ENDBRANCH  12  15
ENDBRANCH  10  12
ENDBRANCH   1  10
BRANCH   9  26
HETATM   26  C14 UNL     1      25.070   1.079  52.892  1.00  0.00    -0.004 A 
HETATM   27  C15 UNL     1      25.611   2.160  53.524  1.00  0.00     0.015 A 
HETATM   28  C16 UNL     1      26.914   2.298  53.870  1.00  0.00     0.019 A 
HETATM   29  C17 UNL     1      27.806   1.302  53.592  1.00  0.00     0.037 A 
HETATM   30  C19 UNL     1      27.282   0.201  52.957  1.00  0.00     0.019 A 
HETATM   31  C20 UNL     1      25.954   0.092  52.618  1.00  0.00     0.015 A 
BRANCH  29  32
HETATM   32  C18 UNL     1      29.214   1.423  53.951  1.00  0.00     0.176 C 
HETATM   33  O4  UNL     1      29.512   2.283  54.819  1.00  0.00    -0.646 OA
BRANCH  32  34
HETATM   34  O5  UNL     1      30.166   0.615  53.354  1.00  0.00    -0.773 OA
HETATM   35  H14 UNL     1      30.245   0.602  52.344  1.00  0.00     0.167 HD
ENDBRANCH  32  34
ENDBRANCH  29  32
ENDBRANCH   9  26
TORSDOF 7
ENDMDL
MODEL 4
REMARK VINA RESULT:      -8.7      2.656      6.922
REMARK  7 active torsions:
REMARK  status: ('A' for Active; 'I' for Inactive)
REMARK       I    between atoms: C2_2  and  N1_4 
REMARK    1  A    between atoms: N1_4  and  C3_5 
REMARK    2  A    between atoms: C6_8  and  S1_9 
REMARK    3  A    between atoms: S1_9  and  N2_12 
REMARK    4  A    between atoms: N2_12  and  C7_13 
REMARK    5  A    between atoms: C13_21  and  C14_22 
REMARK    6  A    between atoms: C17_25  and  C18_26 
REMARK    7  A    between atoms: C18_26  and  O5_28 
ROOT
HETATM    1  C7  UNL     1      20.465   3.366  51.435  1.00  0.00     0.167 C 
HETATM    2  N3  UNL     1      19.909   3.993  50.291  1.00  0.00    -0.229 NA
HETATM    3  C8  UNL     1      18.844   3.136  49.656  1.00  0.00     0.057 C 
HETATM    4  C9  UNL     1      19.278   2.095  48.900  1.00  0.00     0.036 C 
HETATM    5  C10 UNL     1      18.424   1.364  49.861  1.00  0.00     0.157 C 
HETATM    6  C11 UNL     1      17.114   2.037  49.468  1.00  0.00     0.006 C 
HETATM    7  C12 UNL     1      17.393   3.178  50.049  1.00  0.00     0.029 C 
HETATM    8  N4  UNL     1      18.805   1.508  51.251  1.00  0.00    -0.272 NA
HETATM    9  C13 UNL     1      19.994   1.945  51.735  1.00  0.00     0.109 C 
ENDROOT
BRANCH   1  10
HETATM   10  N2  UNL     1      21.354   3.926  52.342  1.00  0.00    -0.262 N 
HETATM   11  H7  UNL     1      20.868   4.089  53.286  1.00  0.00     0.180 HD
BRANCH  10  12
HETATM   12  S1  UNL     1      22.894   4.146  51.564  1.00  0.00     0.264 S 
HETATM   13  O2  UNL     1      22.641   3.769  50.108  1.00  0.00    -0.200 OA
HETATM   14  O3  UNL     1      23.338   5.560  51.538  1.00  0.00    -0.200 OA
BRANCH  12  15
HETATM   15  C6  UNL     1      24.140   3.113  52.208  1.00  0.00     0.080 A 
HETATM   16  C5  UNL     1      24.540   2.930  53.515  1.00  0.00     0.027 A 
HETATM   17  C4  UNL     1      25.550   2.042  53.817  1.00  0.00     0.031 A 
HETATM   18  C3  UNL     1      26.211   1.298  52.861  1.00  0.00     0.034 A 
HETATM   19  C22 UNL     1      25.829   1.464  51.545  1.00  0.00     0.031 A 
HETATM   20  C21 UNL     1      24.816   2.354  51.246  1.00  0.00     0.027 A 
BRANCH  18  21
HETATM   21  N1  UNL     1      27.240   0.409  53.282  1.00  0.00    -0.328 N 
HETATM   22  C2  UNL     1      28.493   1.068  53.300  1.00  0.00     0.218 C 
HETATM   23  C1  UNL     1      29.788   0.463  53.685  1.00  0.00     0.117 C 
HETATM   24  O1  UNL     1      28.655   2.281  52.984  1.00  0.00    -0.274 OA
HETATM   25  H4  UNL     1      27.222  -0.586  53.560  1.00  0.00     0.169 HD
ENDBRANCH  18  21
ENDBRANCH  12  15
ENDBRANCH  10  12
ENDBRANCH   1  10
BRANCH   9  26
HETATM   26  C14 UNL     1      20.772   1.098  52.593  1.00  0.00    -0.004 A 
HETATM   27  C15 UNL     1      21.890   0.487  52.106  1.00  0.00     0.015 A 
HETATM   28  C16 UNL     1      22.756  -0.263  52.832  1.00  0.00     0.019 A 
HETATM   29  C17 UNL     1      22.543  -0.455  54.167  1.00  0.00     0.037 A 
HETATM   30  C19 UNL     1      21.423   0.153  54.679  1.00  0.00     0.019 A 
HETATM   31  C20 UNL     1      20.563   0.908  53.916  1.00  0.00     0.015 A 
BRANCH  29  32
HETATM   32  C18 UNL     1      23.456  -1.258  54.972  1.00  0.00     0.176 C 
HETATM   33  O4  UNL     1      24.684  -1.153  54.721  1.00  0.00    -0.646 OA
BRANCH  32  34
HETATM   34  O5  UNL     1      22.974  -2.091  55.966  1.00  0.00    -0.773 OA
HETATM   35  H14 UNL     1      22.195  -2.707  55.764  1.00  0.00     0.167 HD
ENDBRANCH  32  34
ENDBRANCH  29  32
ENDBRANCH   9  26
TORSDOF 7
ENDMDL
MODEL 5
REMARK VINA RESULT:      -8.5      3.674      6.306
REMARK  7 active torsions:
REMARK  status: ('A' for Active; 'I' for Inactive)
REMARK       I    between atoms: C2_2  and  N1_4 
REMARK    1  A    between atoms: N1_4  and  C3_5 
REMARK    2  A    between atoms: C6_8  and  S1_9 
REMARK    3  A    between atoms: S1_9  and  N2_12 
REMARK    4  A    between atoms: N2_12  and  C7_13 
REMARK    5  A    between atoms: C13_21  and  C14_22 
REMARK    6  A    between atoms: C17_25  and  C18_26 
REMARK    7  A    between atoms: C18_26  and  O5_28 
ROOT
HETATM    1  C7  UNL     1      23.483   2.100  52.798  1.00  0.00     0.167 C 
HETATM    2  N3  UNL     1      22.113   2.233  52.458  1.00  0.00    -0.229 NA
HETATM    3  C8  UNL     1      21.341   0.978  52.779  1.00  0.00     0.057 C 
HETATM    4  C9  UNL     1      21.478  -0.055  51.909  1.00  0.00     0.036 C 
HETATM    5  C10 UNL     1      21.894  -0.728  53.158  1.00  0.00     0.157 C 
HETATM    6  C11 UNL     1      20.562  -0.575  53.883  1.00  0.00     0.006 C 
HETATM    7  C12 UNL     1      20.705   0.707  54.115  1.00  0.00     0.029 C 
HETATM    8  N4  UNL     1      23.036  -0.134  53.822  1.00  0.00    -0.272 NA
HETATM    9  C13 UNL     1      23.938   0.729  53.291  1.00  0.00     0.109 C 
ENDROOT
BRANCH   1  10
HETATM   10  N2  UNL     1      24.447   3.099  52.778  1.00  0.00    -0.262 N 
HETATM   11  H7  UNL     1      24.656   3.433  53.777  1.00  0.00     0.180 HD
BRANCH  10  12
HETATM   12  S1  UNL     1      24.908   3.410  51.129  1.00  0.00     0.264 S 
HETATM   13  O2  UNL     1      26.373   2.991  51.060  1.00  0.00    -0.200 OA
HETATM   14  O3  UNL     1      24.201   2.548  50.153  1.00  0.00    -0.200 OA
BRANCH  12  15
HETATM   15  C6  UNL     1      24.778   5.089  50.688  1.00  0.00     0.080 A 
HETATM   16  C5  UNL     1      23.967   6.075  51.212  1.00  0.00     0.027 A 
HETATM   17  C4  UNL     1      24.030   7.362  50.724  1.00  0.00     0.031 A 
HETATM   18  C3  UNL     1      24.883   7.742  49.708  1.00  0.00     0.034 A 
HETATM   19  C22 UNL     1      25.705   6.774  49.167  1.00  0.00     0.031 A 
HETATM   20  C21 UNL     1      25.639   5.486  49.659  1.00  0.00     0.027 A 
BRANCH  18  21
HETATM   21  N1  UNL     1      24.867   9.100  49.278  1.00  0.00    -0.328 N 
HETATM   22  C2  UNL     1      23.970   9.272  48.198  1.00  0.00     0.218 C 
HETATM   23  C1  UNL     1      23.691  10.543  47.493  1.00  0.00     0.117 C 
HETATM   24  O1  UNL     1      23.283   8.336  47.696  1.00  0.00    -0.274 OA
HETATM   25  H4  UNL     1      25.379   9.935  49.609  1.00  0.00     0.169 HD
ENDBRANCH  18  21
ENDBRANCH  12  15
ENDBRANCH  10  12
ENDBRANCH   1  10
BRANCH   9  26
HETATM   26  C14 UNL     1      25.330   0.383  53.265  1.00  0.00    -0.004 A 
HETATM   27  C15 UNL     1      26.095   0.574  54.378  1.00  0.00     0.015 A 
HETATM   28  C16 UNL     1      27.394   0.210  54.513  1.00  0.00     0.019 A 
HETATM   29  C17 UNL     1      28.042  -0.406  53.481  1.00  0.00     0.037 A 
HETATM   30  C19 UNL     1      27.290  -0.611  52.350  1.00  0.00     0.019 A 
HETATM   31  C20 UNL     1      25.973  -0.229  52.244  1.00  0.00     0.015 A 
BRANCH  29  32
HETATM   32  C18 UNL     1      29.439  -0.807  53.597  1.00  0.00     0.176 C 
HETATM   33  O4  UNL     1      29.670  -2.022  53.825  1.00  0.00    -0.646 OA
BRANCH  32  34
HETATM   34  O5  UNL     1      30.455   0.123  53.456  1.00  0.00    -0.773 OA
HETATM   35  H14 UNL     1      30.680   0.734  54.232  1.00  0.00     0.167 HD
ENDBRANCH  32  34
ENDBRANCH  29  32
ENDBRANCH   9  26
TORSDOF 7
ENDMDL
MODEL 6
REMARK VINA RESULT:      -8.2      4.391      7.034
REMARK  7 active torsions:
REMARK  status: ('A' for Active; 'I' for Inactive)
REMARK       I    between atoms: C2_2  and  N1_4 
REMARK    1  A    between atoms: N1_4  and  C3_5 
REMARK    2  A    between atoms: C6_8  and  S1_9 
REMARK    3  A    between atoms: S1_9  and  N2_12 
REMARK    4  A    between atoms: N2_12  and  C7_13 
REMARK    5  A    between atoms: C13_21  and  C14_22 
REMARK    6  A    between atoms: C17_25  and  C18_26 
REMARK    7  A    between atoms: C18_26  and  O5_28 
ROOT
HETATM    1  C7  UNL     1      23.545   2.195  50.811  1.00  0.00     0.167 C 
HETATM    2  N3  UNL     1      22.253   2.102  50.236  1.00  0.00    -0.229 NA
HETATM    3  C8  UNL     1      21.264   1.493  51.198  1.00  0.00     0.057 C 
HETATM    4  C9  UNL     1      21.318   0.145  51.345  1.00  0.00     0.036 C 
HETATM    5  C10 UNL     1      21.500   0.555  52.754  1.00  0.00     0.157 C 
HETATM    6  C11 UNL     1      20.146   1.238  52.907  1.00  0.00     0.006 C 
HETATM    7  C12 UNL     1      20.468   2.290  52.195  1.00  0.00     0.029 C 
HETATM    8  N4  UNL     1      22.653   1.396  53.003  1.00  0.00    -0.272 NA
HETATM    9  C13 UNL     1      23.727   1.576  52.195  1.00  0.00     0.109 C 
ENDROOT
BRANCH   1  10
HETATM   10  N2  UNL     1      24.653   2.834  50.271  1.00  0.00    -0.262 N 
HETATM   11  H7  UNL     1      25.384   2.111  49.959  1.00  0.00     0.180 HD
BRANCH  10  12
HETATM   12  S1  UNL     1      24.403   4.554  50.337  1.00  0.00     0.264 S 
HETATM   13  O2  UNL     1      23.156   4.789  49.490  1.00  0.00    -0.200 OA
HETATM   14  O3  UNL     1      24.061   5.043  51.693  1.00  0.00    -0.200 OA
BRANCH  12  15
HETATM   15  C6  UNL     1      25.725   5.464  49.661  1.00  0.00     0.080 A 
HETATM   16  C5  UNL     1      25.940   6.827  49.652  1.00  0.00     0.027 A 
HETATM   17  C4  UNL     1      27.074   7.349  49.068  1.00  0.00     0.031 A 
HETATM   18  C3  UNL     1      28.043   6.569  48.470  1.00  0.00     0.034 A 
HETATM   19  C22 UNL     1      27.851   5.203  48.466  1.00  0.00     0.031 A 
HETATM   20  C21 UNL     1      26.714   4.682  49.052  1.00  0.00     0.027 A 
BRANCH  18  21
HETATM   21  N1  UNL     1      29.177   7.213  47.897  1.00  0.00    -0.328 N 
HETATM   22  C2  UNL     1      28.842   7.798  46.653  1.00  0.00     0.218 C 
HETATM   23  C1  UNL     1      29.762   8.550  45.770  1.00  0.00     0.117 C 
HETATM   24  O1  UNL     1      27.689   7.748  46.137  1.00  0.00    -0.274 OA
HETATM   25  H4  UNL     1      30.152   7.315  48.223  1.00  0.00     0.169 HD
ENDBRANCH  18  21
ENDBRANCH  12  15
ENDBRANCH  10  12
ENDBRANCH   1  10
BRANCH   9  26
HETATM   26  C14 UNL     1      25.043   1.258  52.671  1.00  0.00    -0.004 A 
HETATM   27  C15 UNL     1      25.561   0.017  52.444  1.00  0.00     0.015 A 
HETATM   28  C16 UNL     1      26.818  -0.381  52.762  1.00  0.00     0.019 A 
HETATM   29  C17 UNL     1      27.681   0.492  53.359  1.00  0.00     0.037 A 
HETATM   30  C19 UNL     1      27.181   1.750  53.595  1.00  0.00     0.019 A 
HETATM   31  C20 UNL     1      25.900   2.122  53.261  1.00  0.00     0.015 A 
BRANCH  29  32
HETATM   32  C18 UNL     1      29.038   0.092  53.713  1.00  0.00     0.176 C 
HETATM   33  O4  UNL     1      29.191  -1.065  54.182  1.00  0.00    -0.646 OA
BRANCH  32  34
HETATM   34  O5  UNL     1      30.100   0.962  53.532  1.00  0.00    -0.773 OA
HETATM   35  H14 UNL     1      30.621   0.937  52.664  1.00  0.00     0.167 HD
ENDBRANCH  32  34
ENDBRANCH  29  32
ENDBRANCH   9  26
TORSDOF 7
ENDMDL
MODEL 7
REMARK VINA RESULT:      -8.2      2.796      8.271
REMARK  7 active torsions:
REMARK  status: ('A' for Active; 'I' for Inactive)
REMARK       I    between atoms: C2_2  and  N1_4 
REMARK    1  A    between atoms: N1_4  and  C3_5 
REMARK    2  A    between atoms: C6_8  and  S1_9 
REMARK    3  A    between atoms: S1_9  and  N2_12 
REMARK    4  A    between atoms: N2_12  and  C7_13 
REMARK    5  A    between atoms: C13_21  and  C14_22 
REMARK    6  A    between atoms: C17_25  and  C18_26 
REMARK    7  A    between atoms: C18_26  and  O5_28 
ROOT
HETATM    1  C7  UNL     1      20.636   3.206  51.764  1.00  0.00     0.167 C 
HETATM    2  N3  UNL     1      19.235   3.191  51.979  1.00  0.00    -0.229 NA
HETATM    3  C8  UNL     1      18.478   3.401  50.692  1.00  0.00     0.057 C 
HETATM    4  C9  UNL     1      18.415   4.675  50.230  1.00  0.00     0.036 C 
HETATM    5  C10 UNL     1      19.014   4.014  49.051  1.00  0.00     0.157 C 
HETATM    6  C11 UNL     1      17.838   3.089  48.761  1.00  0.00     0.006 C 
HETATM    7  C12 UNL     1      18.075   2.284  49.768  1.00  0.00     0.029 C 
HETATM    8  N4  UNL     1      20.280   3.354  49.296  1.00  0.00    -0.272 NA
HETATM    9  C13 UNL     1      21.110   3.539  50.352  1.00  0.00     0.109 C 
ENDROOT
BRANCH   1  10
HETATM   10  N2  UNL     1      21.624   2.898  52.691  1.00  0.00    -0.262 N 
HETATM   11  H7  UNL     1      21.979   3.794  53.166  1.00  0.00     0.180 HD
BRANCH  10  12
HETATM   12  S1  UNL     1      21.890   1.179  52.686  1.00  0.00     0.264 S 
HETATM   13  O2  UNL     1      21.319   0.704  54.018  1.00  0.00    -0.200 OA
HETATM   14  O3  UNL     1      21.112   0.470  51.643  1.00  0.00    -0.200 OA
BRANCH  12  15
HETATM   15  C6  UNL     1      23.575   0.749  52.607  1.00  0.00     0.080 A 
HETATM   16  C5  UNL     1      24.598   1.331  51.886  1.00  0.00     0.027 A 
HETATM   17  C4  UNL     1      25.882   0.839  51.977  1.00  0.00     0.031 A 
HETATM   18  C3  UNL     1      26.223  -0.237  52.771  1.00  0.00     0.034 A 
HETATM   19  C22 UNL     1      25.218  -0.836  53.502  1.00  0.00     0.031 A 
HETATM   20  C21 UNL     1      23.933  -0.341  53.409  1.00  0.00     0.027 A 
BRANCH  18  21
HETATM   21  N1  UNL     1      27.582  -0.664  52.791  1.00  0.00    -0.328 N 
HETATM   22  C2  UNL     1      28.324   0.076  53.742  1.00  0.00     0.218 C 
HETATM   23  C1  UNL     1      29.764  -0.090  54.041  1.00  0.00     0.117 C 
HETATM   24  O1  UNL     1      27.831   0.987  54.466  1.00  0.00    -0.274 OA
HETATM   25  H4  UNL     1      28.087  -1.387  52.251  1.00  0.00     0.169 HD
ENDBRANCH  18  21
ENDBRANCH  12  15
ENDBRANCH  10  12
ENDBRANCH   1  10
BRANCH   9  26
HETATM   26  C14 UNL     1      22.460   3.974  50.133  1.00  0.00    -0.004 A 
HETATM   27  C15 UNL     1      23.324   3.176  49.443  1.00  0.00     0.015 A 
HETATM   28  C16 UNL     1      24.592   3.506  49.094  1.00  0.00     0.019 A 
HETATM   29  C17 UNL     1      25.100   4.726  49.433  1.00  0.00     0.037 A 
HETATM   30  C19 UNL     1      24.246   5.549  50.128  1.00  0.00     0.019 A 
HETATM   31  C20 UNL     1      22.964   5.185  50.468  1.00  0.00     0.015 A 
BRANCH  29  32
HETATM   32  C18 UNL     1      26.460   5.108  49.073  1.00  0.00     0.176 C 
HETATM   33  O4  UNL     1      26.606   6.188  48.447  1.00  0.00    -0.646 OA
BRANCH  32  34
HETATM   34  O5  UNL     1      27.533   4.302  49.415  1.00  0.00    -0.773 OA
HETATM   35  H14 UNL     1      27.738   3.483  48.856  1.00  0.00     0.167 HD
ENDBRANCH  32  34
ENDBRANCH  29  32
ENDBRANCH   9  26
TORSDOF 7
ENDMDL
MODEL 8
REMARK VINA RESULT:      -8.1      4.016      9.243
REMARK  7 active torsions:
REMARK  status: ('A' for Active; 'I' for Inactive)
REMARK       I    between atoms: C2_2  and  N1_4 
REMARK    1  A    between atoms: N1_4  and  C3_5 
REMARK    2  A    between atoms: C6_8  and  S1_9 
REMARK    3  A    between atoms: S1_9  and  N2_12 
REMARK    4  A    between atoms: N2_12  and  C7_13 
REMARK    5  A    between atoms: C13_21  and  C14_22 
REMARK    6  A    between atoms: C17_25  and  C18_26 
REMARK    7  A    between atoms: C18_26  and  O5_28 
ROOT
HETATM    1  C7  UNL     1      23.421   5.672  50.403  1.00  0.00     0.167 C 
HETATM    2  N3  UNL     1      22.019   5.868  50.480  1.00  0.00    -0.229 NA
HETATM    3  C8  UNL     1      21.378   5.799  49.117  1.00  0.00     0.057 C 
HETATM    4  C9  UNL     1      21.510   6.899  48.332  1.00  0.00     0.036 C 
HETATM    5  C10 UNL     1      22.091   5.881  47.431  1.00  0.00     0.157 C 
HETATM    6  C11 UNL     1      20.826   5.045  47.284  1.00  0.00     0.006 C 
HETATM    7  C12 UNL     1      20.892   4.524  48.484  1.00  0.00     0.029 C 
HETATM    8  N4  UNL     1      23.242   5.180  47.960  1.00  0.00    -0.272 NA
HETATM    9  C13 UNL     1      24.022   5.555  49.005  1.00  0.00     0.109 C 
ENDROOT
BRANCH   1  10
HETATM   10  N2  UNL     1      24.301   5.523  51.467  1.00  0.00    -0.262 N 
HETATM   11  H7  UNL     1      25.065   6.276  51.425  1.00  0.00     0.180 HD
BRANCH  10  12
HETATM   12  S1  UNL     1      23.805   4.159  52.426  1.00  0.00     0.264 S 
HETATM   13  O2  UNL     1      23.738   4.702  53.851  1.00  0.00    -0.200 OA
HETATM   14  O3  UNL     1      22.434   3.692  52.113  1.00  0.00    -0.200 OA
BRANCH  12  15
HETATM   15  C6  UNL     1      24.940   2.840  52.377  1.00  0.00     0.080 A 
HETATM   16  C5  UNL     1      25.847   2.498  51.395  1.00  0.00     0.027 A 
HETATM   17  C4  UNL     1      26.676   1.409  51.560  1.00  0.00     0.031 A 
HETATM   18  C3  UNL     1      26.655   0.609  52.684  1.00  0.00     0.034 A 
HETATM   19  C22 UNL     1      25.756   0.931  53.681  1.00  0.00     0.031 A 
HETATM   20  C21 UNL     1      24.928   2.022  53.512  1.00  0.00     0.027 A 
BRANCH  18  21
HETATM   21  N1  UNL     1      27.555  -0.492  52.753  1.00  0.00    -0.328 N 
HETATM   22  C2  UNL     1      28.741  -0.127  53.434  1.00  0.00     0.218 C 
HETATM   23  C1  UNL     1      29.900  -1.010  53.696  1.00  0.00     0.117 C 
HETATM   24  O1  UNL     1      28.954   1.025  53.910  1.00  0.00    -0.274 OA
HETATM   25  H4  UNL     1      27.487  -1.463  52.404  1.00  0.00     0.169 HD
ENDBRANCH  18  21
ENDBRANCH  12  15
ENDBRANCH  10  12
ENDBRANCH   1  10
BRANCH   9  26
HETATM   26  C14 UNL     1      25.428   5.765  48.809  1.00  0.00    -0.004 A 
HETATM   27  C15 UNL     1      26.296   4.726  48.974  1.00  0.00     0.015 A 
HETATM   28  C16 UNL     1      27.630   4.770  48.735  1.00  0.00     0.019 A 
HETATM   29  C17 UNL     1      28.208   5.923  48.289  1.00  0.00     0.037 A 
HETATM   30  C19 UNL     1      27.352   6.984  48.113  1.00  0.00     0.019 A 
HETATM   31  C20 UNL     1      26.002   6.907  48.364  1.00  0.00     0.015 A 
BRANCH  29  32
HETATM   32  C18 UNL     1      29.640   6.000  48.025  1.00  0.00     0.176 C 
HETATM   33  O4  UNL     1      30.369   5.121  48.551  1.00  0.00    -0.646 OA
BRANCH  32  34
HETATM   34  O5  UNL     1      30.157   7.005  47.224  1.00  0.00    -0.773 OA
HETATM   35  H14 UNL     1      29.866   7.963  47.379  1.00  0.00     0.167 HD
ENDBRANCH  32  34
ENDBRANCH  29  32
ENDBRANCH   9  26
TORSDOF 7
ENDMDL
MODEL 9
REMARK VINA RESULT:      -8.0      7.912     11.194
REMARK  7 active torsions:
REMARK  status: ('A' for Active; 'I' for Inactive)
REMARK       I    between atoms: C2_2  and  N1_4 
REMARK    1  A    between atoms: N1_4  and  C3_5 
REMARK    2  A    between atoms: C6_8  and  S1_9 
REMARK    3  A    between atoms: S1_9  and  N2_12 
REMARK    4  A    between atoms: N2_12  and  C7_13 
REMARK    5  A    between atoms: C13_21  and  C14_22 
REMARK    6  A    between atoms: C17_25  and  C18_26 
REMARK    7  A    between atoms: C18_26  and  O5_28 
ROOT
HETATM    1  C7  UNL     1      28.136   9.814  49.266  1.00  0.00     0.167 C 
HETATM    2  N3  UNL     1      27.613  11.131  49.307  1.00  0.00    -0.229 NA
HETATM    3  C8  UNL     1      28.267  12.016  48.276  1.00  0.00     0.057 C 
HETATM    4  C9  UNL     1      29.508  12.477  48.578  1.00  0.00     0.036 C 
HETATM    5  C10 UNL     1      29.798  11.810  47.290  1.00  0.00     0.157 C 
HETATM    6  C11 UNL     1      28.895  12.691  46.436  1.00  0.00     0.006 C 
HETATM    7  C12 UNL     1      27.777  12.155  46.861  1.00  0.00     0.029 C 
HETATM    8  N4  UNL     1      29.500  10.393  47.255  1.00  0.00    -0.272 NA
HETATM    9  C13 UNL     1      29.304   9.568  48.313  1.00  0.00     0.109 C 
ENDROOT
BRANCH   1  10
HETATM   10  N2  UNL     1      27.667   8.709  49.964  1.00  0.00    -0.262 N 
HETATM   11  H7  UNL     1      28.199   8.601  50.891  1.00  0.00     0.180 HD
BRANCH  10  12
HETATM   12  S1  UNL     1      26.412   7.942  49.034  1.00  0.00     0.264 S 
HETATM   13  O2  UNL     1      25.130   8.637  49.481  1.00  0.00    -0.200 OA
HETATM   14  O3  UNL     1      26.520   8.204  47.579  1.00  0.00    -0.200 OA
BRANCH  12  15
HETATM   15  C6  UNL     1      26.271   6.236  49.352  1.00  0.00     0.080 A 
HETATM   16  C5  UNL     1      27.036   5.189  48.881  1.00  0.00     0.027 A 
HETATM   17  C4  UNL     1      26.763   3.895  49.271  1.00  0.00     0.031 A 
HETATM   18  C3  UNL     1      25.736   3.569  50.133  1.00  0.00     0.034 A 
HETATM   19  C22 UNL     1      24.957   4.599  50.619  1.00  0.00     0.031 A 
HETATM   20  C21 UNL     1      25.233   5.893  50.225  1.00  0.00     0.027 A 
BRANCH  18  21
HETATM   21  N1  UNL     1      25.541   2.199  50.472  1.00  0.00    -0.328 N 
HETATM   22  C2  UNL     1      26.497   1.780  51.428  1.00  0.00     0.218 C 
HETATM   23  C1  UNL     1      26.603   0.425  52.014  1.00  0.00     0.117 C 
HETATM   24  O1  UNL     1      27.393   2.533  51.905  1.00  0.00    -0.274 OA
HETATM   25  H4  UNL     1      24.853   1.499  50.149  1.00  0.00     0.169 HD
ENDBRANCH  18  21
ENDBRANCH  12  15
ENDBRANCH  10  12
ENDBRANCH   1  10
BRANCH   9  26
HETATM   26  C14 UNL     1      30.147   8.421  48.493  1.00  0.00    -0.004 A 
HETATM   27  C15 UNL     1      29.993   7.336  47.681  1.00  0.00     0.015 A 
HETATM   28  C16 UNL     1      30.778   6.231  47.689  1.00  0.00     0.019 A 
HETATM   29  C17 UNL     1      31.826   6.141  48.558  1.00  0.00     0.037 A 
HETATM   30  C19 UNL     1      32.001   7.224  49.385  1.00  0.00     0.019 A 
HETATM   31  C20 UNL     1      31.187   8.332  49.354  1.00  0.00     0.015 A 
BRANCH  29  32
HETATM   32  C18 UNL     1      32.686   4.964  48.590  1.00  0.00     0.176 C 
HETATM   33  O4  UNL     1      32.192   3.881  48.183  1.00  0.00    -0.646 OA
BRANCH  32  34
HETATM   34  O5  UNL     1      33.989   5.054  49.050  1.00  0.00    -0.773 OA
HETATM   35  H14 UNL     1      34.713   5.393  48.428  1.00  0.00     0.167 HD
ENDBRANCH  32  34
ENDBRANCH  29  32
ENDBRANCH   9  26
TORSDOF 7
ENDMDL
