MODEL 1
REMARK VINA RESULT:      -8.6      0.000      0.000
REMARK  1 active torsions:
REMARK  status: ('A' for Active; 'I' for Inactive)
REMARK    1  A    between atoms: C2_2  and  C3_3 
ROOT
HETATM    1  C3  UNL     1      27.068   0.109  54.233  1.00  0.00     0.031 A 
HETATM    2  S1  UNL     1      25.655  -0.864  54.849  1.00  0.00    -0.073 SA
HETATM    3  C4  UNL     1      24.421  -0.308  53.606  1.00  0.00     0.080 A 
HETATM    4  N1  UNL     1      25.095   0.567  52.789  1.00  0.00    -0.245 NA
HETATM    5  C5  UNL     1      26.346   0.715  53.150  1.00  0.00     0.074 A 
HETATM    6  C6  UNL     1      26.865   1.607  52.339  1.00  0.00     0.035 C 
HETATM    7  C7  UNL     1      26.422   2.366  51.206  1.00  0.00     0.035 C 
HETATM    8  C8  UNL     1      26.477   3.209  50.249  1.00  0.00     0.058 C 
HETATM    9  O1  UNL     1      27.265   4.142  49.596  1.00  0.00    -0.353 OA
HETATM   10  C9  UNL     1      26.028   4.891  49.458  1.00  0.00     0.193 C 
HETATM   11  C10 UNL     1      25.431   3.554  49.263  1.00  0.00     0.119 C 
HETATM   12  C11 UNL     1      24.087   3.226  49.651  1.00  0.00     0.058 A 
HETATM   13  N2  UNL     1      23.330   2.648  48.713  1.00  0.00    -0.245 NA
HETATM   14  C12 UNL     1      22.074   2.215  48.827  1.00  0.00     0.235 A 
HETATM   15  N3  UNL     1      21.487   2.380  50.055  1.00  0.00    -0.224 NA
HETATM   16  C13 UNL     1      22.229   2.960  51.016  1.00  0.00     0.136 A 
HETATM   17  C14 UNL     1      23.525   3.410  50.898  1.00  0.00     0.009 A 
HETATM   18  C15 UNL     1      23.847   3.980  52.233  1.00  0.00     0.054 C 
HETATM   19  N4  UNL     1      21.286   2.892  52.062  1.00  0.00    -0.351 N 
HETATM   20  C16 UNL     1      21.574   1.742  52.837  1.00  0.00     0.086 C 
HETATM   21  C17 UNL     1      22.375   0.694  52.870  1.00  0.00    -0.003 C 
HETATM   22  C18 UNL     1      22.997  -0.566  53.337  1.00  0.00     0.095 C 
HETATM   23  H14 UNL     1      20.478   3.387  52.424  1.00  0.00     0.166 HD
ENDROOT
BRANCH   1  24
HETATM   24  C2  UNL     1      28.251   0.237  54.588  1.00  0.00    -0.010 C 
HETATM   25  C1  UNL     1      29.054  -0.783  53.856  1.00  0.00     0.037 C 
ENDBRANCH   1  24
TORSDOF 1
ENDMDL
MODEL 2
REMARK VINA RESULT:      -8.3      2.505      4.680
REMARK  1 active torsions:
REMARK  status: ('A' for Active; 'I' for Inactive)
REMARK    1  A    between atoms: C2_2  and  C3_3 
ROOT
HETATM    1  C3  UNL     1      23.428  -0.265  53.433  1.00  0.00     0.031 A 
HETATM    2  S1  UNL     1      25.247  -0.372  53.435  1.00  0.00    -0.073 SA
HETATM    3  C4  UNL     1      25.586   1.297  52.743  1.00  0.00     0.080 A 
HETATM    4  N1  UNL     1      24.353   1.865  52.541  1.00  0.00    -0.245 NA
HETATM    5  C5  UNL     1      23.377   1.063  52.890  1.00  0.00     0.074 A 
HETATM    6  C6  UNL     1      22.259   1.687  52.601  1.00  0.00     0.035 C 
HETATM    7  C7  UNL     1      21.890   2.968  52.071  1.00  0.00     0.035 C 
HETATM    8  C8  UNL     1      21.127   3.900  51.649  1.00  0.00     0.058 C 
HETATM    9  O1  UNL     1      19.818   4.279  51.405  1.00  0.00    -0.353 OA
HETATM   10  C9  UNL     1      20.371   4.953  50.243  1.00  0.00     0.193 C 
HETATM   11  C10 UNL     1      21.501   5.241  51.151  1.00  0.00     0.119 C 
HETATM   12  C11 UNL     1      22.859   5.376  50.703  1.00  0.00     0.058 A 
HETATM   13  N2  UNL     1      23.503   6.477  51.102  1.00  0.00    -0.245 NA
HETATM   14  C12 UNL     1      24.768   6.819  50.859  1.00  0.00     0.235 A 
HETATM   15  N3  UNL     1      25.500   5.933  50.110  1.00  0.00    -0.224 NA
HETATM   16  C13 UNL     1      24.874   4.817  49.695  1.00  0.00     0.136 A 
HETATM   17  C14 UNL     1      23.567   4.465  49.944  1.00  0.00     0.009 A 
HETATM   18  C15 UNL     1      23.387   3.167  49.241  1.00  0.00     0.054 C 
HETATM   19  N4  UNL     1      25.962   4.215  49.030  1.00  0.00    -0.351 N 
HETATM   20  C16 UNL     1      26.560   3.289  49.918  1.00  0.00     0.086 C 
HETATM   21  C17 UNL     1      26.483   2.854  51.162  1.00  0.00    -0.003 C 
HETATM   22  C18 UNL     1      26.785   2.070  52.381  1.00  0.00     0.095 C 
HETATM   23  H14 UNL     1      26.449   4.241  48.141  1.00  0.00     0.166 HD
ENDROOT
BRANCH   1  24
HETATM   24  C2  UNL     1      22.515  -1.037  53.771  1.00  0.00    -0.010 C 
HETATM   25  C1  UNL     1      22.692  -1.338  55.220  1.00  0.00     0.037 C 
ENDBRANCH   1  24
TORSDOF 1
ENDMDL
MODEL 3
REMARK VINA RESULT:      -8.1      2.698      4.769
REMARK  1 active torsions:
REMARK  status: ('A' for Active; 'I' for Inactive)
REMARK    1  A    between atoms: C2_2  and  C3_3 
ROOT
HETATM    1  C3  UNL     1      26.144   0.205  52.786  1.00  0.00     0.031 A 
HETATM    2  S1  UNL     1      26.929   1.510  51.786  1.00  0.00    -0.073 SA
HETATM    3  C4  UNL     1      25.402   2.444  51.368  1.00  0.00     0.080 A 
HETATM    4  N1  UNL     1      24.379   1.762  51.980  1.00  0.00    -0.245 NA
HETATM    5  C5  UNL     1      24.808   0.710  52.634  1.00  0.00     0.074 A 
HETATM    6  C6  UNL     1      23.745   0.115  53.123  1.00  0.00     0.035 C 
HETATM    7  C7  UNL     1      22.333   0.360  53.143  1.00  0.00     0.035 C 
HETATM    8  C8  UNL     1      21.098   0.156  53.394  1.00  0.00     0.058 C 
HETATM    9  O1  UNL     1      20.180  -0.702  53.976  1.00  0.00    -0.353 OA
HETATM   10  C9  UNL     1      19.328  -0.330  52.860  1.00  0.00     0.193 C 
HETATM   11  C10 UNL     1      19.936   1.002  53.051  1.00  0.00     0.119 C 
HETATM   12  C11 UNL     1      20.147   1.935  51.979  1.00  0.00     0.058 A 
HETATM   13  N2  UNL     1      19.685   3.173  52.177  1.00  0.00    -0.245 NA
HETATM   14  C12 UNL     1      19.786   4.224  51.364  1.00  0.00     0.235 A 
HETATM   15  N3  UNL     1      20.445   4.012  50.180  1.00  0.00    -0.224 NA
HETATM   16  C13 UNL     1      20.919   2.773  49.957  1.00  0.00     0.136 A 
HETATM   17  C14 UNL     1      20.813   1.686  50.795  1.00  0.00     0.009 A 
HETATM   18  C15 UNL     1      21.477   0.578  50.059  1.00  0.00     0.054 C 
HETATM   19  N4  UNL     1      21.524   3.015  48.706  1.00  0.00    -0.351 N 
HETATM   20  C16 UNL     1      22.900   3.268  48.927  1.00  0.00     0.086 C 
HETATM   21  C17 UNL     1      23.780   3.414  49.900  1.00  0.00    -0.003 C 
HETATM   22  C18 UNL     1      25.075   3.643  50.579  1.00  0.00     0.095 C 
HETATM   23  H14 UNL     1      21.291   3.075  47.721  1.00  0.00     0.166 HD
ENDROOT
BRANCH   1  24
HETATM   24  C2  UNL     1      26.568  -0.787  53.402  1.00  0.00    -0.010 C 
HETATM   25  C1  UNL     1      26.857  -1.851  52.398  1.00  0.00     0.037 C 
ENDBRANCH   1  24
TORSDOF 1
ENDMDL
MODEL 4
REMARK VINA RESULT:      -7.8      2.815      5.290
REMARK  1 active torsions:
REMARK  status: ('A' for Active; 'I' for Inactive)
REMARK    1  A    between atoms: C2_2  and  C3_3 
ROOT
HETATM    1  C3  UNL     1      20.196  -0.396  52.928  1.00  0.00     0.031 A 
HETATM    2  S1  UNL     1      19.371   0.652  51.687  1.00  0.00    -0.073 SA
HETATM    3  C4  UNL     1      20.878   1.466  51.020  1.00  0.00     0.080 A 
HETATM    4  N1  UNL     1      21.924   0.935  51.733  1.00  0.00    -0.245 NA
HETATM    5  C5  UNL     1      21.523   0.059  52.621  1.00  0.00     0.074 A 
HETATM    6  C6  UNL     1      22.595  -0.332  53.271  1.00  0.00     0.035 C 
HETATM    7  C7  UNL     1      24.004  -0.072  53.205  1.00  0.00     0.035 C 
HETATM    8  C8  UNL     1      25.237  -0.140  53.525  1.00  0.00     0.058 C 
HETATM    9  O1  UNL     1      26.158  -0.686  54.403  1.00  0.00    -0.353 OA
HETATM   10  C9  UNL     1      26.820   0.602  54.300  1.00  0.00     0.193 C 
HETATM   11  C10 UNL     1      26.393   0.526  52.888  1.00  0.00     0.119 C 
HETATM   12  C11 UNL     1      26.078   1.682  52.094  1.00  0.00     0.058 A 
HETATM   13  N2  UNL     1      26.689   1.765  50.909  1.00  0.00    -0.245 NA
HETATM   14  C12 UNL     1      26.542   2.706  49.977  1.00  0.00     0.235 A 
HETATM   15  N3  UNL     1      25.656   3.711  50.267  1.00  0.00    -0.224 NA
HETATM   16  C13 UNL     1      25.028   3.651  51.455  1.00  0.00     0.136 A 
HETATM   17  C14 UNL     1      25.181   2.680  52.420  1.00  0.00     0.009 A 
HETATM   18  C15 UNL     1      24.287   3.107  53.527  1.00  0.00     0.054 C 
HETATM   19  N4  UNL     1      24.228   4.803  51.316  1.00  0.00    -0.351 N 
HETATM   20  C16 UNL     1      22.949   4.396  50.864  1.00  0.00     0.086 C 
HETATM   21  C17 UNL     1      22.285   3.324  50.475  1.00  0.00    -0.003 C 
HETATM   22  C18 UNL     1      21.168   2.480  49.993  1.00  0.00     0.095 C 
HETATM   23  H14 UNL     1      24.277   5.810  51.423  1.00  0.00     0.166 HD
ENDROOT
BRANCH   1  24
HETATM   24  C2  UNL     1      19.799  -1.225  53.764  1.00  0.00    -0.010 C 
HETATM   25  C1  UNL     1      18.388  -1.566  53.426  1.00  0.00     0.037 C 
ENDBRANCH   1  24
TORSDOF 1
ENDMDL
MODEL 5
REMARK VINA RESULT:      -7.6      3.276      6.609
REMARK  1 active torsions:
REMARK  status: ('A' for Active; 'I' for Inactive)
REMARK    1  A    between atoms: C2_2  and  C3_3 
ROOT
HETATM    1  C3  UNL     1      19.419   1.340  49.716  1.00  0.00     0.031 A 
HETATM    2  S1  UNL     1      20.121   2.412  48.421  1.00  0.00    -0.073 SA
HETATM    3  C4  UNL     1      21.883   2.273  48.922  1.00  0.00     0.080 A 
HETATM    4  N1  UNL     1      21.886   1.445  50.017  1.00  0.00    -0.245 NA
HETATM    5  C5  UNL     1      20.681   1.043  50.335  1.00  0.00     0.074 A 
HETATM    6  C6  UNL     1      20.804   0.311  51.418  1.00  0.00     0.035 C 
HETATM    7  C7  UNL     1      21.882  -0.150  52.244  1.00  0.00     0.035 C 
HETATM    8  C8  UNL     1      22.461  -0.740  53.217  1.00  0.00     0.058 C 
HETATM    9  O1  UNL     1      22.278  -1.492  54.365  1.00  0.00    -0.353 OA
HETATM   10  C9  UNL     1      23.390  -0.718  54.888  1.00  0.00     0.193 C 
HETATM   11  C10 UNL     1      23.907  -0.834  53.509  1.00  0.00     0.119 C 
HETATM   12  C11 UNL     1      24.727   0.168  52.887  1.00  0.00     0.058 A 
HETATM   13  N2  UNL     1      25.861  -0.265  52.328  1.00  0.00    -0.245 NA
HETATM   14  C12 UNL     1      26.769   0.447  51.661  1.00  0.00     0.235 A 
HETATM   15  N3  UNL     1      26.509   1.787  51.530  1.00  0.00    -0.224 NA
HETATM   16  C13 UNL     1      25.374   2.248  52.085  1.00  0.00     0.136 A 
HETATM   17  C14 UNL     1      24.437   1.514  52.776  1.00  0.00     0.009 A 
HETATM   18  C15 UNL     1      23.411   2.507  53.189  1.00  0.00     0.054 C 
HETATM   19  N4  UNL     1      25.494   3.596  51.690  1.00  0.00    -0.351 N 
HETATM   20  C16 UNL     1      24.733   3.776  50.509  1.00  0.00     0.086 C 
HETATM   21  C17 UNL     1      24.014   3.101  49.632  1.00  0.00    -0.003 C 
HETATM   22  C18 UNL     1      23.166   2.822  48.451  1.00  0.00     0.095 C 
HETATM   23  H14 UNL     1      25.949   4.458  51.969  1.00  0.00     0.166 HD
ENDROOT
BRANCH   1  24
HETATM   24  C2  UNL     1      18.270   0.967  50.003  1.00  0.00    -0.010 C 
HETATM   25  C1  UNL     1      17.558   2.127  50.611  1.00  0.00     0.037 C 
ENDBRANCH   1  24
TORSDOF 1
ENDMDL
MODEL 6
REMARK VINA RESULT:      -7.5      2.569      3.436
REMARK  1 active torsions:
REMARK  status: ('A' for Active; 'I' for Inactive)
REMARK    1  A    between atoms: C2_2  and  C3_3 
ROOT
HETATM    1  C3  UNL     1      25.760   1.365  51.941  1.00  0.00     0.031 A 
HETATM    2  S1  UNL     1      24.049   0.978  52.434  1.00  0.00    -0.073 SA
HETATM    3  C4  UNL     1      23.219   2.322  51.496  1.00  0.00     0.080 A 
HETATM    4  N1  UNL     1      24.229   2.999  50.858  1.00  0.00    -0.245 NA
HETATM    5  C5  UNL     1      25.407   2.487  51.118  1.00  0.00     0.074 A 
HETATM    6  C6  UNL     1      26.286   3.245  50.505  1.00  0.00     0.035 C 
HETATM    7  C7  UNL     1      26.252   4.391  49.644  1.00  0.00     0.035 C 
HETATM    8  C8  UNL     1      26.697   5.346  48.924  1.00  0.00     0.058 C 
HETATM    9  O1  UNL     1      27.832   5.980  48.447  1.00  0.00    -0.353 OA
HETATM   10  C9  UNL     1      27.062   7.199  48.621  1.00  0.00     0.193 C 
HETATM   11  C10 UNL     1      25.936   6.359  48.163  1.00  0.00     0.119 C 
HETATM   12  C11 UNL     1      24.578   6.558  48.589  1.00  0.00     0.058 A 
HETATM   13  N2  UNL     1      23.664   6.639  47.618  1.00  0.00    -0.245 NA
HETATM   14  C12 UNL     1      22.344   6.781  47.746  1.00  0.00     0.235 A 
HETATM   15  N3  UNL     1      21.866   6.852  49.029  1.00  0.00    -0.224 NA
HETATM   16  C13 UNL     1      22.767   6.774  50.024  1.00  0.00     0.136 A 
HETATM   17  C14 UNL     1      24.130   6.630  49.893  1.00  0.00     0.009 A 
HETATM   18  C15 UNL     1      24.643   6.627  51.288  1.00  0.00     0.054 C 
HETATM   19  N4  UNL     1      21.870   6.848  51.110  1.00  0.00    -0.351 N 
HETATM   20  C16 UNL     1      21.599   5.528  51.544  1.00  0.00     0.086 C 
HETATM   21  C17 UNL     1      21.849   4.268  51.238  1.00  0.00    -0.003 C 
HETATM   22  C18 UNL     1      21.835   2.790  51.316  1.00  0.00     0.095 C 
HETATM   23  H14 UNL     1      21.360   7.529  51.661  1.00  0.00     0.166 HD
ENDROOT
BRANCH   1  24
HETATM   24  C2  UNL     1      26.869   0.866  52.197  1.00  0.00    -0.010 C 
HETATM   25  C1  UNL     1      26.715  -0.616  52.165  1.00  0.00     0.037 C 
ENDBRANCH   1  24
TORSDOF 1
ENDMDL
MODEL 7
REMARK VINA RESULT:      -7.4      8.155     10.374
REMARK  1 active torsions:
REMARK  status: ('A' for Active; 'I' for Inactive)
REMARK    1  A    between atoms: C2_2  and  C3_3 
ROOT
HETATM    1  C3  UNL     1      33.041   3.583  47.165  1.00  0.00     0.031 A 
HETATM    2  S1  UNL     1      34.651   4.434  47.115  1.00  0.00    -0.073 SA
HETATM    3  C4  UNL     1      34.050   6.114  47.554  1.00  0.00     0.080 A 
HETATM    4  N1  UNL     1      32.694   5.983  47.722  1.00  0.00    -0.245 NA
HETATM    5  C5  UNL     1      32.287   4.754  47.519  1.00  0.00     0.074 A 
HETATM    6  C6  UNL     1      30.981   4.766  47.651  1.00  0.00     0.035 C 
HETATM    7  C7  UNL     1      29.978   5.734  47.985  1.00  0.00     0.035 C 
HETATM    8  C8  UNL     1      28.812   6.208  48.197  1.00  0.00     0.058 C 
HETATM    9  O1  UNL     1      27.456   5.930  48.217  1.00  0.00    -0.353 OA
HETATM   10  C9  UNL     1      27.309   7.274  47.688  1.00  0.00     0.193 C 
HETATM   11  C10 UNL     1      28.433   7.580  48.596  1.00  0.00     0.119 C 
HETATM   12  C11 UNL     1      29.414   8.594  48.325  1.00  0.00     0.058 A 
HETATM   13  N2  UNL     1      29.634   9.475  49.306  1.00  0.00    -0.245 NA
HETATM   14  C12 UNL     1      30.511  10.479  49.322  1.00  0.00     0.235 A 
HETATM   15  N3  UNL     1      31.282  10.626  48.198  1.00  0.00    -0.224 NA
HETATM   16  C13 UNL     1      31.079   9.752  47.196  1.00  0.00     0.136 A 
HETATM   17  C14 UNL     1      30.172   8.716  47.178  1.00  0.00     0.009 A 
HETATM   18  C15 UNL     1      30.342   8.092  45.839  1.00  0.00     0.054 C 
HETATM   19  N4  UNL     1      32.065  10.232  46.310  1.00  0.00    -0.351 N 
HETATM   20  C16 UNL     1      33.227   9.440  46.477  1.00  0.00     0.086 C 
HETATM   21  C17 UNL     1      33.710   8.459  47.216  1.00  0.00    -0.003 C 
HETATM   22  C18 UNL     1      34.656   7.443  47.731  1.00  0.00     0.095 C 
HETATM   23  H14 UNL     1      32.209  10.955  45.615  1.00  0.00     0.166 HD
ENDROOT
BRANCH   1  24
HETATM   24  C2  UNL     1      32.673   2.413  46.971  1.00  0.00    -0.010 C 
HETATM   25  C1  UNL     1      33.162   1.591  48.114  1.00  0.00     0.037 C 
ENDBRANCH   1  24
TORSDOF 1
ENDMDL
MODEL 8
REMARK VINA RESULT:      -7.3      6.818      9.603
REMARK  1 active torsions:
REMARK  status: ('A' for Active; 'I' for Inactive)
REMARK    1  A    between atoms: C2_2  and  C3_3 
ROOT
HETATM    1  C3  UNL     1      26.973   5.054  48.999  1.00  0.00     0.031 A 
HETATM    2  S1  UNL     1      25.931   6.549  49.013  1.00  0.00    -0.073 SA
HETATM    3  C4  UNL     1      27.175   7.716  48.329  1.00  0.00     0.080 A 
HETATM    4  N1  UNL     1      28.303   6.962  48.117  1.00  0.00    -0.245 NA
HETATM    5  C5  UNL     1      28.132   5.709  48.459  1.00  0.00     0.074 A 
HETATM    6  C6  UNL     1      29.282   5.108  48.266  1.00  0.00     0.035 C 
HETATM    7  C7  UNL     1      30.574   5.472  47.761  1.00  0.00     0.035 C 
HETATM    8  C8  UNL     1      31.800   5.335  47.435  1.00  0.00     0.058 C 
HETATM    9  O1  UNL     1      32.877   4.465  47.387  1.00  0.00    -0.353 OA
HETATM   10  C9  UNL     1      33.666   5.636  47.728  1.00  0.00     0.193 C 
HETATM   11  C10 UNL     1      32.713   6.335  46.842  1.00  0.00     0.119 C 
HETATM   12  C11 UNL     1      32.326   7.707  47.023  1.00  0.00     0.058 A 
HETATM   13  N2  UNL     1      32.428   8.493  45.947  1.00  0.00    -0.245 NA
HETATM   14  C12 UNL     1      32.100   9.781  45.840  1.00  0.00     0.235 A 
HETATM   15  N3  UNL     1      31.596  10.372  46.971  1.00  0.00    -0.224 NA
HETATM   16  C13 UNL     1      31.484   9.601  48.067  1.00  0.00     0.136 A 
HETATM   17  C14 UNL     1      31.825   8.272  48.179  1.00  0.00     0.009 A 
HETATM   18  C15 UNL     1      31.529   7.926  49.594  1.00  0.00     0.054 C 
HETATM   19  N4  UNL     1      30.915  10.562  48.928  1.00  0.00    -0.351 N 
HETATM   20  C16 UNL     1      29.511  10.379  48.922  1.00  0.00     0.086 C 
HETATM   21  C17 UNL     1      28.566   9.664  48.341  1.00  0.00    -0.003 C 
HETATM   22  C18 UNL     1      27.218   9.152  48.008  1.00  0.00     0.095 C 
HETATM   23  H14 UNL     1      31.184  11.333  49.529  1.00  0.00     0.166 HD
ENDROOT
BRANCH   1  24
HETATM   24  C2  UNL     1      26.792   3.870  49.327  1.00  0.00    -0.010 C 
HETATM   25  C1  UNL     1      25.352   3.712  49.675  1.00  0.00     0.037 C 
ENDBRANCH   1  24
TORSDOF 1
ENDMDL
MODEL 9
REMARK VINA RESULT:      -7.0      3.246      6.174
REMARK  1 active torsions:
REMARK  status: ('A' for Active; 'I' for Inactive)
REMARK    1  A    between atoms: C2_2  and  C3_3 
ROOT
HETATM    1  C3  UNL     1      19.877   1.741  49.448  1.00  0.00     0.031 A 
HETATM    2  S1  UNL     1      19.639   2.883  48.048  1.00  0.00    -0.073 SA
HETATM    3  C4  UNL     1      21.349   3.552  47.989  1.00  0.00     0.080 A 
HETATM    4  N1  UNL     1      22.026   2.910  48.996  1.00  0.00    -0.245 NA
HETATM    5  C5  UNL     1      21.262   2.066  49.645  1.00  0.00     0.074 A 
HETATM    6  C6  UNL     1      21.997   1.562  50.609  1.00  0.00     0.035 C 
HETATM    7  C7  UNL     1      23.356   1.680  51.051  1.00  0.00     0.035 C 
HETATM    8  C8  UNL     1      24.386   1.485  51.779  1.00  0.00     0.058 C 
HETATM    9  O1  UNL     1      24.887   0.838  52.896  1.00  0.00    -0.353 OA
HETATM   10  C9  UNL     1      25.654   2.055  53.092  1.00  0.00     0.193 C 
HETATM   11  C10 UNL     1      25.747   2.041  51.618  1.00  0.00     0.119 C 
HETATM   12  C11 UNL     1      25.835   3.234  50.821  1.00  0.00     0.058 A 
HETATM   13  N2  UNL     1      26.829   3.271  49.929  1.00  0.00    -0.245 NA
HETATM   14  C12 UNL     1      27.104   4.235  49.050  1.00  0.00     0.235 A 
HETATM   15  N3  UNL     1      26.265   5.320  49.061  1.00  0.00    -0.224 NA
HETATM   16  C13 UNL     1      25.257   5.306  49.951  1.00  0.00     0.136 A 
HETATM   17  C14 UNL     1      24.973   4.312  50.860  1.00  0.00     0.009 A 
HETATM   18  C15 UNL     1      23.787   4.811  51.605  1.00  0.00     0.054 C 
HETATM   19  N4  UNL     1      24.662   6.534  49.596  1.00  0.00    -0.351 N 
HETATM   20  C16 UNL     1      23.594   6.263  48.707  1.00  0.00     0.086 C 
HETATM   21  C17 UNL     1      23.017   5.268  48.059  1.00  0.00    -0.003 C 
HETATM   22  C18 UNL     1      22.071   4.546  47.178  1.00  0.00     0.095 C 
HETATM   23  H14 UNL     1      24.760   7.530  49.762  1.00  0.00     0.166 HD
ENDROOT
BRANCH   1  24
HETATM   24  C2  UNL     1      19.139   0.945  50.051  1.00  0.00    -0.010 C 
HETATM   25  C1  UNL     1      18.426   1.708  51.115  1.00  0.00     0.037 C 
ENDBRANCH   1  24
TORSDOF 1
ENDMDL
