MODEL 1
REMARK VINA RESULT:      -9.4      0.000      0.000
REMARK  7 active torsions:
REMARK  status: ('A' for Active; 'I' for Inactive)
REMARK    1  A    between atoms: C6_6  and  O1_7 
REMARK    2  A    between atoms: C7_8  and  C8_9 
REMARK    3  A    between atoms: C8_9  and  N1_10 
REMARK    4  A    between atoms: N1_10  and  C9_11 
REMARK    5  A    between atoms: N1_10  and  C16_18 
REMARK    6  A    between atoms: C19_21  and  O2_22 
REMARK    7  A    between atoms: C21_24  and  S1_25 
ROOT
HETATM    1  N1  UNL     1      25.402   0.354  53.478  1.00  0.00    -0.345 N 
ENDROOT
BRANCH   1   2
HETATM    2  C8  UNL     1      25.639   1.768  53.338  1.00  0.00     0.170 C 
BRANCH   2   3
HETATM    3  C7  UNL     1      25.350   2.315  52.001  1.00  0.00    -0.006 A 
HETATM    4  C6  UNL     1      26.310   2.913  51.219  1.00  0.00     0.079 A 
HETATM    5  C4  UNL     1      26.064   3.419  49.962  1.00  0.00    -0.028 A 
HETATM    6  C3  UNL     1      24.773   3.310  49.483  1.00  0.00     0.016 A 
HETATM    7  C5  UNL     1      27.098   4.066  49.113  1.00  0.00     0.051 C 
HETATM    8  C2  UNL     1      23.758   2.724  50.206  1.00  0.00    -0.061 A 
HETATM    9  C1  UNL     1      22.375   2.630  49.642  1.00  0.00     0.048 C 
HETATM   10  C22 UNL     1      24.064   2.229  51.470  1.00  0.00     0.018 A 
BRANCH   4  11
HETATM   11  O1  UNL     1      27.600   3.021  51.699  1.00  0.00    -0.360 OA
HETATM   12  H8  UNL     1      28.061   2.126  51.908  1.00  0.00     0.217 HD
ENDBRANCH   4  11
ENDBRANCH   2   3
ENDBRANCH   1   2
BRANCH   1  13
HETATM   13  C9  UNL     1      26.597  -0.379  53.249  1.00  0.00     0.015 C 
HETATM   14  C10 UNL     1      27.565   0.318  53.827  1.00  0.00     0.025 C 
HETATM   15  C11 UNL     1      28.993   0.012  53.890  1.00  0.00     0.002 C 
HETATM   16  C12 UNL     1      29.604  -1.141  53.565  1.00  0.00    -0.000 C 
HETATM   17  C13 UNL     1      29.012  -2.394  53.066  1.00  0.00    -0.004 C 
HETATM   18  C14 UNL     1      27.758  -2.475  52.656  1.00  0.00    -0.021 C 
HETATM   19  C15 UNL     1      26.588  -1.632  52.506  1.00  0.00     0.084 C 
ENDBRANCH   1  13
BRANCH   1  20
HETATM   20  C16 UNL     1      24.154  -0.230  53.791  1.00  0.00     0.051 A 
HETATM   21  C17 UNL     1      23.114  -0.229  52.894  1.00  0.00     0.034 A 
HETATM   22  C18 UNL     1      21.887  -0.793  53.137  1.00  0.00     0.039 A 
HETATM   23  C19 UNL     1      21.620  -1.413  54.330  1.00  0.00     0.067 A 
HETATM   24  C20 UNL     1      22.629  -1.442  55.267  1.00  0.00     0.057 A 
HETATM   25  C21 UNL     1      23.843  -0.861  54.975  1.00  0.00     0.027 A 
BRANCH  23  26
HETATM   26  O2  UNL     1      20.401  -1.992  54.614  1.00  0.00    -0.361 OA
HETATM   27  H20 UNL     1      19.736  -2.300  53.916  1.00  0.00     0.217 HD
ENDBRANCH  23  26
BRANCH  25  28
HETATM   28  S1  UNL     1      25.066  -0.947  56.272  1.00  0.00    -0.141 SA
HETATM   29  H22 UNL     1      24.363  -1.381  57.430  1.00  0.00     0.107 HD
ENDBRANCH  25  28
ENDBRANCH   1  20
TORSDOF 7
ENDMDL
MODEL 2
REMARK VINA RESULT:      -9.2      2.849      6.690
REMARK  7 active torsions:
REMARK  status: ('A' for Active; 'I' for Inactive)
REMARK    1  A    between atoms: C6_6  and  O1_7 
REMARK    2  A    between atoms: C7_8  and  C8_9 
REMARK    3  A    between atoms: C8_9  and  N1_10 
REMARK    4  A    between atoms: N1_10  and  C9_11 
REMARK    5  A    between atoms: N1_10  and  C16_18 
REMARK    6  A    between atoms: C19_21  and  O2_22 
REMARK    7  A    between atoms: C21_24  and  S1_25 
ROOT
HETATM    1  N1  UNL     1      24.242   2.412  51.728  1.00  0.00    -0.345 N 
ENDROOT
BRANCH   1   2
HETATM    2  C8  UNL     1      24.636   2.016  53.056  1.00  0.00     0.170 C 
BRANCH   2   3
HETATM    3  C7  UNL     1      25.844   1.175  53.119  1.00  0.00    -0.006 A 
HETATM    4  C6  UNL     1      27.041   1.629  53.621  1.00  0.00     0.079 A 
HETATM    5  C4  UNL     1      28.178   0.857  53.699  1.00  0.00    -0.028 A 
HETATM    6  C3  UNL     1      28.087  -0.442  53.241  1.00  0.00     0.016 A 
HETATM    7  C5  UNL     1      29.474   1.345  54.241  1.00  0.00     0.051 C 
HETATM    8  C2  UNL     1      26.925  -0.970  52.725  1.00  0.00    -0.061 A 
HETATM    9  C1  UNL     1      26.877  -2.385  52.243  1.00  0.00     0.048 C 
HETATM   10  C22 UNL     1      25.806  -0.144  52.671  1.00  0.00     0.018 A 
BRANCH   4  11
HETATM   11  O1  UNL     1      27.130   2.929  54.078  1.00  0.00    -0.360 OA
HETATM   12  H8  UNL     1      26.748   3.640  53.440  1.00  0.00     0.217 HD
ENDBRANCH   4  11
ENDBRANCH   2   3
ENDBRANCH   1   2
BRANCH   1  13
HETATM   13  C9  UNL     1      23.035   1.765  51.351  1.00  0.00     0.015 C 
HETATM   14  C10 UNL     1      22.482   1.343  52.480  1.00  0.00     0.025 C 
HETATM   15  C11 UNL     1      21.228   0.615  52.662  1.00  0.00     0.002 C 
HETATM   16  C12 UNL     1      20.259   0.403  51.754  1.00  0.00    -0.000 C 
HETATM   17  C13 UNL     1      20.195   0.839  50.349  1.00  0.00    -0.004 C 
HETATM   18  C14 UNL     1      21.236   1.346  49.712  1.00  0.00    -0.021 C 
HETATM   19  C15 UNL     1      22.629   1.670  49.955  1.00  0.00     0.084 C 
ENDBRANCH   1  13
BRANCH   1  20
HETATM   20  C16 UNL     1      24.957   3.312  50.906  1.00  0.00     0.051 A 
HETATM   21  C17 UNL     1      26.054   2.910  50.185  1.00  0.00     0.034 A 
HETATM   22  C18 UNL     1      26.778   3.734  49.360  1.00  0.00     0.039 A 
HETATM   23  C19 UNL     1      26.434   5.051  49.203  1.00  0.00     0.067 A 
HETATM   24  C20 UNL     1      25.340   5.508  49.905  1.00  0.00     0.057 A 
HETATM   25  C21 UNL     1      24.648   4.640  50.720  1.00  0.00     0.027 A 
BRANCH  23  26
HETATM   26  O2  UNL     1      27.133   5.913  48.385  1.00  0.00    -0.361 OA
HETATM   27  H20 UNL     1      27.898   5.637  47.781  1.00  0.00     0.217 HD
ENDBRANCH  23  26
BRANCH  25  28
HETATM   28  S1  UNL     1      23.261   5.349  51.591  1.00  0.00    -0.141 SA
HETATM   29  H22 UNL     1      23.480   5.050  52.965  1.00  0.00     0.107 HD
ENDBRANCH  25  28
ENDBRANCH   1  20
TORSDOF 7
ENDMDL
MODEL 3
REMARK VINA RESULT:      -8.5      3.026      7.298
REMARK  7 active torsions:
REMARK  status: ('A' for Active; 'I' for Inactive)
REMARK    1  A    between atoms: C6_6  and  O1_7 
REMARK    2  A    between atoms: C7_8  and  C8_9 
REMARK    3  A    between atoms: C8_9  and  N1_10 
REMARK    4  A    between atoms: N1_10  and  C9_11 
REMARK    5  A    between atoms: N1_10  and  C16_18 
REMARK    6  A    between atoms: C19_21  and  O2_22 
REMARK    7  A    between atoms: C21_24  and  S1_25 
ROOT
HETATM    1  N1  UNL     1      23.828   3.726  51.141  1.00  0.00    -0.345 N 
ENDROOT
BRANCH   1   2
HETATM    2  C8  UNL     1      23.822   3.534  52.569  1.00  0.00     0.170 C 
BRANCH   2   3
HETATM    3  C7  UNL     1      24.149   2.167  53.012  1.00  0.00    -0.006 A 
HETATM    4  C6  UNL     1      25.410   1.800  53.417  1.00  0.00     0.079 A 
HETATM    5  C4  UNL     1      25.735   0.532  53.846  1.00  0.00    -0.028 A 
HETATM    6  C3  UNL     1      24.721  -0.405  53.860  1.00  0.00     0.016 A 
HETATM    7  C5  UNL     1      27.097   0.130  54.286  1.00  0.00     0.051 C 
HETATM    8  C2  UNL     1      23.433  -0.113  53.469  1.00  0.00    -0.061 A 
HETATM    9  C1  UNL     1      22.368  -1.164  53.503  1.00  0.00     0.048 C 
HETATM   10  C22 UNL     1      23.162   1.185  53.046  1.00  0.00     0.018 A 
BRANCH   4  11
HETATM   11  O1  UNL     1      26.424   2.738  53.403  1.00  0.00    -0.360 OA
HETATM   12  H8  UNL     1      26.110   3.714  53.322  1.00  0.00     0.217 HD
ENDBRANCH   4  11
ENDBRANCH   2   3
ENDBRANCH   1   2
BRANCH   1  13
HETATM   13  C9  UNL     1      22.596   3.302  50.574  1.00  0.00     0.015 C 
HETATM   14  C10 UNL     1      22.918   2.474  49.589  1.00  0.00     0.025 C 
HETATM   15  C11 UNL     1      22.028   1.754  48.680  1.00  0.00     0.002 C 
HETATM   16  C12 UNL     1      20.695   1.604  48.777  1.00  0.00    -0.000 C 
HETATM   17  C13 UNL     1      19.779   2.115  49.812  1.00  0.00    -0.004 C 
HETATM   18  C14 UNL     1      20.149   3.010  50.712  1.00  0.00    -0.021 C 
HETATM   19  C15 UNL     1      21.320   3.777  51.090  1.00  0.00     0.084 C 
ENDBRANCH   1  13
BRANCH   1  20
HETATM   20  C16 UNL     1      24.910   4.252  50.399  1.00  0.00     0.051 A 
HETATM   21  C17 UNL     1      25.937   3.454  49.962  1.00  0.00     0.034 A 
HETATM   22  C18 UNL     1      27.004   3.907  49.226  1.00  0.00     0.039 A 
HETATM   23  C19 UNL     1      27.108   5.227  48.873  1.00  0.00     0.067 A 
HETATM   24  C20 UNL     1      26.102   6.073  49.288  1.00  0.00     0.057 A 
HETATM   25  C21 UNL     1      25.053   5.569  50.024  1.00  0.00     0.027 A 
BRANCH  23  26
HETATM   26  O2  UNL     1      28.161   5.723  48.136  1.00  0.00    -0.361 OA
HETATM   27  H20 UNL     1      29.041   6.033  48.531  1.00  0.00     0.217 HD
ENDBRANCH  23  26
BRANCH  25  28
HETATM   28  S1  UNL     1      23.821   6.762  50.518  1.00  0.00    -0.141 SA
HETATM   29  H22 UNL     1      24.292   8.017  50.040  1.00  0.00     0.107 HD
ENDBRANCH  25  28
ENDBRANCH   1  20
TORSDOF 7
ENDMDL
MODEL 4
REMARK VINA RESULT:      -8.4      2.780      6.058
REMARK  7 active torsions:
REMARK  status: ('A' for Active; 'I' for Inactive)
REMARK    1  A    between atoms: C6_6  and  O1_7 
REMARK    2  A    between atoms: C7_8  and  C8_9 
REMARK    3  A    between atoms: C8_9  and  N1_10 
REMARK    4  A    between atoms: N1_10  and  C9_11 
REMARK    5  A    between atoms: N1_10  and  C16_18 
REMARK    6  A    between atoms: C19_21  and  O2_22 
REMARK    7  A    between atoms: C21_24  and  S1_25 
ROOT
HETATM    1  N1  UNL     1      23.993   3.638  50.628  1.00  0.00    -0.345 N 
ENDROOT
BRANCH   1   2
HETATM    2  C8  UNL     1      24.398   3.558  52.008  1.00  0.00     0.170 C 
BRANCH   2   3
HETATM    3  C7  UNL     1      24.658   2.194  52.499  1.00  0.00    -0.006 A 
HETATM    4  C6  UNL     1      25.927   1.705  52.697  1.00  0.00     0.079 A 
HETATM    5  C4  UNL     1      26.193   0.438  53.166  1.00  0.00    -0.028 A 
HETATM    6  C3  UNL     1      25.107  -0.368  53.446  1.00  0.00     0.016 A 
HETATM    7  C5  UNL     1      27.564  -0.096  53.381  1.00  0.00     0.051 C 
HETATM    8  C2  UNL     1      23.806   0.050  53.274  1.00  0.00    -0.061 A 
HETATM    9  C1  UNL     1      22.663  -0.861  53.593  1.00  0.00     0.048 C 
HETATM   10  C22 UNL     1      23.597   1.341  52.798  1.00  0.00     0.018 A 
BRANCH   4  11
HETATM   11  O1  UNL     1      27.012   2.512  52.417  1.00  0.00    -0.360 OA
HETATM   12  H8  UNL     1      27.320   2.499  51.435  1.00  0.00     0.217 HD
ENDBRANCH   4  11
ENDBRANCH   2   3
ENDBRANCH   1   2
BRANCH   1  13
HETATM   13  C9  UNL     1      25.011   4.243  49.842  1.00  0.00     0.015 C 
HETATM   14  C10 UNL     1      24.630   5.501  49.664  1.00  0.00     0.025 C 
HETATM   15  C11 UNL     1      25.315   6.561  48.927  1.00  0.00     0.002 C 
HETATM   16  C12 UNL     1      26.573   6.556  48.453  1.00  0.00    -0.000 C 
HETATM   17  C13 UNL     1      27.594   5.498  48.546  1.00  0.00    -0.004 C 
HETATM   18  C14 UNL     1      27.312   4.271  48.950  1.00  0.00    -0.021 C 
HETATM   19  C15 UNL     1      26.177   3.490  49.401  1.00  0.00     0.084 C 
ENDBRANCH   1  13
BRANCH   1  20
HETATM   20  C16 UNL     1      22.753   3.189  50.120  1.00  0.00     0.051 A 
HETATM   21  C17 UNL     1      22.660   2.064  49.340  1.00  0.00     0.034 A 
HETATM   22  C18 UNL     1      21.483   1.573  48.833  1.00  0.00     0.039 A 
HETATM   23  C19 UNL     1      20.291   2.200  49.086  1.00  0.00     0.067 A 
HETATM   24  C20 UNL     1      20.327   3.337  49.865  1.00  0.00     0.057 A 
HETATM   25  C21 UNL     1      21.534   3.788  50.349  1.00  0.00     0.027 A 
BRANCH  23  26
HETATM   26  O2  UNL     1      19.087   1.741  48.597  1.00  0.00    -0.361 OA
HETATM   27  H20 UNL     1      18.283   1.517  49.171  1.00  0.00     0.217 HD
ENDBRANCH  23  26
BRANCH  25  28
HETATM   28  S1  UNL     1      21.457   5.277  51.330  1.00  0.00    -0.141 SA
HETATM   29  H22 UNL     1      21.909   4.903  52.627  1.00  0.00     0.107 HD
ENDBRANCH  25  28
ENDBRANCH   1  20
TORSDOF 7
ENDMDL
MODEL 5
REMARK VINA RESULT:      -8.3      2.183      5.667
REMARK  7 active torsions:
REMARK  status: ('A' for Active; 'I' for Inactive)
REMARK    1  A    between atoms: C6_6  and  O1_7 
REMARK    2  A    between atoms: C7_8  and  C8_9 
REMARK    3  A    between atoms: C8_9  and  N1_10 
REMARK    4  A    between atoms: N1_10  and  C9_11 
REMARK    5  A    between atoms: N1_10  and  C16_18 
REMARK    6  A    between atoms: C19_21  and  O2_22 
REMARK    7  A    between atoms: C21_24  and  S1_25 
ROOT
HETATM    1  N1  UNL     1      25.485   1.749  52.324  1.00  0.00    -0.345 N 
ENDROOT
BRANCH   1   2
HETATM    2  C8  UNL     1      24.310   2.051  53.101  1.00  0.00     0.170 C 
BRANCH   2   3
HETATM    3  C7  UNL     1      23.151   1.181  52.835  1.00  0.00    -0.006 A 
HETATM    4  C6  UNL     1      22.843   0.095  53.619  1.00  0.00     0.079 A 
HETATM    5  C4  UNL     1      21.758  -0.723  53.396  1.00  0.00    -0.028 A 
HETATM    6  C3  UNL     1      20.952  -0.417  52.318  1.00  0.00     0.016 A 
HETATM    7  C5  UNL     1      21.420  -1.899  54.241  1.00  0.00     0.051 C 
HETATM    8  C2  UNL     1      21.195   0.654  51.487  1.00  0.00    -0.061 A 
HETATM    9  C1  UNL     1      20.290   0.944  50.331  1.00  0.00     0.048 C 
HETATM   10  C22 UNL     1      22.305   1.448  51.760  1.00  0.00     0.018 A 
BRANCH   4  11
HETATM   11  O1  UNL     1      23.650  -0.210  54.697  1.00  0.00    -0.360 OA
HETATM   12  H8  UNL     1      24.660  -0.143  54.514  1.00  0.00     0.217 HD
ENDBRANCH   4  11
ENDBRANCH   2   3
ENDBRANCH   1   2
BRANCH   1  13
HETATM   13  C9  UNL     1      25.634   2.679  51.260  1.00  0.00     0.015 C 
HETATM   14  C10 UNL     1      24.824   3.689  51.547  1.00  0.00     0.025 C 
HETATM   15  C11 UNL     1      24.591   4.912  50.782  1.00  0.00     0.002 C 
HETATM   16  C12 UNL     1      25.300   5.381  49.739  1.00  0.00    -0.000 C 
HETATM   17  C13 UNL     1      26.488   4.799  49.091  1.00  0.00    -0.004 C 
HETATM   18  C14 UNL     1      26.903   3.569  49.339  1.00  0.00    -0.021 C 
HETATM   19  C15 UNL     1      26.540   2.422  50.149  1.00  0.00     0.084 C 
ENDBRANCH   1  13
BRANCH   1  20
HETATM   20  C16 UNL     1      26.366   0.673  52.574  1.00  0.00     0.051 A 
HETATM   21  C17 UNL     1      26.034  -0.619  52.250  1.00  0.00     0.034 A 
HETATM   22  C18 UNL     1      26.854  -1.700  52.455  1.00  0.00     0.039 A 
HETATM   23  C19 UNL     1      28.096  -1.547  53.014  1.00  0.00     0.067 A 
HETATM   24  C20 UNL     1      28.480  -0.269  53.360  1.00  0.00     0.057 A 
HETATM   25  C21 UNL     1      27.620   0.782  53.133  1.00  0.00     0.027 A 
BRANCH  23  26
HETATM   26  O2  UNL     1      28.950  -2.605  53.238  1.00  0.00    -0.361 OA
HETATM   27  H20 UNL     1      29.903  -2.512  53.568  1.00  0.00     0.217 HD
ENDBRANCH  23  26
BRANCH  25  28
HETATM   28  S1  UNL     1      28.220   2.385  53.637  1.00  0.00    -0.141 SA
HETATM   29  H22 UNL     1      29.631   2.340  53.452  1.00  0.00     0.107 HD
ENDBRANCH  25  28
ENDBRANCH   1  20
TORSDOF 7
ENDMDL
MODEL 6
REMARK VINA RESULT:      -8.2      2.203      5.212
REMARK  7 active torsions:
REMARK  status: ('A' for Active; 'I' for Inactive)
REMARK    1  A    between atoms: C6_6  and  O1_7 
REMARK    2  A    between atoms: C7_8  and  C8_9 
REMARK    3  A    between atoms: C8_9  and  N1_10 
REMARK    4  A    between atoms: N1_10  and  C9_11 
REMARK    5  A    between atoms: N1_10  and  C16_18 
REMARK    6  A    between atoms: C19_21  and  O2_22 
REMARK    7  A    between atoms: C21_24  and  S1_25 
ROOT
HETATM    1  N1  UNL     1      24.530   0.991  52.432  1.00  0.00    -0.345 N 
ENDROOT
BRANCH   1   2
HETATM    2  C8  UNL     1      24.028   1.484  51.175  1.00  0.00     0.170 C 
BRANCH   2   3
HETATM    3  C7  UNL     1      24.492   2.834  50.810  1.00  0.00    -0.006 A 
HETATM    4  C6  UNL     1      23.844   3.977  51.216  1.00  0.00     0.079 A 
HETATM    5  C4  UNL     1      24.267   5.248  50.897  1.00  0.00    -0.028 A 
HETATM    6  C3  UNL     1      25.407   5.355  50.124  1.00  0.00     0.016 A 
HETATM    7  C5  UNL     1      23.569   6.487  51.332  1.00  0.00     0.051 C 
HETATM    8  C2  UNL     1      26.110   4.258  49.680  1.00  0.00    -0.061 A 
HETATM    9  C1  UNL     1      27.340   4.427  48.846  1.00  0.00     0.048 C 
HETATM   10  C22 UNL     1      25.638   2.998  50.034  1.00  0.00     0.018 A 
BRANCH   4  11
HETATM   11  O1  UNL     1      22.704   3.868  51.988  1.00  0.00    -0.360 OA
HETATM   12  H8  UNL     1      22.465   2.910  52.274  1.00  0.00     0.217 HD
ENDBRANCH   4  11
ENDBRANCH   2   3
ENDBRANCH   1   2
BRANCH   1  13
HETATM   13  C9  UNL     1      23.496   0.352  53.168  1.00  0.00     0.015 C 
HETATM   14  C10 UNL     1      22.387   0.534  52.463  1.00  0.00     0.025 C 
HETATM   15  C11 UNL     1      21.032   0.079  52.768  1.00  0.00     0.002 C 
HETATM   16  C12 UNL     1      20.650  -0.800  53.712  1.00  0.00    -0.000 C 
HETATM   17  C13 UNL     1      21.479  -1.536  54.682  1.00  0.00    -0.004 C 
HETATM   18  C14 UNL     1      22.752  -1.250  54.892  1.00  0.00    -0.021 C 
HETATM   19  C15 UNL     1      23.768  -0.324  54.428  1.00  0.00     0.084 C 
ENDBRANCH   1  13
BRANCH   1  20
HETATM   20  C16 UNL     1      25.862   1.129  52.882  1.00  0.00     0.051 A 
HETATM   21  C17 UNL     1      26.305   2.285  53.474  1.00  0.00     0.034 A 
HETATM   22  C18 UNL     1      27.582   2.470  53.943  1.00  0.00     0.039 A 
HETATM   23  C19 UNL     1      28.520   1.476  53.845  1.00  0.00     0.067 A 
HETATM   24  C20 UNL     1      28.128   0.293  53.257  1.00  0.00     0.057 A 
HETATM   25  C21 UNL     1      26.835   0.158  52.803  1.00  0.00     0.027 A 
BRANCH  23  26
HETATM   26  O2  UNL     1      29.812   1.620  54.303  1.00  0.00    -0.361 OA
HETATM   27  H20 UNL     1      30.427   0.850  54.536  1.00  0.00     0.217 HD
ENDBRANCH  23  26
BRANCH  25  28
HETATM   28  S1  UNL     1      26.450  -1.412  52.046  1.00  0.00    -0.141 SA
HETATM   29  H22 UNL     1      25.856  -1.095  50.792  1.00  0.00     0.107 HD
ENDBRANCH  25  28
ENDBRANCH   1  20
TORSDOF 7
ENDMDL
MODEL 7
REMARK VINA RESULT:      -8.1      3.318      5.036
REMARK  7 active torsions:
REMARK  status: ('A' for Active; 'I' for Inactive)
REMARK    1  A    between atoms: C6_6  and  O1_7 
REMARK    2  A    between atoms: C7_8  and  C8_9 
REMARK    3  A    between atoms: C8_9  and  N1_10 
REMARK    4  A    between atoms: N1_10  and  C9_11 
REMARK    5  A    between atoms: N1_10  and  C16_18 
REMARK    6  A    between atoms: C19_21  and  O2_22 
REMARK    7  A    between atoms: C21_24  and  S1_25 
ROOT
HETATM    1  N1  UNL     1      23.397   2.631  51.426  1.00  0.00    -0.345 N 
ENDROOT
BRANCH   1   2
HETATM    2  C8  UNL     1      23.923   3.832  52.024  1.00  0.00     0.170 C 
BRANCH   2   3
HETATM    3  C7  UNL     1      24.278   4.895  51.068  1.00  0.00    -0.006 A 
HETATM    4  C6  UNL     1      23.518   6.029  50.903  1.00  0.00     0.079 A 
HETATM    5  C4  UNL     1      23.837   7.041  50.025  1.00  0.00    -0.028 A 
HETATM    6  C3  UNL     1      24.988   6.884  49.278  1.00  0.00     0.016 A 
HETATM    7  C5  UNL     1      23.018   8.269  49.843  1.00  0.00     0.051 C 
HETATM    8  C2  UNL     1      25.800   5.777  49.387  1.00  0.00    -0.061 A 
HETATM    9  C1  UNL     1      27.037   5.655  48.555  1.00  0.00     0.048 C 
HETATM   10  C22 UNL     1      25.429   4.787  50.291  1.00  0.00     0.018 A 
BRANCH   4  11
HETATM   11  O1  UNL     1      22.367   6.185  51.651  1.00  0.00    -0.360 OA
HETATM   12  H8  UNL     1      22.245   5.498  52.407  1.00  0.00     0.217 HD
ENDBRANCH   4  11
ENDBRANCH   2   3
ENDBRANCH   1   2
BRANCH   1  13
HETATM   13  C9  UNL     1      24.013   1.481  51.988  1.00  0.00     0.015 C 
HETATM   14  C10 UNL     1      25.294   1.559  51.655  1.00  0.00     0.025 C 
HETATM   15  C11 UNL     1      26.375   0.629  51.978  1.00  0.00     0.002 C 
HETATM   16  C12 UNL     1      26.353  -0.388  52.859  1.00  0.00    -0.000 C 
HETATM   17  C13 UNL     1      25.250  -0.837  53.726  1.00  0.00    -0.004 C 
HETATM   18  C14 UNL     1      24.011  -0.400  53.587  1.00  0.00    -0.021 C 
HETATM   19  C15 UNL     1      23.246   0.506  52.751  1.00  0.00     0.084 C 
ENDBRANCH   1  13
BRANCH   1  20
HETATM   20  C16 UNL     1      22.411   2.596  50.414  1.00  0.00     0.051 A 
HETATM   21  C17 UNL     1      22.738   2.367  49.100  1.00  0.00     0.034 A 
HETATM   22  C18 UNL     1      21.823   2.307  48.079  1.00  0.00     0.039 A 
HETATM   23  C19 UNL     1      20.485   2.477  48.320  1.00  0.00     0.067 A 
HETATM   24  C20 UNL     1      20.102   2.710  49.623  1.00  0.00     0.057 A 
HETATM   25  C21 UNL     1      21.059   2.761  50.612  1.00  0.00     0.027 A 
BRANCH  23  26
HETATM   26  O2  UNL     1      19.534   2.424  47.323  1.00  0.00    -0.361 OA
HETATM   27  H20 UNL     1      18.684   1.875  47.371  1.00  0.00     0.217 HD
ENDBRANCH  23  26
BRANCH  25  28
HETATM   28  S1  UNL     1      20.445   3.087  52.256  1.00  0.00    -0.141 SA
HETATM   29  H22 UNL     1      21.006   4.339  52.631  1.00  0.00     0.107 HD
ENDBRANCH  25  28
ENDBRANCH   1  20
TORSDOF 7
ENDMDL
MODEL 8
REMARK VINA RESULT:      -7.8      3.310      6.499
REMARK  7 active torsions:
REMARK  status: ('A' for Active; 'I' for Inactive)
REMARK    1  A    between atoms: C6_6  and  O1_7 
REMARK    2  A    between atoms: C7_8  and  C8_9 
REMARK    3  A    between atoms: C8_9  and  N1_10 
REMARK    4  A    between atoms: N1_10  and  C9_11 
REMARK    5  A    between atoms: N1_10  and  C16_18 
REMARK    6  A    between atoms: C19_21  and  O2_22 
REMARK    7  A    between atoms: C21_24  and  S1_25 
ROOT
HETATM    1  N1  UNL     1      22.138   1.283  51.983  1.00  0.00    -0.345 N 
ENDROOT
BRANCH   1   2
HETATM    2  C8  UNL     1      21.148   1.221  53.029  1.00  0.00     0.170 C 
BRANCH   2   3
HETATM    3  C7  UNL     1      19.926   0.476  52.681  1.00  0.00    -0.006 A 
HETATM    4  C6  UNL     1      19.517  -0.642  53.369  1.00  0.00     0.079 A 
HETATM    5  C4  UNL     1      18.373  -1.346  53.070  1.00  0.00    -0.028 A 
HETATM    6  C3  UNL     1      17.610  -0.885  52.015  1.00  0.00     0.016 A 
HETATM    7  C5  UNL     1      17.927  -2.556  53.810  1.00  0.00     0.051 C 
HETATM    8  C2  UNL     1      17.953   0.227  51.279  1.00  0.00    -0.061 A 
HETATM    9  C1  UNL     1      17.092   0.687  50.146  1.00  0.00     0.048 C 
HETATM   10  C22 UNL     1      19.120   0.901  51.627  1.00  0.00     0.018 A 
BRANCH   4  11
HETATM   11  O1  UNL     1      20.281  -1.102  54.423  1.00  0.00    -0.360 OA
HETATM   12  H8  UNL     1      21.219  -0.686  54.494  1.00  0.00     0.217 HD
ENDBRANCH   4  11
ENDBRANCH   2   3
ENDBRANCH   1   2
BRANCH   1  13
HETATM   13  C9  UNL     1      23.359   0.700  52.414  1.00  0.00     0.015 C 
HETATM   14  C10 UNL     1      24.319   1.363  51.782  1.00  0.00     0.025 C 
HETATM   15  C11 UNL     1      25.764   1.166  51.864  1.00  0.00     0.002 C 
HETATM   16  C12 UNL     1      26.447   0.423  52.753  1.00  0.00    -0.000 C 
HETATM   17  C13 UNL     1      25.932  -0.386  53.872  1.00  0.00    -0.004 C 
HETATM   18  C14 UNL     1      24.648  -0.660  54.021  1.00  0.00    -0.021 C 
HETATM   19  C15 UNL     1      23.380  -0.401  53.367  1.00  0.00     0.084 C 
ENDBRANCH   1  13
BRANCH   1  20
HETATM   20  C16 UNL     1      21.931   1.853  50.706  1.00  0.00     0.051 A 
HETATM   21  C17 UNL     1      21.808   1.074  49.582  1.00  0.00     0.034 A 
HETATM   22  C18 UNL     1      21.592   1.570  48.321  1.00  0.00     0.039 A 
HETATM   23  C19 UNL     1      21.482   2.918  48.103  1.00  0.00     0.067 A 
HETATM   24  C20 UNL     1      21.599   3.747  49.198  1.00  0.00     0.057 A 
HETATM   25  C21 UNL     1      21.816   3.199  50.443  1.00  0.00     0.027 A 
BRANCH  23  26
HETATM   26  O2  UNL     1      21.266   3.458  46.854  1.00  0.00    -0.361 OA
HETATM   27  H20 UNL     1      21.977   3.914  46.295  1.00  0.00     0.217 HD
ENDBRANCH  23  26
BRANCH  25  28
HETATM   28  S1  UNL     1      21.967   4.372  51.780  1.00  0.00    -0.141 SA
HETATM   29  H22 UNL     1      23.320   4.286  52.210  1.00  0.00     0.107 HD
ENDBRANCH  25  28
ENDBRANCH   1  20
TORSDOF 7
ENDMDL
MODEL 9
REMARK VINA RESULT:      -7.7      3.684      5.680
REMARK  7 active torsions:
REMARK  status: ('A' for Active; 'I' for Inactive)
REMARK    1  A    between atoms: C6_6  and  O1_7 
REMARK    2  A    between atoms: C7_8  and  C8_9 
REMARK    3  A    between atoms: C8_9  and  N1_10 
REMARK    4  A    between atoms: N1_10  and  C9_11 
REMARK    5  A    between atoms: N1_10  and  C16_18 
REMARK    6  A    between atoms: C19_21  and  O2_22 
REMARK    7  A    between atoms: C21_24  and  S1_25 
ROOT
HETATM    1  N1  UNL     1      22.602   2.571  51.580  1.00  0.00    -0.345 N 
ENDROOT
BRANCH   1   2
HETATM    2  C8  UNL     1      23.537   3.451  52.233  1.00  0.00     0.170 C 
BRANCH   2   3
HETATM    3  C7  UNL     1      24.243   4.382  51.335  1.00  0.00    -0.006 A 
HETATM    4  C6  UNL     1      25.334   4.008  50.587  1.00  0.00     0.079 A 
HETATM    5  C4  UNL     1      26.000   4.858  49.732  1.00  0.00    -0.028 A 
HETATM    6  C3  UNL     1      25.528   6.152  49.639  1.00  0.00     0.016 A 
HETATM    7  C5  UNL     1      27.181   4.459  48.921  1.00  0.00     0.051 C 
HETATM    8  C2  UNL     1      24.441   6.601  50.355  1.00  0.00    -0.061 A 
HETATM    9  C1  UNL     1      23.967   8.013  50.219  1.00  0.00     0.048 C 
HETATM   10  C22 UNL     1      23.805   5.699  51.203  1.00  0.00     0.018 A 
BRANCH   4  11
HETATM   11  O1  UNL     1      25.805   2.714  50.681  1.00  0.00    -0.360 OA
HETATM   12  H8  UNL     1      25.515   2.207  51.528  1.00  0.00     0.217 HD
ENDBRANCH   4  11
ENDBRANCH   2   3
ENDBRANCH   1   2
BRANCH   1  13
HETATM   13  C9  UNL     1      22.267   1.480  52.426  1.00  0.00     0.015 C 
HETATM   14  C10 UNL     1      23.404   0.835  52.651  1.00  0.00     0.025 C 
HETATM   15  C11 UNL     1      23.625  -0.363  53.458  1.00  0.00     0.002 C 
HETATM   16  C12 UNL     1      22.772  -0.947  54.318  1.00  0.00    -0.000 C 
HETATM   17  C13 UNL     1      21.402  -0.545  54.679  1.00  0.00    -0.004 C 
HETATM   18  C14 UNL     1      20.729   0.374  54.009  1.00  0.00    -0.021 C 
HETATM   19  C15 UNL     1      20.898   1.255  52.869  1.00  0.00     0.084 C 
ENDBRANCH   1  13
BRANCH   1  20
HETATM   20  C16 UNL     1      22.092   2.756  50.275  1.00  0.00     0.051 A 
HETATM   21  C17 UNL     1      22.646   2.123  49.191  1.00  0.00     0.034 A 
HETATM   22  C18 UNL     1      22.184   2.253  47.905  1.00  0.00     0.039 A 
HETATM   23  C19 UNL     1      21.105   3.049  47.620  1.00  0.00     0.067 A 
HETATM   24  C20 UNL     1      20.511   3.709  48.674  1.00  0.00     0.057 A 
HETATM   25  C21 UNL     1      21.013   3.545  49.946  1.00  0.00     0.027 A 
BRANCH  23  26
HETATM   26  O2  UNL     1      20.609   3.208  46.344  1.00  0.00    -0.361 OA
HETATM   27  H20 UNL     1      19.699   3.595  46.127  1.00  0.00     0.217 HD
ENDBRANCH  23  26
BRANCH  25  28
HETATM   28  S1  UNL     1      20.172   4.463  51.225  1.00  0.00    -0.141 SA
HETATM   29  H22 UNL     1      20.961   5.627  51.440  1.00  0.00     0.107 HD
ENDBRANCH  25  28
ENDBRANCH   1  20
TORSDOF 7
ENDMDL
