MODEL 1
REMARK VINA RESULT:      -7.6      0.000      0.000
REMARK  0 active torsions:
REMARK  status: ('A' for Active; 'I' for Inactive)
ROOT
HETATM    1  C1  UNL     1      20.760   3.739  51.541  1.00  0.00     0.000 C 
HETATM    2  C2  UNL     1      21.531   4.481  52.397  1.00  0.00     0.002 C 
HETATM    3  C3  UNL     1      22.976   4.285  52.732  1.00  0.00     0.025 C 
HETATM    4  C4  UNL     1      23.974   3.638  52.068  1.00  0.00     0.011 C 
HETATM    5  C5  UNL     1      24.157   3.469  50.593  1.00  0.00     0.061 C 
HETATM    6  C6  UNL     1      23.578   2.202  50.168  1.00  0.00     0.040 C 
HETATM    7  C7  UNL     1      22.217   1.813  50.593  1.00  0.00    -0.076 C 
HETATM    8  C8  UNL     1      21.044   2.440  50.857  1.00  0.00     0.003 C 
HETATM    9  C9  UNL     1      21.833   0.362  50.846  1.00  0.00     0.069 C 
HETATM   10  C10 UNL     1      21.522   0.169  52.321  1.00  0.00    -0.063 C 
HETATM   11  C11 UNL     1      22.448  -0.193  53.252  1.00  0.00    -0.017 C 
HETATM   12  C12 UNL     1      21.873  -0.313  54.646  1.00  0.00     0.046 C 
HETATM   13  C13 UNL     1      20.659   0.608  54.454  1.00  0.00     0.009 C 
HETATM   14  C14 UNL     1      20.217   0.313  53.035  1.00  0.00     0.036 C 
HETATM   15  S1  UNL     1      24.162  -0.500  52.860  1.00  0.00    -0.099 SA
HETATM   16  C15 UNL     1      25.333   0.532  53.788  1.00  0.00     0.244 A 
HETATM   17  N1  UNL     1      26.641   0.016  53.419  1.00  0.00    -0.259 NA
HETATM   18  C16 UNL     1      27.346   0.931  52.855  1.00  0.00     0.230 A 
HETATM   19  N2  UNL     1      26.579   2.156  52.788  1.00  0.00    -0.226 NA
HETATM   20  C17 UNL     1      25.442   1.923  53.317  1.00  0.00     0.141 A 
HETATM   21  N3  UNL     1      24.767   3.202  53.205  1.00  0.00    -0.345 N 
HETATM   22  H19 UNL     1      24.816   3.909  53.971  1.00  0.00     0.167 HD
ENDROOT
TORSDOF 0
ENDMDL
MODEL 2
REMARK VINA RESULT:      -7.5      2.322      4.627
REMARK  0 active torsions:
REMARK  status: ('A' for Active; 'I' for Inactive)
ROOT
HETATM    1  C1  UNL     1      24.462   3.884  49.788  1.00  0.00     0.000 C 
HETATM    2  C2  UNL     1      23.797   3.008  48.971  1.00  0.00     0.002 C 
HETATM    3  C3  UNL     1      22.654   2.111  49.327  1.00  0.00     0.025 C 
HETATM    4  C4  UNL     1      21.751   2.166  50.346  1.00  0.00     0.011 C 
HETATM    5  C5  UNL     1      21.193   3.371  51.035  1.00  0.00     0.061 C 
HETATM    6  C6  UNL     1      21.975   3.661  52.228  1.00  0.00     0.040 C 
HETATM    7  C7  UNL     1      23.451   3.705  52.171  1.00  0.00    -0.076 C 
HETATM    8  C8  UNL     1      24.398   4.069  51.271  1.00  0.00     0.003 C 
HETATM    9  C9  UNL     1      24.319   3.272  53.344  1.00  0.00     0.069 C 
HETATM   10  C10 UNL     1      25.104   2.028  52.963  1.00  0.00    -0.063 C 
HETATM   11  C11 UNL     1      24.659   0.757  53.167  1.00  0.00    -0.017 C 
HETATM   12  C12 UNL     1      25.636  -0.297  52.694  1.00  0.00     0.046 C 
HETATM   13  C13 UNL     1      26.392   0.561  51.668  1.00  0.00     0.009 C 
HETATM   14  C14 UNL     1      26.454   1.923  52.329  1.00  0.00     0.036 C 
HETATM   15  S1  UNL     1      23.088   0.378  53.924  1.00  0.00    -0.099 SA
HETATM   16  C15 UNL     1      21.994  -0.643  52.896  1.00  0.00     0.244 A 
HETATM   17  N1  UNL     1      20.861  -0.938  53.756  1.00  0.00    -0.259 NA
HETATM   18  C16 UNL     1      19.774  -0.480  53.245  1.00  0.00     0.230 A 
HETATM   19  N2  UNL     1      20.071   0.170  51.988  1.00  0.00    -0.226 NA
HETATM   20  C17 UNL     1      21.327   0.075  51.796  1.00  0.00     0.141 A 
HETATM   21  N3  UNL     1      21.512   0.743  50.523  1.00  0.00    -0.345 N 
HETATM   22  H19 UNL     1      21.481   0.214  49.624  1.00  0.00     0.167 HD
ENDROOT
TORSDOF 0
ENDMDL
MODEL 3
REMARK VINA RESULT:      -6.9      2.518      4.915
REMARK  0 active torsions:
REMARK  status: ('A' for Active; 'I' for Inactive)
ROOT
HETATM    1  C1  UNL     1      22.579   4.495  47.758  1.00  0.00     0.000 C 
HETATM    2  C2  UNL     1      22.293   3.188  47.464  1.00  0.00     0.002 C 
HETATM    3  C3  UNL     1      21.888   2.103  48.411  1.00  0.00     0.025 C 
HETATM    4  C4  UNL     1      21.345   2.155  49.659  1.00  0.00     0.011 C 
HETATM    5  C5  UNL     1      20.421   3.181  50.233  1.00  0.00     0.061 C 
HETATM    6  C6  UNL     1      21.189   4.191  50.947  1.00  0.00     0.040 C 
HETATM    7  C7  UNL     1      22.375   4.817  50.325  1.00  0.00    -0.076 C 
HETATM    8  C8  UNL     1      22.767   5.174  49.077  1.00  0.00     0.003 C 
HETATM    9  C9  UNL     1      23.582   5.252  51.144  1.00  0.00     0.069 C 
HETATM   10  C10 UNL     1      24.784   4.401  50.769  1.00  0.00    -0.063 C 
HETATM   11  C11 UNL     1      25.116   3.237  51.394  1.00  0.00    -0.017 C 
HETATM   12  C12 UNL     1      26.358   2.589  50.823  1.00  0.00     0.046 C 
HETATM   13  C13 UNL     1      26.309   3.232  49.428  1.00  0.00     0.009 C 
HETATM   14  C14 UNL     1      25.811   4.636  49.708  1.00  0.00     0.036 C 
HETATM   15  S1  UNL     1      24.182   2.555  52.754  1.00  0.00    -0.099 SA
HETATM   16  C15 UNL     1      23.568   0.871  52.463  1.00  0.00     0.244 A 
HETATM   17  N1  UNL     1      22.977   0.478  53.731  1.00  0.00    -0.259 NA
HETATM   18  C16 UNL     1      21.726   0.219  53.586  1.00  0.00     0.230 A 
HETATM   19  N2  UNL     1      21.352   0.413  52.203  1.00  0.00    -0.226 NA
HETATM   20  C17 UNL     1      22.398   0.783  51.573  1.00  0.00     0.141 A 
HETATM   21  N3  UNL     1      21.917   0.940  50.214  1.00  0.00    -0.345 N 
HETATM   22  H19 UNL     1      21.960   0.152  49.530  1.00  0.00     0.167 HD
ENDROOT
TORSDOF 0
ENDMDL
MODEL 4
REMARK VINA RESULT:      -6.7      3.588      6.232
REMARK  0 active torsions:
REMARK  status: ('A' for Active; 'I' for Inactive)
ROOT
HETATM    1  C1  UNL     1      24.187   2.161  52.445  1.00  0.00     0.000 C 
HETATM    2  C2  UNL     1      24.165   3.243  53.286  1.00  0.00     0.002 C 
HETATM    3  C3  UNL     1      23.454   4.544  53.087  1.00  0.00     0.025 C 
HETATM    4  C4  UNL     1      22.398   4.880  52.294  1.00  0.00     0.011 C 
HETATM    5  C5  UNL     1      21.241   4.032  51.872  1.00  0.00     0.061 C 
HETATM    6  C6  UNL     1      21.521   3.427  50.578  1.00  0.00     0.040 C 
HETATM    7  C7  UNL     1      22.810   2.749  50.325  1.00  0.00    -0.076 C 
HETATM    8  C8  UNL     1      23.701   2.016  51.038  1.00  0.00     0.003 C 
HETATM    9  C9  UNL     1      23.474   2.759  48.955  1.00  0.00     0.069 C 
HETATM   10  C10 UNL     1      24.773   3.544  49.027  1.00  0.00    -0.063 C 
HETATM   11  C11 UNL     1      24.868   4.881  48.787  1.00  0.00    -0.017 C 
HETATM   12  C12 UNL     1      26.278   5.411  48.928  1.00  0.00     0.046 C 
HETATM   13  C13 UNL     1      26.824   4.315  49.856  1.00  0.00     0.009 C 
HETATM   14  C14 UNL     1      26.151   3.058  49.345  1.00  0.00     0.036 C 
HETATM   15  S1  UNL     1      23.469   5.898  48.345  1.00  0.00    -0.099 SA
HETATM   16  C15 UNL     1      23.183   7.297  49.467  1.00  0.00     0.244 A 
HETATM   17  N1  UNL     1      22.109   8.049  48.840  1.00  0.00    -0.259 NA
HETATM   18  C16 UNL     1      21.086   8.108  49.616  1.00  0.00     0.230 A 
HETATM   19  N2  UNL     1      21.372   7.399  50.844  1.00  0.00    -0.226 NA
HETATM   20  C17 UNL     1      22.559   6.943  50.753  1.00  0.00     0.141 A 
HETATM   21  N3  UNL     1      22.743   6.266  52.022  1.00  0.00    -0.345 N 
HETATM   22  H19 UNL     1      23.150   6.760  52.846  1.00  0.00     0.167 HD
ENDROOT
TORSDOF 0
ENDMDL
MODEL 5
REMARK VINA RESULT:      -6.7      2.966      5.080
REMARK  0 active torsions:
REMARK  status: ('A' for Active; 'I' for Inactive)
ROOT
HETATM    1  C1  UNL     1      22.367   1.243  52.490  1.00  0.00     0.000 C 
HETATM    2  C2  UNL     1      23.727   1.255  52.325  1.00  0.00     0.002 C 
HETATM    3  C3  UNL     1      24.592   2.408  51.925  1.00  0.00     0.025 C 
HETATM    4  C4  UNL     1      24.382   3.753  51.986  1.00  0.00     0.011 C 
HETATM    5  C5  UNL     1      23.580   4.529  52.981  1.00  0.00     0.061 C 
HETATM    6  C6  UNL     1      22.231   4.732  52.475  1.00  0.00     0.040 C 
HETATM    7  C7  UNL     1      21.456   3.604  51.916  1.00  0.00    -0.076 C 
HETATM    8  C8  UNL     1      21.339   2.272  52.145  1.00  0.00     0.003 C 
HETATM    9  C9  UNL     1      20.466   3.790  50.775  1.00  0.00     0.069 C 
HETATM   10  C10 UNL     1      20.969   3.057  49.542  1.00  0.00    -0.063 C 
HETATM   11  C11 UNL     1      21.762   3.624  48.591  1.00  0.00    -0.017 C 
HETATM   12  C12 UNL     1      22.120   2.673  47.470  1.00  0.00     0.046 C 
HETATM   13  C13 UNL     1      21.918   1.358  48.238  1.00  0.00     0.009 C 
HETATM   14  C14 UNL     1      20.718   1.646  49.116  1.00  0.00     0.036 C 
HETATM   15  S1  UNL     1      22.314   5.321  48.662  1.00  0.00    -0.099 SA
HETATM   16  C15 UNL     1      24.119   5.517  48.629  1.00  0.00     0.244 A 
HETATM   17  N1  UNL     1      24.325   6.953  48.549  1.00  0.00    -0.259 NA
HETATM   18  C16 UNL     1      24.989   7.372  49.567  1.00  0.00     0.230 A 
HETATM   19  N2  UNL     1      25.294   6.256  50.434  1.00  0.00    -0.226 NA
HETATM   20  C17 UNL     1      24.800   5.210  49.898  1.00  0.00     0.141 A 
HETATM   21  N3  UNL     1      25.166   4.163  50.833  1.00  0.00    -0.345 N 
HETATM   22  H19 UNL     1      26.053   3.625  50.722  1.00  0.00     0.167 HD
ENDROOT
TORSDOF 0
ENDMDL
MODEL 6
REMARK VINA RESULT:      -6.6      1.887      2.730
REMARK  0 active torsions:
REMARK  status: ('A' for Active; 'I' for Inactive)
ROOT
HETATM    1  C1  UNL     1      22.158   6.008  49.453  1.00  0.00     0.000 C 
HETATM    2  C2  UNL     1      22.692   6.403  50.651  1.00  0.00     0.002 C 
HETATM    3  C3  UNL     1      23.566   5.610  51.571  1.00  0.00     0.025 C 
HETATM    4  C4  UNL     1      24.350   4.518  51.349  1.00  0.00     0.011 C 
HETATM    5  C5  UNL     1      25.088   4.137  50.105  1.00  0.00     0.061 C 
HETATM    6  C6  UNL     1      24.272   3.233  49.307  1.00  0.00     0.040 C 
HETATM    7  C7  UNL     1      22.856   3.546  49.022  1.00  0.00    -0.076 C 
HETATM    8  C8  UNL     1      22.111   4.659  48.810  1.00  0.00     0.003 C 
HETATM    9  C9  UNL     1      21.799   2.459  48.888  1.00  0.00     0.069 C 
HETATM   10  C10 UNL     1      20.801   2.578  50.028  1.00  0.00    -0.063 C 
HETATM   11  C11 UNL     1      20.929   1.933  51.220  1.00  0.00    -0.017 C 
HETATM   12  C12 UNL     1      19.796   2.227  52.179  1.00  0.00     0.046 C 
HETATM   13  C13 UNL     1      19.358   3.573  51.582  1.00  0.00     0.009 C 
HETATM   14  C14 UNL     1      19.533   3.368  50.092  1.00  0.00     0.036 C 
HETATM   15  S1  UNL     1      22.292   0.846  51.604  1.00  0.00    -0.099 SA
HETATM   16  C15 UNL     1      23.231   1.326  53.083  1.00  0.00     0.244 A 
HETATM   17  N1  UNL     1      24.177   0.240  53.278  1.00  0.00    -0.259 NA
HETATM   18  C16 UNL     1      25.385   0.675  53.213  1.00  0.00     0.230 A 
HETATM   19  N2  UNL     1      25.369   2.100  52.966  1.00  0.00    -0.226 NA
HETATM   20  C17 UNL     1      24.149   2.462  52.893  1.00  0.00     0.141 A 
HETATM   21  N3  UNL     1      24.248   3.889  52.655  1.00  0.00    -0.345 N 
HETATM   22  H19 UNL     1      24.253   4.571  53.445  1.00  0.00     0.167 HD
ENDROOT
TORSDOF 0
ENDMDL
MODEL 7
REMARK VINA RESULT:      -6.5      3.424      5.413
REMARK  0 active torsions:
REMARK  status: ('A' for Active; 'I' for Inactive)
ROOT
HETATM    1  C1  UNL     1      22.859   4.493  48.801  1.00  0.00     0.000 C 
HETATM    2  C2  UNL     1      22.503   3.456  47.978  1.00  0.00     0.002 C 
HETATM    3  C3  UNL     1      21.357   2.509  48.141  1.00  0.00     0.025 C 
HETATM    4  C4  UNL     1      20.200   2.611  48.853  1.00  0.00     0.011 C 
HETATM    5  C5  UNL     1      19.403   3.837  49.170  1.00  0.00     0.061 C 
HETATM    6  C6  UNL     1      19.797   4.356  50.472  1.00  0.00     0.040 C 
HETATM    7  C7  UNL     1      21.223   4.534  50.815  1.00  0.00    -0.076 C 
HETATM    8  C8  UNL     1      22.365   4.864  50.162  1.00  0.00     0.003 C 
HETATM    9  C9  UNL     1      21.744   4.344  52.232  1.00  0.00     0.069 C 
HETATM   10  C10 UNL     1      22.672   3.142  52.276  1.00  0.00    -0.063 C 
HETATM   11  C11 UNL     1      22.258   1.872  52.544  1.00  0.00    -0.017 C 
HETATM   12  C12 UNL     1      23.386   0.863  52.523  1.00  0.00     0.046 C 
HETATM   13  C13 UNL     1      24.354   1.647  51.624  1.00  0.00     0.009 C 
HETATM   14  C14 UNL     1      24.150   3.083  52.059  1.00  0.00     0.036 C 
HETATM   15  S1  UNL     1      20.559   1.448  52.891  1.00  0.00    -0.099 SA
HETATM   16  C15 UNL     1      19.861   0.200  51.772  1.00  0.00     0.244 A 
HETATM   17  N1  UNL     1      18.548  -0.086  52.325  1.00  0.00    -0.259 NA
HETATM   18  C16 UNL     1      17.628   0.194  51.472  1.00  0.00     0.230 A 
HETATM   19  N2  UNL     1      18.234   0.698  50.259  1.00  0.00    -0.226 NA
HETATM   20  C17 UNL     1      19.496   0.699  50.436  1.00  0.00     0.141 A 
HETATM   21  N3  UNL     1      19.999   1.208  49.174  1.00  0.00    -0.345 N 
HETATM   22  H19 UNL     1      20.254   0.564  48.393  1.00  0.00     0.167 HD
ENDROOT
TORSDOF 0
ENDMDL
MODEL 8
REMARK VINA RESULT:      -6.4      3.350      6.098
REMARK  0 active torsions:
REMARK  status: ('A' for Active; 'I' for Inactive)
ROOT
HETATM    1  C1  UNL     1      25.113   3.056  50.855  1.00  0.00     0.000 C 
HETATM    2  C2  UNL     1      24.619   2.841  52.115  1.00  0.00     0.002 C 
HETATM    3  C3  UNL     1      23.211   2.519  52.506  1.00  0.00     0.025 C 
HETATM    4  C4  UNL     1      22.177   1.997  51.789  1.00  0.00     0.011 C 
HETATM    5  C5  UNL     1      22.224   1.026  50.653  1.00  0.00     0.061 C 
HETATM    6  C6  UNL     1      22.227   1.747  49.389  1.00  0.00     0.040 C 
HETATM    7  C7  UNL     1      23.148   2.882  49.170  1.00  0.00    -0.076 C 
HETATM    8  C8  UNL     1      24.402   3.229  49.551  1.00  0.00     0.003 C 
HETATM    9  C9  UNL     1      22.767   4.077  48.306  1.00  0.00     0.069 C 
HETATM   10  C10 UNL     1      22.665   5.319  49.176  1.00  0.00    -0.063 C 
HETATM   11  C11 UNL     1      21.517   5.730  49.782  1.00  0.00    -0.017 C 
HETATM   12  C12 UNL     1      21.692   6.997  50.590  1.00  0.00     0.046 C 
HETATM   13  C13 UNL     1      23.205   6.885  50.833  1.00  0.00     0.009 C 
HETATM   14  C14 UNL     1      23.726   6.311  49.532  1.00  0.00     0.036 C 
HETATM   15  S1  UNL     1      19.964   4.864  49.628  1.00  0.00    -0.099 SA
HETATM   16  C15 UNL     1      19.243   4.344  51.211  1.00  0.00     0.244 A 
HETATM   17  N1  UNL     1      17.942   3.802  50.856  1.00  0.00    -0.259 NA
HETATM   18  C16 UNL     1      17.858   2.566  51.200  1.00  0.00     0.230 A 
HETATM   19  N2  UNL     1      19.098   2.155  51.821  1.00  0.00    -0.226 NA
HETATM   20  C17 UNL     1      19.876   3.165  51.825  1.00  0.00     0.141 A 
HETATM   21  N3  UNL     1      21.070   2.651  52.468  1.00  0.00    -0.345 N 
HETATM   22  H19 UNL     1      21.204   2.726  53.500  1.00  0.00     0.167 HD
ENDROOT
TORSDOF 0
ENDMDL
MODEL 9
REMARK VINA RESULT:      -6.3      3.648      5.836
REMARK  0 active torsions:
REMARK  status: ('A' for Active; 'I' for Inactive)
ROOT
HETATM    1  C1  UNL     1      25.031   2.573  50.814  1.00  0.00     0.000 C 
HETATM    2  C2  UNL     1      25.288   3.356  49.719  1.00  0.00     0.002 C 
HETATM    3  C3  UNL     1      24.585   4.609  49.303  1.00  0.00     0.025 C 
HETATM    4  C4  UNL     1      23.824   5.490  50.010  1.00  0.00     0.011 C 
HETATM    5  C5  UNL     1      23.938   5.876  51.451  1.00  0.00     0.061 C 
HETATM    6  C6  UNL     1      23.040   5.055  52.251  1.00  0.00     0.040 C 
HETATM    7  C7  UNL     1      23.008   3.587  52.084  1.00  0.00    -0.076 C 
HETATM    8  C8  UNL     1      23.894   2.604  51.783  1.00  0.00     0.003 C 
HETATM    9  C9  UNL     1      21.730   2.780  52.263  1.00  0.00     0.069 C 
HETATM   10  C10 UNL     1      21.321   2.175  50.930  1.00  0.00    -0.063 C 
HETATM   11  C11 UNL     1      20.494   2.787  50.039  1.00  0.00    -0.017 C 
HETATM   12  C12 UNL     1      20.252   1.966  48.791  1.00  0.00     0.046 C 
HETATM   13  C13 UNL     1      21.523   1.105  48.855  1.00  0.00     0.009 C 
HETATM   14  C14 UNL     1      21.701   0.855  50.338  1.00  0.00     0.036 C 
HETATM   15  S1  UNL     1      19.764   4.392  50.322  1.00  0.00    -0.099 SA
HETATM   16  C15 UNL     1      20.151   5.620  49.042  1.00  0.00     0.244 A 
HETATM   17  N1  UNL     1      19.349   6.779  49.399  1.00  0.00    -0.259 NA
HETATM   18  C16 UNL     1      20.102   7.796  49.628  1.00  0.00     0.230 A 
HETATM   19  N2  UNL     1      21.486   7.419  49.447  1.00  0.00    -0.226 NA
HETATM   20  C17 UNL     1      21.507   6.188  49.116  1.00  0.00     0.141 A 
HETATM   21  N3  UNL     1      22.923   5.921  48.954  1.00  0.00    -0.345 N 
HETATM   22  H19 UNL     1      23.393   6.029  48.028  1.00  0.00     0.167 HD
ENDROOT
TORSDOF 0
ENDMDL
