MODEL 1
REMARK VINA RESULT:      -7.6      0.000      0.000
REMARK  3 active torsions:
REMARK  status: ('A' for Active; 'I' for Inactive)
REMARK    1  A    between atoms: O1_2  and  C2_3 
REMARK    2  A    between atoms: C6_9  and  N3_10 
REMARK    3  A    between atoms: C16_21  and  O2_22 
ROOT
HETATM    1  C2  UNL     1      21.450   1.577  51.602  1.00  0.00     0.103 A 
HETATM    2  C3  UNL     1      21.014   0.824  52.761  1.00  0.00     0.072 A 
HETATM    3  C4  UNL     1      21.925   0.108  53.546  1.00  0.00     0.075 A 
HETATM    4  N1  UNL     1      21.693  -0.604  54.629  1.00  0.00    -0.241 NA
HETATM    5  C5  UNL     1      22.665  -1.223  55.298  1.00  0.00     0.236 A 
HETATM    6  N2  UNL     1      23.918  -1.132  54.872  1.00  0.00    -0.224 NA
HETATM    7  C6  UNL     1      24.209  -0.418  53.768  1.00  0.00     0.140 A 
HETATM    8  C14 UNL     1      23.224   0.173  53.140  1.00  0.00     0.041 A 
HETATM    9  C15 UNL     1      23.463   0.893  52.069  1.00  0.00     0.057 A 
HETATM   10  C16 UNL     1      22.883   1.694  51.077  1.00  0.00     0.102 A 
ENDROOT
BRANCH   7  11
HETATM   11  N3  UNL     1      25.579  -0.380  53.355  1.00  0.00    -0.351 N 
HETATM   12  C7  UNL     1      26.199   0.935  53.832  1.00  0.00     0.130 C 
HETATM   13  C8  UNL     1      27.126   0.583  54.966  1.00  0.00     0.055 A 
HETATM   14  C9  UNL     1      28.667   0.218  54.604  1.00  0.00    -0.001 A 
HETATM   15  P1  UNL     1      28.345  -0.025  54.310  1.00  0.00    -0.132 P 
HETATM   16  C10 UNL     1      29.028  -0.936  53.558  1.00  0.00     0.034 A 
HETATM   17  C11 UNL     1      27.896  -1.650  52.642  1.00  0.00     0.042 A 
HETATM   18  C13 UNL     1      27.380  -0.717  53.449  1.00  0.00     0.018 A 
HETATM   19  C12 UNL     1      26.522  -1.306  52.687  1.00  0.00     0.078 A 
HETATM   20  H12 UNL     1      30.046   1.144  55.765  1.00  0.00     0.052 HD
ENDBRANCH   7  11
BRANCH  10  21
HETATM   21  O2  UNL     1      22.368   2.403  50.199  1.00  0.00    -0.353 OA
HETATM   22  C17 UNL     1      22.053   3.153  49.168  1.00  0.00     0.210 C 
ENDBRANCH  10  21
BRANCH   1  23
HETATM   23  O1  UNL     1      20.288   2.137  51.129  1.00  0.00    -0.353 OA
HETATM   24  C1  UNL     1      19.115   2.444  51.697  1.00  0.00     0.210 C 
ENDBRANCH   1  23
TORSDOF 3
ENDMDL
MODEL 2
REMARK VINA RESULT:      -7.6      2.232      3.422
REMARK  3 active torsions:
REMARK  status: ('A' for Active; 'I' for Inactive)
REMARK    1  A    between atoms: O1_2  and  C2_3 
REMARK    2  A    between atoms: C6_9  and  N3_10 
REMARK    3  A    between atoms: C16_21  and  O2_22 
ROOT
HETATM    1  C2  UNL     1      21.767   0.661  52.956  1.00  0.00     0.103 A 
HETATM    2  C3  UNL     1      21.832   1.910  52.225  1.00  0.00     0.072 A 
HETATM    3  C4  UNL     1      23.053   2.428  51.779  1.00  0.00     0.075 A 
HETATM    4  N1  UNL     1      23.277   3.530  51.093  1.00  0.00    -0.241 NA
HETATM    5  C5  UNL     1      24.499   3.896  50.710  1.00  0.00     0.236 A 
HETATM    6  N2  UNL     1      25.542   3.139  51.023  1.00  0.00    -0.224 NA
HETATM    7  C6  UNL     1      25.369   2.002  51.725  1.00  0.00     0.140 A 
HETATM    8  C14 UNL     1      24.150   1.679  52.082  1.00  0.00     0.041 A 
HETATM    9  C15 UNL     1      23.932   0.573  52.754  1.00  0.00     0.057 A 
HETATM   10  C16 UNL     1      22.949  -0.231  53.343  1.00  0.00     0.102 A 
ENDROOT
BRANCH   7  11
HETATM   11  N3  UNL     1      26.540   1.244  52.044  1.00  0.00    -0.351 N 
HETATM   12  C7  UNL     1      27.685   2.214  52.346  1.00  0.00     0.130 C 
HETATM   13  C8  UNL     1      27.914   2.153  53.833  1.00  0.00     0.055 A 
HETATM   14  C9  UNL     1      28.964   1.049  54.397  1.00  0.00    -0.001 A 
HETATM   15  P1  UNL     1      28.643   0.850  54.071  1.00  0.00    -0.132 P 
HETATM   16  C10 UNL     1      28.804  -0.506  54.059  1.00  0.00     0.034 A 
HETATM   17  C11 UNL     1      27.730  -1.041  52.968  1.00  0.00     0.042 A 
HETATM   18  C13 UNL     1      27.697   0.289  53.100  1.00  0.00     0.018 A 
HETATM   19  C12 UNL     1      26.871  -0.187  52.232  1.00  0.00     0.078 A 
HETATM   20  H12 UNL     1      30.296   1.768  55.746  1.00  0.00     0.052 HD
ENDBRANCH   7  11
BRANCH  10  21
HETATM   21  O2  UNL     1      22.077  -0.943  53.866  1.00  0.00    -0.353 OA
HETATM   22  C17 UNL     1      21.348  -1.811  54.528  1.00  0.00     0.210 C 
ENDBRANCH  10  21
BRANCH   1  23
HETATM   23  O1  UNL     1      20.424   0.497  53.191  1.00  0.00    -0.353 OA
HETATM   24  C1  UNL     1      19.337   0.558  52.409  1.00  0.00     0.210 C 
ENDBRANCH   1  23
TORSDOF 3
ENDMDL
MODEL 3
REMARK VINA RESULT:      -7.3      1.968      2.901
REMARK  3 active torsions:
REMARK  status: ('A' for Active; 'I' for Inactive)
REMARK    1  A    between atoms: O1_2  and  C2_3 
REMARK    2  A    between atoms: C6_9  and  N3_10 
REMARK    3  A    between atoms: C16_21  and  O2_22 
ROOT
HETATM    1  C2  UNL     1      23.882   3.378  49.975  1.00  0.00     0.103 A 
HETATM    2  C3  UNL     1      22.843   2.448  50.369  1.00  0.00     0.072 A 
HETATM    3  C4  UNL     1      23.057   1.510  51.385  1.00  0.00     0.075 A 
HETATM    4  N1  UNL     1      22.218   0.616  51.867  1.00  0.00    -0.241 NA
HETATM    5  C5  UNL     1      22.547  -0.209  52.860  1.00  0.00     0.236 A 
HETATM    6  N2  UNL     1      23.760  -0.146  53.393  1.00  0.00    -0.224 NA
HETATM    7  C6  UNL     1      24.658   0.749  52.935  1.00  0.00     0.140 A 
HETATM    8  C14 UNL     1      24.292   1.540  51.958  1.00  0.00     0.041 A 
HETATM    9  C15 UNL     1      25.129   2.438  51.491  1.00  0.00     0.057 A 
HETATM   10  C16 UNL     1      25.293   3.471  50.560  1.00  0.00     0.102 A 
ENDROOT
BRANCH   7  11
HETATM   11  N3  UNL     1      25.953   0.747  53.544  1.00  0.00    -0.351 N 
HETATM   12  C7  UNL     1      26.292  -0.681  53.974  1.00  0.00     0.130 C 
HETATM   13  C8  UNL     1      27.349  -1.174  53.020  1.00  0.00     0.055 A 
HETATM   14  C9  UNL     1      28.904  -0.901  53.402  1.00  0.00    -0.001 A 
HETATM   15  P1  UNL     1      28.626  -0.490  53.454  1.00  0.00    -0.132 P 
HETATM   16  C10 UNL     1      29.444   0.573  53.706  1.00  0.00     0.034 A 
HETATM   17  C11 UNL     1      28.442   1.838  53.868  1.00  0.00     0.042 A 
HETATM   18  C13 UNL     1      27.786   0.701  53.614  1.00  0.00     0.018 A 
HETATM   19  C12 UNL     1      27.032   1.737  53.767  1.00  0.00     0.078 A 
HETATM   20  H12 UNL     1      30.115  -2.514  53.197  1.00  0.00     0.052 HD
ENDBRANCH   7  11
BRANCH  10  21
HETATM   21  O2  UNL     1      25.438   4.387  49.735  1.00  0.00    -0.353 OA
HETATM   22  C17 UNL     1      25.812   5.391  48.977  1.00  0.00     0.210 C 
ENDBRANCH  10  21
BRANCH   1  23
HETATM   23  O1  UNL     1      23.286   4.124  48.987  1.00  0.00    -0.353 OA
HETATM   24  C1  UNL     1      22.443   3.826  47.989  1.00  0.00     0.210 C 
ENDBRANCH   1  23
TORSDOF 3
ENDMDL
MODEL 4
REMARK VINA RESULT:      -7.2      3.480      6.954
REMARK  3 active torsions:
REMARK  status: ('A' for Active; 'I' for Inactive)
REMARK    1  A    between atoms: O1_2  and  C2_3 
REMARK    2  A    between atoms: C6_9  and  N3_10 
REMARK    3  A    between atoms: C16_21  and  O2_22 
ROOT
HETATM    1  C2  UNL     1      26.109   0.312  53.431  1.00  0.00     0.103 A 
HETATM    2  C3  UNL     1      26.907   1.055  52.477  1.00  0.00     0.072 A 
HETATM    3  C4  UNL     1      26.312   1.912  51.544  1.00  0.00     0.075 A 
HETATM    4  N1  UNL     1      26.893   2.663  50.631  1.00  0.00    -0.241 NA
HETATM    5  C5  UNL     1      26.201   3.457  49.815  1.00  0.00     0.236 A 
HETATM    6  N2  UNL     1      24.879   3.504  49.907  1.00  0.00    -0.224 NA
HETATM    7  C6  UNL     1      24.234   2.754  50.822  1.00  0.00     0.140 A 
HETATM    8  C14 UNL     1      24.953   1.988  51.604  1.00  0.00     0.041 A 
HETATM    9  C15 UNL     1      24.369   1.251  52.521  1.00  0.00     0.057 A 
HETATM   10  C16 UNL     1      24.584   0.335  53.558  1.00  0.00     0.102 A 
ENDROOT
BRANCH   7  11
HETATM   11  N3  UNL     1      22.806   2.840  50.852  1.00  0.00    -0.351 N 
HETATM   12  C7  UNL     1      22.244   2.093  49.641  1.00  0.00     0.130 C 
HETATM   13  C8  UNL     1      21.625   0.826  50.172  1.00  0.00     0.055 A 
HETATM   14  C9  UNL     1      20.065   0.871  50.619  1.00  0.00    -0.001 A 
HETATM   15  P1  UNL     1      20.322   1.255  50.807  1.00  0.00    -0.132 P 
HETATM   16  C10 UNL     1      19.533   1.930  51.693  1.00  0.00     0.034 A 
HETATM   17  C11 UNL     1      20.459   3.150  52.226  1.00  0.00     0.042 A 
HETATM   18  C13 UNL     1      21.097   2.382  51.337  1.00  0.00     0.018 A 
HETATM   19  C12 UNL     1      21.785   3.378  51.781  1.00  0.00     0.078 A 
HETATM   20  H12 UNL     1      18.945  -0.667  49.919  1.00  0.00     0.052 HD
ENDBRANCH   7  11
BRANCH  10  21
HETATM   21  O2  UNL     1      24.775  -0.478  54.476  1.00  0.00    -0.353 OA
HETATM   22  C17 UNL     1      24.752  -1.263  55.528  1.00  0.00     0.210 C 
ENDBRANCH  10  21
BRANCH   1  23
HETATM   23  O1  UNL     1      27.045  -0.379  54.161  1.00  0.00    -0.353 OA
HETATM   24  C1  UNL     1      28.281  -0.086  54.589  1.00  0.00     0.210 C 
ENDBRANCH   1  23
TORSDOF 3
ENDMDL
MODEL 5
REMARK VINA RESULT:      -7.2      2.925      6.187
REMARK  3 active torsions:
REMARK  status: ('A' for Active; 'I' for Inactive)
REMARK    1  A    between atoms: O1_2  and  C2_3 
REMARK    2  A    between atoms: C6_9  and  N3_10 
REMARK    3  A    between atoms: C16_21  and  O2_22 
ROOT
HETATM    1  C2  UNL     1      25.235   0.415  53.139  1.00  0.00     0.103 A 
HETATM    2  C3  UNL     1      24.507  -0.492  54.003  1.00  0.00     0.072 A 
HETATM    3  C4  UNL     1      23.118  -0.633  53.903  1.00  0.00     0.075 A 
HETATM    4  N1  UNL     1      22.320  -1.419  54.596  1.00  0.00    -0.241 NA
HETATM    5  C5  UNL     1      21.006  -1.471  54.379  1.00  0.00     0.236 A 
HETATM    6  N2  UNL     1      20.463  -0.709  53.439  1.00  0.00    -0.224 NA
HETATM    7  C6  UNL     1      21.234   0.115  52.703  1.00  0.00     0.140 A 
HETATM    8  C14 UNL     1      22.521   0.135  52.949  1.00  0.00     0.041 A 
HETATM    9  C15 UNL     1      23.313   0.911  52.246  1.00  0.00     0.057 A 
HETATM   10  C16 UNL     1      24.640   1.315  52.053  1.00  0.00     0.102 A 
ENDROOT
BRANCH   7  11
HETATM   11  N3  UNL     1      20.578   0.922  51.720  1.00  0.00    -0.351 N 
HETATM   12  C7  UNL     1      19.758   1.997  52.435  1.00  0.00     0.130 C 
HETATM   13  C8  UNL     1      20.482   3.300  52.219  1.00  0.00     0.055 A 
HETATM   14  C9  UNL     1      20.105   4.171  50.900  1.00  0.00    -0.001 A 
HETATM   15  P1  UNL     1      20.182   3.690  50.789  1.00  0.00    -0.132 P 
HETATM   16  C10 UNL     1      20.185   3.541  49.432  1.00  0.00     0.034 A 
HETATM   17  C11 UNL     1      20.428   1.956  49.190  1.00  0.00     0.042 A 
HETATM   18  C13 UNL     1      20.399   2.271  50.489  1.00  0.00     0.018 A 
HETATM   19  C12 UNL     1      20.576   1.017  50.242  1.00  0.00     0.078 A 
HETATM   20  H12 UNL     1      19.796   6.142  51.254  1.00  0.00     0.052 HD
ENDBRANCH   7  11
BRANCH  10  21
HETATM   21  O2  UNL     1      25.816   1.672  51.883  1.00  0.00    -0.353 OA
HETATM   22  C17 UNL     1      26.957   2.263  51.616  1.00  0.00     0.210 C 
ENDBRANCH  10  21
BRANCH   1  23
HETATM   23  O1  UNL     1      26.541   0.252  53.531  1.00  0.00    -0.353 OA
HETATM   24  C1  UNL     1      27.143   0.180  54.726  1.00  0.00     0.210 C 
ENDBRANCH   1  23
TORSDOF 3
ENDMDL
MODEL 6
REMARK VINA RESULT:      -7.0      3.679      7.142
REMARK  3 active torsions:
REMARK  status: ('A' for Active; 'I' for Inactive)
REMARK    1  A    between atoms: O1_2  and  C2_3 
REMARK    2  A    between atoms: C6_9  and  N3_10 
REMARK    3  A    between atoms: C16_21  and  O2_22 
ROOT
HETATM    1  C2  UNL     1      26.091   0.427  53.709  1.00  0.00     0.103 A 
HETATM    2  C3  UNL     1      26.932   1.277  52.891  1.00  0.00     0.072 A 
HETATM    3  C4  UNL     1      26.399   2.017  51.828  1.00  0.00     0.075 A 
HETATM    4  N1  UNL     1      27.020   2.841  51.009  1.00  0.00    -0.241 NA
HETATM    5  C5  UNL     1      26.382   3.504  50.046  1.00  0.00     0.236 A 
HETATM    6  N2  UNL     1      25.075   3.340  49.888  1.00  0.00    -0.224 NA
HETATM    7  C6  UNL     1      24.393   2.507  50.697  1.00  0.00     0.140 A 
HETATM    8  C14 UNL     1      25.059   1.875  51.631  1.00  0.00     0.041 A 
HETATM    9  C15 UNL     1      24.432   1.065  52.453  1.00  0.00     0.057 A 
HETATM   10  C16 UNL     1      24.585   0.207  53.549  1.00  0.00     0.102 A 
ENDROOT
BRANCH   7  11
HETATM   11  N3  UNL     1      22.989   2.364  50.457  1.00  0.00    -0.351 N 
HETATM   12  C7  UNL     1      22.271   3.606  50.989  1.00  0.00     0.130 C 
HETATM   13  C8  UNL     1      21.835   4.396  49.783  1.00  0.00     0.055 A 
HETATM   14  C9  UNL     1      20.377   4.069  49.146  1.00  0.00    -0.001 A 
HETATM   15  P1  UNL     1      20.639   3.653  49.232  1.00  0.00    -0.132 P 
HETATM   16  C10 UNL     1      19.977   2.590  48.690  1.00  0.00     0.034 A 
HETATM   17  C11 UNL     1      20.903   1.305  49.036  1.00  0.00     0.042 A 
HETATM   18  C13 UNL     1      21.423   2.444  49.505  1.00  0.00     0.018 A 
HETATM   19  C12 UNL     1      22.115   1.388  49.767  1.00  0.00     0.078 A 
HETATM   20  H12 UNL     1      19.250   5.705  48.744  1.00  0.00     0.052 HD
ENDBRANCH   7  11
BRANCH  10  21
HETATM   21  O2  UNL     1      24.721  -0.554  54.520  1.00  0.00    -0.353 OA
HETATM   22  C17 UNL     1      24.620  -1.319  55.582  1.00  0.00     0.210 C 
ENDBRANCH  10  21
BRANCH   1  23
HETATM   23  O1  UNL     1      26.967  -0.097  54.629  1.00  0.00    -0.353 OA
HETATM   24  C1  UNL     1      28.280   0.059  54.846  1.00  0.00     0.210 C 
ENDBRANCH   1  23
TORSDOF 3
ENDMDL
MODEL 7
REMARK VINA RESULT:      -6.9      3.787      5.939
REMARK  3 active torsions:
REMARK  status: ('A' for Active; 'I' for Inactive)
REMARK    1  A    between atoms: O1_2  and  C2_3 
REMARK    2  A    between atoms: C6_9  and  N3_10 
REMARK    3  A    between atoms: C16_21  and  O2_22 
ROOT
HETATM    1  C2  UNL     1      25.351   0.078  53.754  1.00  0.00     0.103 A 
HETATM    2  C3  UNL     1      23.924  -0.057  53.543  1.00  0.00     0.072 A 
HETATM    3  C4  UNL     1      23.271   0.648  52.525  1.00  0.00     0.075 A 
HETATM    4  N1  UNL     1      21.996   0.621  52.196  1.00  0.00    -0.241 NA
HETATM    5  C5  UNL     1      21.506   1.332  51.181  1.00  0.00     0.236 A 
HETATM    6  N2  UNL     1      22.316   2.103  50.466  1.00  0.00    -0.224 NA
HETATM    7  C6  UNL     1      23.629   2.168  50.763  1.00  0.00     0.140 A 
HETATM    8  C14 UNL     1      24.067   1.453  51.768  1.00  0.00     0.041 A 
HETATM    9  C15 UNL     1      25.342   1.473  52.084  1.00  0.00     0.057 A 
HETATM   10  C16 UNL     1      26.311   0.964  52.957  1.00  0.00     0.102 A 
ENDROOT
BRANCH   7  11
HETATM   11  N3  UNL     1      24.439   3.034  49.962  1.00  0.00    -0.351 N 
HETATM   12  C7  UNL     1      23.567   4.178  49.441  1.00  0.00     0.130 C 
HETATM   13  C8  UNL     1      23.980   5.410  50.204  1.00  0.00     0.055 A 
HETATM   14  C9  UNL     1      25.184   6.314  49.596  1.00  0.00    -0.001 A 
HETATM   15  P1  UNL     1      25.301   5.829  49.600  1.00  0.00    -0.132 P 
HETATM   16  C10 UNL     1      26.615   5.683  49.259  1.00  0.00     0.034 A 
HETATM   17  C11 UNL     1      26.876   4.083  49.292  1.00  0.00     0.042 A 
HETATM   18  C13 UNL     1      25.616   4.396  49.610  1.00  0.00     0.018 A 
HETATM   19  C12 UNL     1      25.873   3.133  49.607  1.00  0.00     0.078 A 
HETATM   20  H12 UNL     1      24.805   8.305  49.562  1.00  0.00     0.052 HD
ENDBRANCH   7  11
BRANCH  10  21
HETATM   21  O2  UNL     1      27.169   0.512  53.731  1.00  0.00    -0.353 OA
HETATM   22  C17 UNL     1      28.227   0.206  54.445  1.00  0.00     0.210 C 
ENDBRANCH  10  21
BRANCH   1  23
HETATM   23  O1  UNL     1      25.600  -0.769  54.807  1.00  0.00    -0.353 OA
HETATM   24  C1  UNL     1      24.877  -1.163  55.864  1.00  0.00     0.210 C 
ENDBRANCH   1  23
TORSDOF 3
ENDMDL
MODEL 8
REMARK VINA RESULT:      -6.8      2.869      5.384
REMARK  3 active torsions:
REMARK  status: ('A' for Active; 'I' for Inactive)
REMARK    1  A    between atoms: O1_2  and  C2_3 
REMARK    2  A    between atoms: C6_9  and  N3_10 
REMARK    3  A    between atoms: C16_21  and  O2_22 
ROOT
HETATM    1  C2  UNL     1      25.203   4.215  49.536  1.00  0.00     0.103 A 
HETATM    2  C3  UNL     1      26.388   3.708  50.200  1.00  0.00     0.072 A 
HETATM    3  C4  UNL     1      26.306   2.680  51.145  1.00  0.00     0.075 A 
HETATM    4  N1  UNL     1      27.281   2.103  51.817  1.00  0.00    -0.241 NA
HETATM    5  C5  UNL     1      27.064   1.110  52.678  1.00  0.00     0.236 A 
HETATM    6  N2  UNL     1      25.828   0.674  52.883  1.00  0.00    -0.224 NA
HETATM    7  C6  UNL     1      24.794   1.231  52.223  1.00  0.00     0.140 A 
HETATM    8  C14 UNL     1      25.052   2.205  51.386  1.00  0.00     0.041 A 
HETATM    9  C15 UNL     1      24.078   2.767  50.709  1.00  0.00     0.057 A 
HETATM   10  C16 UNL     1      23.764   3.743  49.755  1.00  0.00     0.102 A 
ENDROOT
BRANCH   7  11
HETATM   11  N3  UNL     1      23.486   0.724  52.506  1.00  0.00    -0.351 N 
HETATM   12  C7  UNL     1      23.611  -0.736  52.946  1.00  0.00     0.130 C 
HETATM   13  C8  UNL     1      23.338  -0.760  54.427  1.00  0.00     0.055 A 
HETATM   14  C9  UNL     1      21.801  -0.951  54.915  1.00  0.00    -0.001 A 
HETATM   15  P1  UNL     1      21.840  -0.604  54.559  1.00  0.00    -0.132 P 
HETATM   16  C10 UNL     1      20.638   0.027  54.417  1.00  0.00     0.034 A 
HETATM   17  C11 UNL     1      20.878   1.116  53.239  1.00  0.00     0.042 A 
HETATM   18  C13 UNL     1      21.979   0.405  53.503  1.00  0.00     0.018 A 
HETATM   19  C12 UNL     1      22.113   1.276  52.562  1.00  0.00     0.078 A 
HETATM   20  H12 UNL     1      21.549  -2.332  56.378  1.00  0.00     0.052 HD
ENDBRANCH   7  11
BRANCH  10  21
HETATM   21  O2  UNL     1      23.486   4.608  48.910  1.00  0.00    -0.353 OA
HETATM   22  C17 UNL     1      22.982   5.392  47.986  1.00  0.00     0.210 C 
ENDBRANCH  10  21
BRANCH   1  23
HETATM   23  O1  UNL     1      25.697   5.179  48.692  1.00  0.00    -0.353 OA
HETATM   24  C1  UNL     1      26.683   6.080  48.798  1.00  0.00     0.210 C 
ENDBRANCH   1  23
TORSDOF 3
ENDMDL
MODEL 9
REMARK VINA RESULT:      -6.7      3.095      6.070
REMARK  3 active torsions:
REMARK  status: ('A' for Active; 'I' for Inactive)
REMARK    1  A    between atoms: O1_2  and  C2_3 
REMARK    2  A    between atoms: C6_9  and  N3_10 
REMARK    3  A    between atoms: C16_21  and  O2_22 
ROOT
HETATM    1  C2  UNL     1      22.950  -0.059  53.438  1.00  0.00     0.103 A 
HETATM    2  C3  UNL     1      24.388  -0.222  53.521  1.00  0.00     0.072 A 
HETATM    3  C4  UNL     1      25.258   0.690  52.913  1.00  0.00     0.075 A 
HETATM    4  N1  UNL     1      26.575   0.692  52.910  1.00  0.00    -0.241 NA
HETATM    5  C5  UNL     1      27.286   1.642  52.306  1.00  0.00     0.236 A 
HETATM    6  N2  UNL     1      26.664   2.629  51.675  1.00  0.00    -0.224 NA
HETATM    7  C6  UNL     1      25.317   2.674  51.645  1.00  0.00     0.140 A 
HETATM    8  C14 UNL     1      24.657   1.719  52.253  1.00  0.00     0.041 A 
HETATM    9  C15 UNL     1      23.345   1.731  52.263  1.00  0.00     0.057 A 
HETATM   10  C16 UNL     1      22.200   1.061  52.712  1.00  0.00     0.102 A 
ENDROOT
BRANCH   7  11
HETATM   11  N3  UNL     1      24.713   3.757  50.931  1.00  0.00    -0.351 N 
HETATM   12  C7  UNL     1      24.858   3.496  49.430  1.00  0.00     0.130 C 
HETATM   13  C8  UNL     1      23.486   3.128  48.927  1.00  0.00     0.055 A 
HETATM   14  C9  UNL     1      22.513   4.327  48.424  1.00  0.00    -0.001 A 
HETATM   15  P1  UNL     1      22.722   4.431  48.865  1.00  0.00    -0.132 P 
HETATM   16  C10 UNL     1      22.159   5.568  49.369  1.00  0.00     0.034 A 
HETATM   17  C11 UNL     1      22.914   5.813  50.783  1.00  0.00     0.042 A 
HETATM   18  C13 UNL     1      23.358   4.720  50.155  1.00  0.00     0.018 A 
HETATM   19  C12 UNL     1      23.938   4.969  51.280  1.00  0.00     0.078 A 
HETATM   20  H12 UNL     1      21.604   3.981  46.646  1.00  0.00     0.052 HD
ENDBRANCH   7  11
BRANCH  10  21
HETATM   21  O2  UNL     1      21.186   0.466  53.110  1.00  0.00    -0.353 OA
HETATM   22  C17 UNL     1      19.994  -0.025  53.358  1.00  0.00     0.210 C 
ENDBRANCH  10  21
BRANCH   1  23
HETATM   23  O1  UNL     1      22.466  -1.122  54.160  1.00  0.00    -0.353 OA
HETATM   24  C1  UNL     1      22.738  -1.611  55.378  1.00  0.00     0.210 C 
ENDBRANCH   1  23
TORSDOF 3
ENDMDL
