MODEL 1
REMARK VINA RESULT:     -10.0      0.000      0.000
REMARK  4 active torsions:
REMARK  status: ('A' for Active; 'I' for Inactive)
REMARK       I    between atoms: C1_2  and  N1_3 
REMARK    1  A    between atoms: C1_2  and  C18_24 
REMARK    2  A    between atoms: N1_3  and  C2_4 
REMARK    3  A    between atoms: C6_9  and  C7_10 
REMARK    4  A    between atoms: C7_10  and  C8_11 
ROOT
HETATM    1  C2  UNL     1      24.211   5.219  50.850  1.00  0.00     0.035 A 
HETATM    2  C3  UNL     1      23.183   6.067  51.214  1.00  0.00     0.031 A 
HETATM    3  C4  UNL     1      21.954   5.516  51.479  1.00  0.00     0.026 A 
HETATM    4  C5  UNL     1      21.707   4.161  51.398  1.00  0.00     0.040 A 
HETATM    5 CL1  UNL     1      20.142   3.514  51.743  1.00  0.00    -0.084 Cl
HETATM    6  C6  UNL     1      22.710   3.279  51.038  1.00  0.00    -0.027 A 
HETATM    7  C17 UNL     1      23.944   3.869  50.775  1.00  0.00     0.038 A 
ENDROOT
BRANCH   6   8
HETATM    8  C7  UNL     1      22.534   1.810  50.926  1.00  0.00     0.120 C 
BRANCH   8   9
HETATM    9  C8  UNL     1      23.219   1.038  51.969  1.00  0.00     0.130 A 
HETATM   10  N2  UNL     1      22.516   0.097  52.627  1.00  0.00    -0.245 NA
HETATM   11  C9  UNL     1      23.039  -0.672  53.598  1.00  0.00     0.121 A 
HETATM   12  C10 UNL     1      24.381  -0.425  53.886  1.00  0.00     0.052 A 
HETATM   13  C11 UNL     1      25.155   0.524  53.249  1.00  0.00     0.071 A 
HETATM   14  C12 UNL     1      26.541   0.743  53.577  1.00  0.00     0.010 A 
HETATM   15  N4  UNL     1      24.530   1.250  52.277  1.00  0.00    -0.233 NA
HETATM   16  C13 UNL     1      27.229   0.064  54.527  1.00  0.00     0.017 A 
HETATM   17  C16 UNL     1      27.247   1.715  52.889  1.00  0.00     0.130 A 
HETATM   18  C14 UNL     1      28.558   0.347  54.769  1.00  0.00     0.020 A 
HETATM   19  C15 UNL     1      29.232   1.331  54.055  1.00  0.00     0.116 A 
HETATM   20  N3  UNL     1      28.536   2.002  53.113  1.00  0.00    -0.272 NA
ENDBRANCH   8   9
ENDBRANCH   6   8
BRANCH   1  21
HETATM   21  N1  UNL     1      25.539   5.650  50.546  1.00  0.00    -0.323 N 
HETATM   22  C1  UNL     1      25.640   5.812  49.116  1.00  0.00     0.256 C 
HETATM   23  O1  UNL     1      24.561   5.536  48.549  1.00  0.00    -0.267 OA
HETATM   24  H1  UNL     1      26.387   5.852  51.150  1.00  0.00     0.169 HD
BRANCH  22  25
HETATM   25  C18 UNL     1      26.890   6.249  48.468  1.00  0.00     0.032 A 
HETATM   26  C19 UNL     1      27.103   7.417  47.766  1.00  0.00     0.017 A 
HETATM   27  C20 UNL     1      28.347   7.662  47.222  1.00  0.00     0.001 A 
HETATM   28  C21 UNL     1      29.390   6.757  47.367  1.00  0.00     0.000 A 
HETATM   29  C22 UNL     1      29.193   5.574  48.071  1.00  0.00     0.001 A 
HETATM   30  C23 UNL     1      27.940   5.371  48.595  1.00  0.00     0.017 A 
ENDBRANCH  22  25
ENDBRANCH   1  21
TORSDOF 4
ENDMDL
MODEL 2
REMARK VINA RESULT:     -10.0      2.738      5.350
REMARK  4 active torsions:
REMARK  status: ('A' for Active; 'I' for Inactive)
REMARK       I    between atoms: C1_2  and  N1_3 
REMARK    1  A    between atoms: C1_2  and  C18_24 
REMARK    2  A    between atoms: N1_3  and  C2_4 
REMARK    3  A    between atoms: C6_9  and  C7_10 
REMARK    4  A    between atoms: C7_10  and  C8_11 
ROOT
HETATM    1  C2  UNL     1      25.628   3.874  50.175  1.00  0.00     0.035 A 
HETATM    2  C3  UNL     1      25.331   5.223  50.173  1.00  0.00     0.031 A 
HETATM    3  C4  UNL     1      24.156   5.625  49.585  1.00  0.00     0.026 A 
HETATM    4  C5  UNL     1      23.270   4.743  49.002  1.00  0.00     0.040 A 
HETATM    5 CL1  UNL     1      21.804   5.298  48.274  1.00  0.00    -0.084 Cl
HETATM    6  C6  UNL     1      23.531   3.385  48.983  1.00  0.00    -0.027 A 
HETATM    7  C17 UNL     1      24.729   3.010  49.587  1.00  0.00     0.038 A 
ENDROOT
BRANCH   6   8
HETATM    8  C7  UNL     1      22.637   2.368  48.379  1.00  0.00     0.120 C 
BRANCH   8   9
HETATM    9  C8  UNL     1      21.702   1.747  49.325  1.00  0.00     0.130 A 
HETATM   10  N2  UNL     1      20.390   1.759  49.020  1.00  0.00    -0.245 NA
HETATM   11  C9  UNL     1      19.443   1.221  49.808  1.00  0.00     0.121 A 
HETATM   12  C10 UNL     1      19.917   0.639  50.984  1.00  0.00     0.052 A 
HETATM   13  C11 UNL     1      21.247   0.594  51.352  1.00  0.00     0.071 A 
HETATM   14  C12 UNL     1      21.692  -0.021  52.578  1.00  0.00     0.010 A 
HETATM   15  N4  UNL     1      22.127   1.168  50.483  1.00  0.00    -0.233 NA
HETATM   16  C13 UNL     1      20.880  -0.610  53.489  1.00  0.00     0.017 A 
HETATM   17  C16 UNL     1      23.045  -0.024  52.873  1.00  0.00     0.130 A 
HETATM   18  C14 UNL     1      21.403  -1.173  54.636  1.00  0.00     0.020 A 
HETATM   19  C15 UNL     1      22.768  -1.156  54.895  1.00  0.00     0.116 A 
HETATM   20  N3  UNL     1      23.567  -0.566  53.981  1.00  0.00    -0.272 NA
ENDBRANCH   8   9
ENDBRANCH   6   8
BRANCH   1  21
HETATM   21  N1  UNL     1      26.810   3.312  50.748  1.00  0.00    -0.323 N 
HETATM   22  C1  UNL     1      26.421   2.529  51.895  1.00  0.00     0.256 C 
HETATM   23  O1  UNL     1      25.184   2.557  52.068  1.00  0.00    -0.267 OA
HETATM   24  H1  UNL     1      27.836   3.373  50.487  1.00  0.00     0.169 HD
BRANCH  22  25
HETATM   25  C18 UNL     1      27.411   1.810  52.719  1.00  0.00     0.032 A 
HETATM   26  C19 UNL     1      28.405   2.360  53.500  1.00  0.00     0.017 A 
HETATM   27  C20 UNL     1      29.248   1.528  54.208  1.00  0.00     0.001 A 
HETATM   28  C21 UNL     1      29.116   0.147  54.150  1.00  0.00     0.000 A 
HETATM   29  C22 UNL     1      28.120  -0.426  53.366  1.00  0.00     0.001 A 
HETATM   30  C23 UNL     1      27.304   0.440  52.680  1.00  0.00     0.017 A 
ENDBRANCH  22  25
ENDBRANCH   1  21
TORSDOF 4
ENDMDL
MODEL 3
REMARK VINA RESULT:      -9.8      2.308      6.315
REMARK  4 active torsions:
REMARK  status: ('A' for Active; 'I' for Inactive)
REMARK       I    between atoms: C1_2  and  N1_3 
REMARK    1  A    between atoms: C1_2  and  C18_24 
REMARK    2  A    between atoms: N1_3  and  C2_4 
REMARK    3  A    between atoms: C6_9  and  C7_10 
REMARK    4  A    between atoms: C7_10  and  C8_11 
ROOT
HETATM    1  C2  UNL     1      23.082  -0.312  53.514  1.00  0.00     0.035 A 
HETATM    2  C3  UNL     1      22.043  -0.435  54.415  1.00  0.00     0.031 A 
HETATM    3  C4  UNL     1      20.764  -0.224  53.960  1.00  0.00     0.026 A 
HETATM    4  C5  UNL     1      20.479   0.103  52.651  1.00  0.00     0.040 A 
HETATM    5 CL1  UNL     1      18.853   0.358  52.125  1.00  0.00    -0.084 Cl
HETATM    6  C6  UNL     1      21.491   0.235  51.717  1.00  0.00    -0.027 A 
HETATM    7  C17 UNL     1      22.776   0.015  52.210  1.00  0.00     0.038 A 
ENDROOT
BRANCH   6   8
HETATM    8  C7  UNL     1      21.277   0.583  50.292  1.00  0.00     0.120 C 
BRANCH   8   9
HETATM    9  C8  UNL     1      21.615   1.969  49.950  1.00  0.00     0.130 A 
HETATM   10  N2  UNL     1      20.607   2.847  49.788  1.00  0.00    -0.245 NA
HETATM   11  C9  UNL     1      20.796   4.141  49.475  1.00  0.00     0.121 A 
HETATM   12  C10 UNL     1      22.129   4.522  49.328  1.00  0.00     0.052 A 
HETATM   13  C11 UNL     1      23.206   3.671  49.481  1.00  0.00     0.071 A 
HETATM   14  C12 UNL     1      24.570   4.110  49.321  1.00  0.00     0.010 A 
HETATM   15  N4  UNL     1      22.906   2.379  49.799  1.00  0.00    -0.233 NA
HETATM   16  C13 UNL     1      24.946   5.374  49.008  1.00  0.00     0.017 A 
HETATM   17  C16 UNL     1      25.593   3.193  49.494  1.00  0.00     0.130 A 
HETATM   18  C14 UNL     1      26.282   5.697  48.876  1.00  0.00     0.020 A 
HETATM   19  C15 UNL     1      27.279   4.747  49.058  1.00  0.00     0.116 A 
HETATM   20  N3  UNL     1      26.893   3.491  49.369  1.00  0.00    -0.272 NA
ENDBRANCH   8   9
ENDBRANCH   6   8
BRANCH   1  21
HETATM   21  N1  UNL     1      24.459  -0.503  53.844  1.00  0.00    -0.323 N 
HETATM   22  C1  UNL     1      25.133   0.764  53.696  1.00  0.00     0.256 C 
HETATM   23  O1  UNL     1      24.344   1.659  53.327  1.00  0.00    -0.267 OA
HETATM   24  H1  UNL     1      25.014  -1.351  54.153  1.00  0.00     0.169 HD
BRANCH  22  25
HETATM   25  C18 UNL     1      26.576   0.913  53.961  1.00  0.00     0.032 A 
HETATM   26  C19 UNL     1      27.386   0.062  54.683  1.00  0.00     0.017 A 
HETATM   27  C20 UNL     1      28.724   0.364  54.830  1.00  0.00     0.001 A 
HETATM   28  C21 UNL     1      29.273   1.508  54.266  1.00  0.00     0.000 A 
HETATM   29  C22 UNL     1      28.472   2.378  53.534  1.00  0.00     0.001 A 
HETATM   30  C23 UNL     1      27.146   2.038  53.413  1.00  0.00     0.017 A 
ENDBRANCH  22  25
ENDBRANCH   1  21
TORSDOF 4
ENDMDL
MODEL 4
REMARK VINA RESULT:      -9.5      2.788      6.958
REMARK  4 active torsions:
REMARK  status: ('A' for Active; 'I' for Inactive)
REMARK       I    between atoms: C1_2  and  N1_3 
REMARK    1  A    between atoms: C1_2  and  C18_24 
REMARK    2  A    between atoms: N1_3  and  C2_4 
REMARK    3  A    between atoms: C6_9  and  C7_10 
REMARK    4  A    between atoms: C7_10  and  C8_11 
ROOT
HETATM    1  C2  UNL     1      22.999  -0.688  54.471  1.00  0.00     0.035 A 
HETATM    2  C3  UNL     1      22.191  -1.795  54.639  1.00  0.00     0.031 A 
HETATM    3  C4  UNL     1      20.905  -1.737  54.158  1.00  0.00     0.026 A 
HETATM    4  C5  UNL     1      20.394  -0.627  53.520  1.00  0.00     0.040 A 
HETATM    5 CL1  UNL     1      18.770  -0.601  52.932  1.00  0.00    -0.084 Cl
HETATM    6  C6  UNL     1      21.171   0.502  53.331  1.00  0.00    -0.027 A 
HETATM    7  C17 UNL     1      22.469   0.412  53.829  1.00  0.00     0.038 A 
ENDROOT
BRANCH   6   8
HETATM    8  C7  UNL     1      20.705   1.738  52.656  1.00  0.00     0.120 C 
BRANCH   8   9
HETATM    9  C8  UNL     1      21.423   2.059  51.418  1.00  0.00     0.130 A 
HETATM   10  N2  UNL     1      21.296   1.218  50.374  1.00  0.00    -0.245 NA
HETATM   11  C9  UNL     1      21.905   1.410  49.191  1.00  0.00     0.121 A 
HETATM   12  C10 UNL     1      22.693   2.558  49.115  1.00  0.00     0.052 A 
HETATM   13  C11 UNL     1      22.865   3.458  50.148  1.00  0.00     0.071 A 
HETATM   14  C12 UNL     1      23.688   4.635  50.024  1.00  0.00     0.010 A 
HETATM   15  N4  UNL     1      22.202   3.172  51.305  1.00  0.00    -0.233 NA
HETATM   16  C13 UNL     1      24.375   4.986  48.909  1.00  0.00     0.017 A 
HETATM   17  C16 UNL     1      23.806   5.488  51.108  1.00  0.00     0.130 A 
HETATM   18  C14 UNL     1      25.139   6.135  48.888  1.00  0.00     0.020 A 
HETATM   19  C15 UNL     1      25.230   6.966  49.998  1.00  0.00     0.116 A 
HETATM   20  N3  UNL     1      24.543   6.606  51.102  1.00  0.00    -0.272 NA
ENDBRANCH   8   9
ENDBRANCH   6   8
BRANCH   1  21
HETATM   21  N1  UNL     1      24.354  -0.605  54.918  1.00  0.00    -0.323 N 
HETATM   22  C1  UNL     1      25.210  -0.636  53.757  1.00  0.00     0.256 C 
HETATM   23  O1  UNL     1      24.545  -0.725  52.703  1.00  0.00    -0.267 OA
HETATM   24  H1  UNL     1      24.791  -0.530  55.881  1.00  0.00     0.169 HD
BRANCH  22  25
HETATM   25  C18 UNL     1      26.678  -0.568  53.871  1.00  0.00     0.032 A 
HETATM   26  C19 UNL     1      27.415   0.249  54.702  1.00  0.00     0.017 A 
HETATM   27  C20 UNL     1      28.793   0.177  54.674  1.00  0.00     0.001 A 
HETATM   28  C21 UNL     1      29.453  -0.701  53.825  1.00  0.00     0.000 A 
HETATM   29  C22 UNL     1      28.727  -1.532  52.979  1.00  0.00     0.001 A 
HETATM   30  C23 UNL     1      27.358  -1.428  53.041  1.00  0.00     0.017 A 
ENDBRANCH  22  25
ENDBRANCH   1  21
TORSDOF 4
ENDMDL
MODEL 5
REMARK VINA RESULT:      -9.3      2.633      7.855
REMARK  4 active torsions:
REMARK  status: ('A' for Active; 'I' for Inactive)
REMARK       I    between atoms: C1_2  and  N1_3 
REMARK    1  A    between atoms: C1_2  and  C18_24 
REMARK    2  A    between atoms: N1_3  and  C2_4 
REMARK    3  A    between atoms: C6_9  and  C7_10 
REMARK    4  A    between atoms: C7_10  and  C8_11 
ROOT
HETATM    1  C2  UNL     1      24.869   2.390  51.921  1.00  0.00     0.035 A 
HETATM    2  C3  UNL     1      24.236   3.063  52.948  1.00  0.00     0.031 A 
HETATM    3  C4  UNL     1      23.774   4.333  52.700  1.00  0.00     0.026 A 
HETATM    4  C5  UNL     1      23.915   4.956  51.477  1.00  0.00     0.040 A 
HETATM    5 CL1  UNL     1      23.316   6.555  51.213  1.00  0.00    -0.084 Cl
HETATM    6  C6  UNL     1      24.543   4.315  50.424  1.00  0.00    -0.027 A 
HETATM    7  C17 UNL     1      25.000   3.030  50.707  1.00  0.00     0.038 A 
ENDROOT
BRANCH   6   8
HETATM    8  C7  UNL     1      24.738   4.908  49.079  1.00  0.00     0.120 C 
BRANCH   8   9
HETATM    9  C8  UNL     1      26.063   5.502  48.866  1.00  0.00     0.130 A 
HETATM   10  N2  UNL     1      27.103   4.673  48.657  1.00  0.00    -0.245 NA
HETATM   11  C9  UNL     1      28.361   5.103  48.450  1.00  0.00     0.121 A 
HETATM   12  C10 UNL     1      28.520   6.488  48.467  1.00  0.00     0.052 A 
HETATM   13  C11 UNL     1      27.495   7.389  48.676  1.00  0.00     0.071 A 
HETATM   14  C12 UNL     1      27.705   8.815  48.683  1.00  0.00     0.010 A 
HETATM   15  N4  UNL     1      26.257   6.851  48.875  1.00  0.00    -0.233 NA
HETATM   16  C13 UNL     1      28.901   9.423  48.493  1.00  0.00     0.017 A 
HETATM   17  C16 UNL     1      26.622   9.651  48.899  1.00  0.00     0.130 A 
HETATM   18  C14 UNL     1      29.001  10.800  48.518  1.00  0.00     0.020 A 
HETATM   19  C15 UNL     1      27.890  11.604  48.737  1.00  0.00     0.116 A 
HETATM   20  N3  UNL     1      26.704  10.988  48.926  1.00  0.00    -0.272 NA
ENDBRANCH   8   9
ENDBRANCH   6   8
BRANCH   1  21
HETATM   21  N1  UNL     1      25.399   1.068  52.033  1.00  0.00    -0.323 N 
HETATM   22  C1  UNL     1      26.722   1.163  52.601  1.00  0.00     0.256 C 
HETATM   23  O1  UNL     1      27.034   2.351  52.832  1.00  0.00    -0.267 OA
HETATM   24  H1  UNL     1      25.009   0.112  51.789  1.00  0.00     0.169 HD
BRANCH  22  25
HETATM   25  C18 UNL     1      27.551  -0.031  52.849  1.00  0.00     0.032 A 
HETATM   26  C19 UNL     1      28.838  -0.066  53.345  1.00  0.00     0.017 A 
HETATM   27  C20 UNL     1      29.465  -1.284  53.512  1.00  0.00     0.001 A 
HETATM   28  C21 UNL     1      28.827  -2.475  53.191  1.00  0.00     0.000 A 
HETATM   29  C22 UNL     1      27.530  -2.459  52.689  1.00  0.00     0.001 A 
HETATM   30  C23 UNL     1      26.945  -1.225  52.539  1.00  0.00     0.017 A 
ENDBRANCH  22  25
ENDBRANCH   1  21
TORSDOF 4
ENDMDL
MODEL 6
REMARK VINA RESULT:      -9.3      3.560      7.056
REMARK  4 active torsions:
REMARK  status: ('A' for Active; 'I' for Inactive)
REMARK       I    between atoms: C1_2  and  N1_3 
REMARK    1  A    between atoms: C1_2  and  C18_24 
REMARK    2  A    between atoms: N1_3  and  C2_4 
REMARK    3  A    between atoms: C6_9  and  C7_10 
REMARK    4  A    between atoms: C7_10  and  C8_11 
ROOT
HETATM    1  C2  UNL     1      24.309   2.820  51.431  1.00  0.00     0.035 A 
HETATM    2  C3  UNL     1      24.130   2.939  50.067  1.00  0.00     0.031 A 
HETATM    3  C4  UNL     1      22.848   2.888  49.576  1.00  0.00     0.026 A 
HETATM    4  C5  UNL     1      21.743   2.723  50.384  1.00  0.00     0.040 A 
HETATM    5 CL1  UNL     1      20.149   2.664  49.718  1.00  0.00    -0.084 Cl
HETATM    6  C6  UNL     1      21.879   2.600  51.755  1.00  0.00    -0.027 A 
HETATM    7  C17 UNL     1      23.190   2.657  52.221  1.00  0.00     0.038 A 
ENDROOT
BRANCH   6   8
HETATM    8  C7  UNL     1      20.748   2.420  52.697  1.00  0.00     0.120 C 
BRANCH   8   9
HETATM    9  C8  UNL     1      20.580   1.047  53.186  1.00  0.00     0.130 A 
HETATM   10  N2  UNL     1      21.598   0.488  53.867  1.00  0.00    -0.245 NA
HETATM   11  C9  UNL     1      21.558  -0.761  54.363  1.00  0.00     0.121 A 
HETATM   12  C10 UNL     1      20.372  -1.453  54.120  1.00  0.00     0.052 A 
HETATM   13  C11 UNL     1      19.294  -0.936  53.429  1.00  0.00     0.071 A 
HETATM   14  C12 UNL     1      18.085  -1.688  53.203  1.00  0.00     0.010 A 
HETATM   15  N4  UNL     1      19.436   0.340  52.969  1.00  0.00    -0.233 NA
HETATM   16  C13 UNL     1      17.870  -2.957  53.629  1.00  0.00     0.017 A 
HETATM   17  C16 UNL     1      17.049  -1.095  52.501  1.00  0.00     0.130 A 
HETATM   18  C14 UNL     1      16.675  -3.594  53.362  1.00  0.00     0.020 A 
HETATM   19  C15 UNL     1      15.659  -2.964  52.654  1.00  0.00     0.116 A 
HETATM   20  N3  UNL     1      15.884  -1.701  52.235  1.00  0.00    -0.272 NA
ENDBRANCH   8   9
ENDBRANCH   6   8
BRANCH   1  21
HETATM   21  N1  UNL     1      25.580   2.856  52.082  1.00  0.00    -0.323 N 
HETATM   22  C1  UNL     1      26.015   1.496  52.288  1.00  0.00     0.256 C 
HETATM   23  O1  UNL     1      25.178   0.679  51.851  1.00  0.00    -0.267 OA
HETATM   24  H1  UNL     1      26.200   3.652  52.408  1.00  0.00     0.169 HD
BRANCH  22  25
HETATM   25  C18 UNL     1      27.298   1.180  52.942  1.00  0.00     0.032 A 
HETATM   26  C19 UNL     1      28.179   2.065  53.526  1.00  0.00     0.017 A 
HETATM   27  C20 UNL     1      29.342   1.587  54.094  1.00  0.00     0.001 A 
HETATM   28  C21 UNL     1      29.645   0.232  54.089  1.00  0.00     0.000 A 
HETATM   29  C22 UNL     1      28.769  -0.676  53.504  1.00  0.00     0.001 A 
HETATM   30  C23 UNL     1      27.624  -0.156  52.951  1.00  0.00     0.017 A 
ENDBRANCH  22  25
ENDBRANCH   1  21
TORSDOF 4
ENDMDL
MODEL 7
REMARK VINA RESULT:      -9.1      3.833      7.282
REMARK  4 active torsions:
REMARK  status: ('A' for Active; 'I' for Inactive)
REMARK       I    between atoms: C1_2  and  N1_3 
REMARK    1  A    between atoms: C1_2  and  C18_24 
REMARK    2  A    between atoms: N1_3  and  C2_4 
REMARK    3  A    between atoms: C6_9  and  C7_10 
REMARK    4  A    between atoms: C7_10  and  C8_11 
ROOT
HETATM    1  C2  UNL     1      24.453   1.962  52.523  1.00  0.00     0.035 A 
HETATM    2  C3  UNL     1      24.334   3.153  53.212  1.00  0.00     0.031 A 
HETATM    3  C4  UNL     1      23.608   4.166  52.633  1.00  0.00     0.026 A 
HETATM    4  C5  UNL     1      22.999   4.041  51.402  1.00  0.00     0.040 A 
HETATM    5 CL1  UNL     1      22.096   5.344  50.714  1.00  0.00    -0.084 Cl
HETATM    6  C6  UNL     1      23.094   2.865  50.680  1.00  0.00    -0.027 A 
HETATM    7  C17 UNL     1      23.837   1.858  51.294  1.00  0.00     0.038 A 
ENDROOT
BRANCH   6   8
HETATM    8  C7  UNL     1      22.473   2.644  49.352  1.00  0.00     0.120 C 
BRANCH   8   9
HETATM    9  C8  UNL     1      21.031   2.376  49.395  1.00  0.00     0.130 A 
HETATM   10  N2  UNL     1      20.247   2.973  48.478  1.00  0.00    -0.245 NA
HETATM   11  C9  UNL     1      18.915   2.802  48.420  1.00  0.00     0.121 A 
HETATM   12  C10 UNL     1      18.388   1.949  49.391  1.00  0.00     0.052 A 
HETATM   13  C11 UNL     1      19.138   1.308  50.357  1.00  0.00     0.071 A 
HETATM   14  C12 UNL     1      18.552   0.433  51.340  1.00  0.00     0.010 A 
HETATM   15  N4  UNL     1      20.481   1.549  50.328  1.00  0.00    -0.233 NA
HETATM   16  C13 UNL     1      17.230   0.145  51.432  1.00  0.00     0.017 A 
HETATM   17  C16 UNL     1      19.375  -0.173  52.274  1.00  0.00     0.130 A 
HETATM   18  C14 UNL     1      16.763  -0.708  52.411  1.00  0.00     0.020 A 
HETATM   19  C15 UNL     1      17.623  -1.297  53.331  1.00  0.00     0.116 A 
HETATM   20  N3  UNL     1      18.936  -1.002  53.230  1.00  0.00    -0.272 NA
ENDBRANCH   8   9
ENDBRANCH   6   8
BRANCH   1  21
HETATM   21  N1  UNL     1      25.175   0.826  53.000  1.00  0.00    -0.323 N 
HETATM   22  C1  UNL     1      26.532   0.924  52.521  1.00  0.00     0.256 C 
HETATM   23  O1  UNL     1      26.698   1.954  51.834  1.00  0.00    -0.267 OA
HETATM   24  H1  UNL     1      24.897  -0.004  53.599  1.00  0.00     0.169 HD
BRANCH  22  25
HETATM   25  C18 UNL     1      27.545  -0.099  52.837  1.00  0.00     0.032 A 
HETATM   26  C19 UNL     1      28.815   0.108  53.333  1.00  0.00     0.017 A 
HETATM   27  C20 UNL     1      29.634  -0.976  53.570  1.00  0.00     0.001 A 
HETATM   28  C21 UNL     1      29.207  -2.273  53.318  1.00  0.00     0.000 A 
HETATM   29  C22 UNL     1      27.930  -2.502  52.817  1.00  0.00     0.001 A 
HETATM   30  C23 UNL     1      27.149  -1.393  52.597  1.00  0.00     0.017 A 
ENDBRANCH  22  25
ENDBRANCH   1  21
TORSDOF 4
ENDMDL
MODEL 8
REMARK VINA RESULT:      -9.0      2.381      4.231
REMARK  4 active torsions:
REMARK  status: ('A' for Active; 'I' for Inactive)
REMARK       I    between atoms: C1_2  and  N1_3 
REMARK    1  A    between atoms: C1_2  and  C18_24 
REMARK    2  A    between atoms: N1_3  and  C2_4 
REMARK    3  A    between atoms: C6_9  and  C7_10 
REMARK    4  A    between atoms: C7_10  and  C8_11 
ROOT
HETATM    1  C2  UNL     1      25.531   7.366  50.373  1.00  0.00     0.035 A 
HETATM    2  C3  UNL     1      24.254   7.872  50.523  1.00  0.00     0.031 A 
HETATM    3  C4  UNL     1      23.194   7.032  50.284  1.00  0.00     0.026 A 
HETATM    4  C5  UNL     1      23.352   5.717  49.902  1.00  0.00     0.040 A 
HETATM    5 CL1  UNL     1      21.986   4.698  49.612  1.00  0.00    -0.084 Cl
HETATM    6  C6  UNL     1      24.613   5.172  49.741  1.00  0.00    -0.027 A 
HETATM    7  C17 UNL     1      25.667   6.048  49.991  1.00  0.00     0.038 A 
ENDROOT
BRANCH   6   8
HETATM    8  C7  UNL     1      24.876   3.770  49.334  1.00  0.00     0.120 C 
BRANCH   8   9
HETATM    9  C8  UNL     1      25.153   2.858  50.450  1.00  0.00     0.130 A 
HETATM   10  N2  UNL     1      26.432   2.707  50.842  1.00  0.00    -0.245 NA
HETATM   11  C9  UNL     1      26.805   1.901  51.852  1.00  0.00     0.121 A 
HETATM   12  C10 UNL     1      25.762   1.219  52.477  1.00  0.00     0.052 A 
HETATM   13  C11 UNL     1      24.432   1.331  52.121  1.00  0.00     0.071 A 
HETATM   14  C12 UNL     1      23.385   0.607  52.797  1.00  0.00     0.010 A 
HETATM   15  N4  UNL     1      24.160   2.175  51.085  1.00  0.00    -0.233 NA
HETATM   16  C13 UNL     1      23.576  -0.247  53.832  1.00  0.00     0.017 A 
HETATM   17  C16 UNL     1      22.076   0.777  52.379  1.00  0.00     0.130 A 
HETATM   18  C14 UNL     1      22.506  -0.895  54.415  1.00  0.00     0.020 A 
HETATM   19  C15 UNL     1      21.206  -0.697  53.967  1.00  0.00     0.116 A 
HETATM   20  N3  UNL     1      21.027   0.155  52.935  1.00  0.00    -0.272 NA
ENDBRANCH   8   9
ENDBRANCH   6   8
BRANCH   1  21
HETATM   21  N1  UNL     1      26.725   8.121  50.588  1.00  0.00    -0.323 N 
HETATM   22  C1  UNL     1      27.093   8.741  49.339  1.00  0.00     0.256 C 
HETATM   23  O1  UNL     1      26.284   8.453  48.432  1.00  0.00    -0.267 OA
HETATM   24  H1  UNL     1      27.330   8.283  51.444  1.00  0.00     0.169 HD
BRANCH  22  25
HETATM   25  C18 UNL     1      28.289   9.595  49.216  1.00  0.00     0.032 A 
HETATM   26  C19 UNL     1      29.607   9.208  49.332  1.00  0.00     0.017 A 
HETATM   27  C20 UNL     1      30.604  10.150  49.187  1.00  0.00     0.001 A 
HETATM   28  C21 UNL     1      30.308  11.482  48.926  1.00  0.00     0.000 A 
HETATM   29  C22 UNL     1      28.984  11.890  48.806  1.00  0.00     0.001 A 
HETATM   30  C23 UNL     1      28.025  10.919  48.957  1.00  0.00     0.017 A 
ENDBRANCH  22  25
ENDBRANCH   1  21
TORSDOF 4
ENDMDL
MODEL 9
REMARK VINA RESULT:      -9.0      4.198      7.806
REMARK  4 active torsions:
REMARK  status: ('A' for Active; 'I' for Inactive)
REMARK       I    between atoms: C1_2  and  N1_3 
REMARK    1  A    between atoms: C1_2  and  C18_24 
REMARK    2  A    between atoms: N1_3  and  C2_4 
REMARK    3  A    between atoms: C6_9  and  C7_10 
REMARK    4  A    between atoms: C7_10  and  C8_11 
ROOT
HETATM    1  C2  UNL     1      24.551   2.340  51.772  1.00  0.00     0.035 A 
HETATM    2  C3  UNL     1      24.278   3.543  52.393  1.00  0.00     0.031 A 
HETATM    3  C4  UNL     1      22.979   3.991  52.390  1.00  0.00     0.026 A 
HETATM    4  C5  UNL     1      21.948   3.294  51.797  1.00  0.00     0.040 A 
HETATM    5 CL1  UNL     1      20.329   3.899  51.820  1.00  0.00    -0.084 Cl
HETATM    6  C6  UNL     1      22.180   2.086  51.166  1.00  0.00    -0.027 A 
HETATM    7  C17 UNL     1      23.506   1.659  51.186  1.00  0.00     0.038 A 
ENDROOT
BRANCH   6   8
HETATM    8  C7  UNL     1      21.133   1.271  50.503  1.00  0.00     0.120 C 
BRANCH   8   9
HETATM    9  C8  UNL     1      20.279   0.516  51.428  1.00  0.00     0.130 A 
HETATM   10  N2  UNL     1      20.799   0.147  52.614  1.00  0.00    -0.245 NA
HETATM   11  C9  UNL     1      20.112  -0.545  53.539  1.00  0.00     0.121 A 
HETATM   12  C10 UNL     1      18.802  -0.863  53.184  1.00  0.00     0.052 A 
HETATM   13  C11 UNL     1      18.212  -0.515  51.985  1.00  0.00     0.071 A 
HETATM   14  C12 UNL     1      16.851  -0.863  51.660  1.00  0.00     0.010 A 
HETATM   15  N4  UNL     1      18.994   0.187  51.116  1.00  0.00    -0.233 NA
HETATM   16  C13 UNL     1      16.014  -1.557  52.469  1.00  0.00     0.017 A 
HETATM   17  C16 UNL     1      16.334  -0.474  50.436  1.00  0.00     0.130 A 
HETATM   18  C14 UNL     1      14.725  -1.842  52.068  1.00  0.00     0.020 A 
HETATM   19  C15 UNL     1      14.243  -1.433  50.830  1.00  0.00     0.116 A 
HETATM   20  N3  UNL     1      15.086  -0.744  50.032  1.00  0.00    -0.272 NA
ENDBRANCH   8   9
ENDBRANCH   6   8
BRANCH   1  21
HETATM   21  N1  UNL     1      25.851   1.751  51.697  1.00  0.00    -0.323 N 
HETATM   22  C1  UNL     1      26.003   0.858  52.819  1.00  0.00     0.256 C 
HETATM   23  O1  UNL     1      24.978   0.846  53.533  1.00  0.00    -0.267 OA
HETATM   24  H1  UNL     1      26.650   1.856  51.008  1.00  0.00     0.169 HD
BRANCH  22  25
HETATM   25  C18 UNL     1      27.240   0.086  53.039  1.00  0.00     0.032 A 
HETATM   26  C19 UNL     1      27.418  -1.272  52.875  1.00  0.00     0.017 A 
HETATM   27  C20 UNL     1      28.655  -1.827  53.130  1.00  0.00     0.001 A 
HETATM   28  C21 UNL     1      29.725  -1.047  53.548  1.00  0.00     0.000 A 
HETATM   29  C22 UNL     1      29.564   0.324  53.720  1.00  0.00     0.001 A 
HETATM   30  C23 UNL     1      28.316   0.833  53.455  1.00  0.00     0.017 A 
ENDBRANCH  22  25
ENDBRANCH   1  21
TORSDOF 4
ENDMDL
