MODEL 1
REMARK VINA RESULT:      -8.5      0.000      0.000
REMARK  3 active torsions:
REMARK  status: ('A' for Active; 'I' for Inactive)
REMARK    1  A    between atoms: C4_5  and  O1_6 
REMARK    2  A    between atoms: O1_6  and  C5_7 
REMARK    3  A    between atoms: C5_7  and  C6_8 
ROOT
HETATM    1  C6  UNL     1      26.202   1.487  52.525  1.00  0.00    -0.033 A 
HETATM    2  C7  UNL     1      27.328   2.165  52.991  1.00  0.00     0.010 A 
HETATM    3  C8  UNL     1      28.496   1.523  53.361  1.00  0.00     0.013 A 
HETATM    4  C9  UNL     1      28.511   0.146  53.247  1.00  0.00    -0.026 A 
HETATM    5  C10 UNL     1      29.684  -0.511  53.617  1.00  0.00     0.012 A 
HETATM    6  C11 UNL     1      29.724  -1.896  53.513  1.00  0.00     0.001 A 
HETATM    7  C12 UNL     1      28.623  -2.604  53.052  1.00  0.00     0.001 A 
HETATM    8  C13 UNL     1      27.456  -1.935  52.686  1.00  0.00     0.012 A 
HETATM    9  C14 UNL     1      27.412  -0.561  52.788  1.00  0.00    -0.025 A 
HETATM   10  C15 UNL     1      26.266   0.110  52.430  1.00  0.00     0.021 A 
ENDROOT
BRANCH   1  11
HETATM   11  C5  UNL     1      25.041   2.352  52.178  1.00  0.00     0.213 C 
BRANCH  11  12
HETATM   12  O1  UNL     1      24.249   1.641  51.240  1.00  0.00    -0.358 OA
BRANCH  12  13
HETATM   13  C4  UNL     1      22.912   1.411  51.376  1.00  0.00     0.146 C 
HETATM   14  C3  UNL     1      22.210   0.701  52.241  1.00  0.00    -0.013 A 
HETATM   15  C2  UNL     1      22.891  -0.007  53.286  1.00  0.00     0.033 A 
HETATM   16  C16 UNL     1      20.771   0.707  52.044  1.00  0.00     0.009 A 
HETATM   17  C1  UNL     1      22.092  -0.695  54.108  1.00  0.00     0.016 A 
HETATM   18 CL1  UNL     1      22.839  -1.589  55.413  1.00  0.00    -0.089 Cl
HETATM   19  C18 UNL     1      20.631  -0.773  54.023  1.00  0.00     0.078 A 
HETATM   20  C17 UNL     1      20.042  -0.000  52.902  1.00  0.00    -0.020 A 
ENDBRANCH  12  13
ENDBRANCH  11  12
ENDBRANCH   1  11
TORSDOF 3
ENDMDL
MODEL 2
REMARK VINA RESULT:      -8.5      1.576      6.182
REMARK  3 active torsions:
REMARK  status: ('A' for Active; 'I' for Inactive)
REMARK    1  A    between atoms: C4_5  and  O1_6 
REMARK    2  A    between atoms: O1_6  and  C5_7 
REMARK    3  A    between atoms: C5_7  and  C6_8 
ROOT
HETATM    1  C6  UNL     1      23.462   2.123  52.166  1.00  0.00    -0.033 A 
HETATM    2  C7  UNL     1      22.163   2.256  51.678  1.00  0.00     0.010 A 
HETATM    3  C8  UNL     1      21.130   1.409  52.037  1.00  0.00     0.013 A 
HETATM    4  C9  UNL     1      21.438   0.396  52.924  1.00  0.00    -0.026 A 
HETATM    5  C10 UNL     1      20.405  -0.464  53.293  1.00  0.00     0.012 A 
HETATM    6  C11 UNL     1      20.690  -1.492  54.184  1.00  0.00     0.001 A 
HETATM    7  C12 UNL     1      21.972  -1.656  54.691  1.00  0.00     0.001 A 
HETATM    8  C13 UNL     1      22.996  -0.789  54.314  1.00  0.00     0.012 A 
HETATM    9  C14 UNL     1      22.718   0.231  53.430  1.00  0.00    -0.025 A 
HETATM   10  C15 UNL     1      23.721   1.093  53.050  1.00  0.00     0.021 A 
ENDROOT
BRANCH   1  11
HETATM   11  C5  UNL     1      24.434   3.131  51.662  1.00  0.00     0.213 C 
BRANCH  11  12
HETATM   12  O1  UNL     1      25.625   2.438  51.325  1.00  0.00    -0.358 OA
BRANCH  12  13
HETATM   13  C4  UNL     1      26.742   2.397  52.107  1.00  0.00     0.146 C 
HETATM   14  C3  UNL     1      27.439   1.398  52.618  1.00  0.00    -0.013 A 
HETATM   15  C2  UNL     1      27.027   0.049  52.360  1.00  0.00     0.033 A 
HETATM   16  C16 UNL     1      28.592   1.774  53.417  1.00  0.00     0.009 A 
HETATM   17  C1  UNL     1      27.797  -0.888  52.922  1.00  0.00     0.016 A 
HETATM   18 CL1  UNL     1      27.366  -2.564  52.659  1.00  0.00    -0.089 Cl
HETATM   19  C18 UNL     1      28.984  -0.647  53.746  1.00  0.00     0.078 A 
HETATM   20  C17 UNL     1      29.310   0.787  53.942  1.00  0.00    -0.020 A 
ENDBRANCH  12  13
ENDBRANCH  11  12
ENDBRANCH   1  11
TORSDOF 3
ENDMDL
MODEL 3
REMARK VINA RESULT:      -8.4      2.222      7.541
REMARK  3 active torsions:
REMARK  status: ('A' for Active; 'I' for Inactive)
REMARK    1  A    between atoms: C4_5  and  O1_6 
REMARK    2  A    between atoms: O1_6  and  C5_7 
REMARK    3  A    between atoms: C5_7  and  C6_8 
ROOT
HETATM    1  C6  UNL     1      22.667   0.348  52.789  1.00  0.00    -0.033 A 
HETATM    2  C7  UNL     1      22.246  -0.313  53.942  1.00  0.00     0.010 A 
HETATM    3  C8  UNL     1      20.944  -0.736  54.138  1.00  0.00     0.013 A 
HETATM    4  C9  UNL     1      20.046  -0.473  53.121  1.00  0.00    -0.026 A 
HETATM    5  C10 UNL     1      18.731  -0.894  53.307  1.00  0.00     0.012 A 
HETATM    6  C11 UNL     1      17.809  -0.642  52.298  1.00  0.00     0.001 A 
HETATM    7  C12 UNL     1      18.191   0.014  51.136  1.00  0.00     0.001 A 
HETATM    8  C13 UNL     1      19.511   0.430  50.962  1.00  0.00     0.012 A 
HETATM    9  C14 UNL     1      20.427   0.182  51.961  1.00  0.00    -0.025 A 
HETATM   10  C15 UNL     1      21.732   0.588  51.801  1.00  0.00     0.021 A 
ENDROOT
BRANCH   1  11
HETATM   11  C5  UNL     1      24.107   0.723  52.765  1.00  0.00     0.213 C 
BRANCH  11  12
HETATM   12  O1  UNL     1      24.778  -0.113  53.693  1.00  0.00    -0.358 OA
BRANCH  12  13
HETATM   13  C4  UNL     1      25.856  -0.892  53.392  1.00  0.00     0.146 C 
HETATM   14  C3  UNL     1      27.159  -0.687  53.477  1.00  0.00    -0.013 A 
HETATM   15  C2  UNL     1      27.642   0.569  53.971  1.00  0.00     0.033 A 
HETATM   16  C16 UNL     1      28.001  -1.790  53.048  1.00  0.00     0.009 A 
HETATM   17  C1  UNL     1      28.974   0.676  54.017  1.00  0.00     0.016 A 
HETATM   18 CL1  UNL     1      29.652   2.178  54.607  1.00  0.00    -0.089 Cl
HETATM   19  C18 UNL     1      29.935  -0.354  53.617  1.00  0.00     0.078 A 
HETATM   20  C17 UNL     1      29.316  -1.609  53.123  1.00  0.00    -0.020 A 
ENDBRANCH  12  13
ENDBRANCH  11  12
ENDBRANCH   1  11
TORSDOF 3
ENDMDL
MODEL 4
REMARK VINA RESULT:      -8.4      3.900      5.571
REMARK  3 active torsions:
REMARK  status: ('A' for Active; 'I' for Inactive)
REMARK    1  A    between atoms: C4_5  and  O1_6 
REMARK    2  A    between atoms: O1_6  and  C5_7 
REMARK    3  A    between atoms: C5_7  and  C6_8 
ROOT
HETATM    1  C6  UNL     1      26.078   1.427  52.366  1.00  0.00    -0.033 A 
HETATM    2  C7  UNL     1      27.135   2.181  52.873  1.00  0.00     0.010 A 
HETATM    3  C8  UNL     1      28.321   1.620  53.311  1.00  0.00     0.013 A 
HETATM    4  C9  UNL     1      28.427   0.245  53.225  1.00  0.00    -0.026 A 
HETATM    5  C10 UNL     1      29.618  -0.331  53.664  1.00  0.00     0.012 A 
HETATM    6  C11 UNL     1      29.748  -1.712  53.589  1.00  0.00     0.001 A 
HETATM    7  C12 UNL     1      28.717  -2.495  53.090  1.00  0.00     0.001 A 
HETATM    8  C13 UNL     1      27.531  -1.907  52.654  1.00  0.00     0.012 A 
HETATM    9  C14 UNL     1      27.398  -0.537  52.727  1.00  0.00    -0.025 A 
HETATM   10  C15 UNL     1      26.231   0.055  52.301  1.00  0.00     0.021 A 
ENDROOT
BRANCH   1  11
HETATM   11  C5  UNL     1      24.884   2.211  51.946  1.00  0.00     0.213 C 
BRANCH  11  12
HETATM   12  O1  UNL     1      25.087   2.600  50.597  1.00  0.00    -0.358 OA
BRANCH  12  13
HETATM   13  C4  UNL     1      24.797   3.835  50.097  1.00  0.00     0.146 C 
HETATM   14  C3  UNL     1      25.526   4.735  49.459  1.00  0.00    -0.013 A 
HETATM   15  C2  UNL     1      26.906   4.456  49.186  1.00  0.00     0.033 A 
HETATM   16  C16 UNL     1      24.835   5.956  49.084  1.00  0.00     0.009 A 
HETATM   17  C1  UNL     1      27.554   5.429  48.538  1.00  0.00     0.016 A 
HETATM   18 CL1  UNL     1      29.245   5.174  48.164  1.00  0.00    -0.089 Cl
HETATM   19  C18 UNL     1      26.981   6.704  48.102  1.00  0.00     0.078 A 
HETATM   20  C17 UNL     1      25.547   6.877  48.441  1.00  0.00    -0.020 A 
ENDBRANCH  12  13
ENDBRANCH  11  12
ENDBRANCH   1  11
TORSDOF 3
ENDMDL
MODEL 5
REMARK VINA RESULT:      -8.3      3.670      5.671
REMARK  3 active torsions:
REMARK  status: ('A' for Active; 'I' for Inactive)
REMARK    1  A    between atoms: C4_5  and  O1_6 
REMARK    2  A    between atoms: O1_6  and  C5_7 
REMARK    3  A    between atoms: C5_7  and  C6_8 
ROOT
HETATM    1  C6  UNL     1      25.616   1.694  53.014  1.00  0.00    -0.033 A 
HETATM    2  C7  UNL     1      25.127   0.413  52.759  1.00  0.00     0.010 A 
HETATM    3  C8  UNL     1      25.923  -0.717  52.776  1.00  0.00     0.013 A 
HETATM    4  C9  UNL     1      27.262  -0.529  53.063  1.00  0.00    -0.026 A 
HETATM    5  C10 UNL     1      28.075  -1.661  53.083  1.00  0.00     0.012 A 
HETATM    6  C11 UNL     1      29.425  -1.498  53.369  1.00  0.00     0.001 A 
HETATM    7  C12 UNL     1      29.947  -0.239  53.628  1.00  0.00     0.001 A 
HETATM    8  C13 UNL     1      29.124   0.886  53.605  1.00  0.00     0.012 A 
HETATM    9  C14 UNL     1      27.784   0.728  53.321  1.00  0.00    -0.025 A 
HETATM   10  C15 UNL     1      26.961   1.831  53.295  1.00  0.00     0.021 A 
ENDROOT
BRANCH   1  11
HETATM   11  C5  UNL     1      24.603   2.783  52.949  1.00  0.00     0.213 C 
BRANCH  11  12
HETATM   12  O1  UNL     1      24.392   3.084  51.579  1.00  0.00    -0.358 OA
BRANCH  12  13
HETATM   13  C4  UNL     1      25.388   3.271  50.667  1.00  0.00     0.146 C 
HETATM   14  C3  UNL     1      25.857   4.351  50.065  1.00  0.00    -0.013 A 
HETATM   15  C2  UNL     1      25.277   5.628  50.359  1.00  0.00     0.033 A 
HETATM   16  C16 UNL     1      26.952   4.131  49.136  1.00  0.00     0.009 A 
HETATM   17  C1  UNL     1      25.821   6.655  49.699  1.00  0.00     0.016 A 
HETATM   18 CL1  UNL     1      25.173   8.253  49.997  1.00  0.00    -0.089 Cl
HETATM   19  C18 UNL     1      26.924   6.574  48.739  1.00  0.00     0.078 A 
HETATM   20  C17 UNL     1      27.442   5.201  48.517  1.00  0.00    -0.020 A 
ENDBRANCH  12  13
ENDBRANCH  11  12
ENDBRANCH   1  11
TORSDOF 3
ENDMDL
MODEL 6
REMARK VINA RESULT:      -8.3      4.578      7.009
REMARK  3 active torsions:
REMARK  status: ('A' for Active; 'I' for Inactive)
REMARK    1  A    between atoms: C4_5  and  O1_6 
REMARK    2  A    between atoms: O1_6  and  C5_7 
REMARK    3  A    between atoms: C5_7  and  C6_8 
ROOT
HETATM    1  C6  UNL     1      25.624   4.371  49.346  1.00  0.00    -0.033 A 
HETATM    2  C7  UNL     1      25.003   5.583  49.046  1.00  0.00     0.010 A 
HETATM    3  C8  UNL     1      25.674   6.659  48.495  1.00  0.00     0.013 A 
HETATM    4  C9  UNL     1      27.022   6.488  48.243  1.00  0.00    -0.026 A 
HETATM    5  C10 UNL     1      27.709   7.566  47.687  1.00  0.00     0.012 A 
HETATM    6  C11 UNL     1      29.065   7.419  47.425  1.00  0.00     0.001 A 
HETATM    7  C12 UNL     1      29.717   6.227  47.710  1.00  0.00     0.001 A 
HETATM    8  C13 UNL     1      29.018   5.156  48.265  1.00  0.00     0.012 A 
HETATM    9  C14 UNL     1      27.673   5.299  48.528  1.00  0.00    -0.025 A 
HETATM   10  C15 UNL     1      26.973   4.249  49.076  1.00  0.00     0.021 A 
ENDROOT
BRANCH   1  11
HETATM   11  C5  UNL     1      24.734   3.333  49.935  1.00  0.00     0.213 C 
BRANCH  11  12
HETATM   12  O1  UNL     1      25.348   2.877  51.129  1.00  0.00    -0.358 OA
BRANCH  12  13
HETATM   13  C4  UNL     1      25.653   1.575  51.393  1.00  0.00     0.146 C 
HETATM   14  C3  UNL     1      26.572   1.008  52.155  1.00  0.00    -0.013 A 
HETATM   15  C2  UNL     1      27.478   1.836  52.897  1.00  0.00     0.033 A 
HETATM   16  C16 UNL     1      26.574  -0.444  52.170  1.00  0.00     0.009 A 
HETATM   17  C1  UNL     1      28.368   1.168  53.637  1.00  0.00     0.016 A 
HETATM   18 CL1  UNL     1      29.514   2.100  54.575  1.00  0.00    -0.089 Cl
HETATM   19  C18 UNL     1      28.480  -0.289  53.742  1.00  0.00     0.078 A 
HETATM   20  C17 UNL     1      27.489  -1.038  52.930  1.00  0.00    -0.020 A 
ENDBRANCH  12  13
ENDBRANCH  11  12
ENDBRANCH   1  11
TORSDOF 3
ENDMDL
MODEL 7
REMARK VINA RESULT:      -8.2      3.037      4.356
REMARK  3 active torsions:
REMARK  status: ('A' for Active; 'I' for Inactive)
REMARK    1  A    between atoms: C4_5  and  O1_6 
REMARK    2  A    between atoms: O1_6  and  C5_7 
REMARK    3  A    between atoms: C5_7  and  C6_8 
ROOT
HETATM    1  C6  UNL     1      24.975   0.810  52.965  1.00  0.00    -0.033 A 
HETATM    2  C7  UNL     1      25.606   1.987  53.367  1.00  0.00     0.010 A 
HETATM    3  C8  UNL     1      26.958   2.060  53.648  1.00  0.00     0.013 A 
HETATM    4  C9  UNL     1      27.685   0.893  53.512  1.00  0.00    -0.026 A 
HETATM    5  C10 UNL     1      29.049   0.954  53.793  1.00  0.00     0.012 A 
HETATM    6  C11 UNL     1      29.802  -0.207  53.665  1.00  0.00     0.001 A 
HETATM    7  C12 UNL     1      29.207  -1.396  53.267  1.00  0.00     0.001 A 
HETATM    8  C13 UNL     1      27.842  -1.445  52.989  1.00  0.00     0.012 A 
HETATM    9  C14 UNL     1      27.092  -0.295  53.116  1.00  0.00    -0.025 A 
HETATM   10  C15 UNL     1      25.744  -0.331  52.845  1.00  0.00     0.021 A 
ENDROOT
BRANCH   1  11
HETATM   11  C5  UNL     1      23.513   0.932  52.709  1.00  0.00     0.213 C 
BRANCH  11  12
HETATM   12  O1  UNL     1      23.347   1.197  51.326  1.00  0.00    -0.358 OA
BRANCH  12  13
HETATM   13  C4  UNL     1      22.923   2.387  50.813  1.00  0.00     0.146 C 
HETATM   14  C3  UNL     1      23.555   3.372  50.199  1.00  0.00    -0.013 A 
HETATM   15  C2  UNL     1      24.968   3.268  49.974  1.00  0.00     0.033 A 
HETATM   16  C16 UNL     1      22.732   4.499  49.796  1.00  0.00     0.009 A 
HETATM   17  C1  UNL     1      25.512   4.315  49.346  1.00  0.00     0.016 A 
HETATM   18 CL1  UNL     1      27.233   4.273  49.031  1.00  0.00    -0.089 Cl
HETATM   19  C18 UNL     1      24.800   5.510  48.887  1.00  0.00     0.078 A 
HETATM   20  C17 UNL     1      23.344   5.502  49.176  1.00  0.00    -0.020 A 
ENDBRANCH  12  13
ENDBRANCH  11  12
ENDBRANCH   1  11
TORSDOF 3
ENDMDL
MODEL 8
REMARK VINA RESULT:      -8.2      1.915      7.319
REMARK  3 active torsions:
REMARK  status: ('A' for Active; 'I' for Inactive)
REMARK    1  A    between atoms: C4_5  and  O1_6 
REMARK    2  A    between atoms: O1_6  and  C5_7 
REMARK    3  A    between atoms: C5_7  and  C6_8 
ROOT
HETATM    1  C6  UNL     1      22.773   0.658  52.397  1.00  0.00    -0.033 A 
HETATM    2  C7  UNL     1      22.604  -0.066  53.576  1.00  0.00     0.010 A 
HETATM    3  C8  UNL     1      21.397  -0.625  53.952  1.00  0.00     0.013 A 
HETATM    4  C9  UNL     1      20.331  -0.439  53.093  1.00  0.00    -0.026 A 
HETATM    5  C10 UNL     1      19.109  -0.998  53.462  1.00  0.00     0.012 A 
HETATM    6  C11 UNL     1      18.021  -0.824  52.614  1.00  0.00     0.001 A 
HETATM    7  C12 UNL     1      18.152  -0.109  51.432  1.00  0.00     0.001 A 
HETATM    8  C13 UNL     1      19.380   0.446  51.074  1.00  0.00     0.012 A 
HETATM    9  C14 UNL     1      20.461   0.275  51.912  1.00  0.00    -0.025 A 
HETATM   10  C15 UNL     1      21.678   0.819  51.571  1.00  0.00     0.021 A 
ENDROOT
BRANCH   1  11
HETATM   11  C5  UNL     1      24.148   1.182  52.167  1.00  0.00     0.213 C 
BRANCH  11  12
HETATM   12  O1  UNL     1      24.854   1.069  53.392  1.00  0.00    -0.358 OA
BRANCH  12  13
HETATM   13  C4  UNL     1      26.146   1.462  53.577  1.00  0.00     0.146 C 
HETATM   14  C3  UNL     1      27.292   0.803  53.560  1.00  0.00    -0.013 A 
HETATM   15  C2  UNL     1      27.288  -0.608  53.303  1.00  0.00     0.033 A 
HETATM   16  C16 UNL     1      28.482   1.597  53.810  1.00  0.00     0.009 A 
HETATM   17  C1  UNL     1      28.496  -1.181  53.308  1.00  0.00     0.016 A 
HETATM   18 CL1  UNL     1      28.584  -2.902  53.003  1.00  0.00    -0.089 Cl
HETATM   19  C18 UNL     1      29.771  -0.499  53.544  1.00  0.00     0.078 A 
HETATM   20  C17 UNL     1      29.648   0.958  53.798  1.00  0.00    -0.020 A 
ENDBRANCH  12  13
ENDBRANCH  11  12
ENDBRANCH   1  11
TORSDOF 3
ENDMDL
MODEL 9
REMARK VINA RESULT:      -8.1      3.668      5.556
REMARK  3 active torsions:
REMARK  status: ('A' for Active; 'I' for Inactive)
REMARK    1  A    between atoms: C4_5  and  O1_6 
REMARK    2  A    between atoms: O1_6  and  C5_7 
REMARK    3  A    between atoms: C5_7  and  C6_8 
ROOT
HETATM    1  C6  UNL     1      24.282   4.111  49.742  1.00  0.00    -0.033 A 
HETATM    2  C7  UNL     1      25.327   3.195  49.858  1.00  0.00     0.010 A 
HETATM    3  C8  UNL     1      26.625   3.476  49.472  1.00  0.00     0.013 A 
HETATM    4  C9  UNL     1      26.860   4.734  48.953  1.00  0.00    -0.026 A 
HETATM    5  C10 UNL     1      28.164   5.029  48.560  1.00  0.00     0.012 A 
HETATM    6  C11 UNL     1      28.426   6.288  48.034  1.00  0.00     0.001 A 
HETATM    7  C12 UNL     1      27.412   7.226  47.903  1.00  0.00     0.001 A 
HETATM    8  C13 UNL     1      26.111   6.919  48.299  1.00  0.00     0.012 A 
HETATM    9  C14 UNL     1      25.847   5.671  48.821  1.00  0.00    -0.025 A 
HETATM   10  C15 UNL     1      24.567   5.356  49.215  1.00  0.00     0.021 A 
ENDROOT
BRANCH   1  11
HETATM   11  C5  UNL     1      22.956   3.623  50.210  1.00  0.00     0.213 C 
BRANCH  11  12
HETATM   12  O1  UNL     1      23.057   2.218  50.374  1.00  0.00    -0.358 OA
BRANCH  12  13
HETATM   13  C4  UNL     1      22.264   1.478  51.202  1.00  0.00     0.146 C 
HETATM   14  C3  UNL     1      22.532   0.706  52.241  1.00  0.00    -0.013 A 
HETATM   15  C2  UNL     1      23.892   0.547  52.667  1.00  0.00     0.033 A 
HETATM   16  C16 UNL     1      21.385   0.075  52.871  1.00  0.00     0.009 A 
HETATM   17  C1  UNL     1      24.056  -0.254  53.725  1.00  0.00     0.016 A 
HETATM   18 CL1  UNL     1      25.685  -0.505  54.313  1.00  0.00    -0.089 Cl
HETATM   19  C18 UNL     1      22.991  -0.949  54.452  1.00  0.00     0.078 A 
HETATM   20  C17 UNL     1      21.628  -0.707  53.918  1.00  0.00    -0.020 A 
ENDBRANCH  12  13
ENDBRANCH  11  12
ENDBRANCH   1  11
TORSDOF 3
ENDMDL
