MODEL 1
REMARK VINA RESULT:      -8.0      0.000      0.000
REMARK  3 active torsions:
REMARK  status: ('A' for Active; 'I' for Inactive)
REMARK    1  A    between atoms: C5_7  and  C6_8 
REMARK    2  A    between atoms: C8_10  and  C9_11 
REMARK    3  A    between atoms: C9_11  and  C10_12 
ROOT
HETATM    1  C6  UNL     1      25.387  -0.139  54.267  1.00  0.00     0.132 A 
HETATM    2  C7  UNL     1      24.253  -0.091  53.479  1.00  0.00     0.071 A 
HETATM    3  C8  UNL     1      23.307  -0.873  54.147  1.00  0.00     0.069 A 
HETATM    4  N3  UNL     1      23.913  -1.333  55.267  1.00  0.00    -0.132 NA
HETATM    5  O1  UNL     1      25.131  -0.897  55.328  1.00  0.00    -0.211 OA
ENDROOT
BRANCH   1   6
HETATM    6  C5  UNL     1      26.653   0.531  53.981  1.00  0.00     0.094 A 
HETATM    7  N2  UNL     1      27.845  -0.075  53.829  1.00  0.00    -0.236 N 
HETATM    8  N1  UNL     1      28.427  -1.347  53.847  1.00  0.00    -0.183 NA
HETATM    9  C2  UNL     1      28.811   0.843  53.572  1.00  0.00     0.041 A 
HETATM   10  C1  UNL     1      29.691  -1.302  53.621  1.00  0.00     0.118 A 
HETATM   11  C16 UNL     1      30.114   0.111  53.413  1.00  0.00     0.107 A 
HETATM   12  C3  UNL     1      28.234   2.100  53.555  1.00  0.00     0.030 A 
HETATM   13  C4  UNL     1      26.892   1.895  53.809  1.00  0.00     0.036 A 
ENDBRANCH   1   6
BRANCH   3  14
HETATM   14  C9  UNL     1      21.902  -1.134  53.687  1.00  0.00     0.100 C 
BRANCH  14  15
HETATM   15  C10 UNL     1      21.418  -0.052  52.806  1.00  0.00    -0.052 A 
HETATM   16  C11 UNL     1      21.507  -0.007  51.430  1.00  0.00     0.007 A 
HETATM   17  C12 UNL     1      21.011   1.069  50.715  1.00  0.00     0.001 A 
HETATM   18  C13 UNL     1      20.417   2.112  51.392  1.00  0.00     0.000 A 
HETATM   19  C14 UNL     1      20.302   2.113  52.772  1.00  0.00     0.001 A 
HETATM   20  C15 UNL     1      20.810   1.019  53.464  1.00  0.00     0.007 A 
ENDBRANCH  14  15
ENDBRANCH   3  14
TORSDOF 3
ENDMDL
MODEL 2
REMARK VINA RESULT:      -8.0      1.952      2.891
REMARK  3 active torsions:
REMARK  status: ('A' for Active; 'I' for Inactive)
REMARK    1  A    between atoms: C5_7  and  C6_8 
REMARK    2  A    between atoms: C8_10  and  C9_11 
REMARK    3  A    between atoms: C9_11  and  C10_12 
ROOT
HETATM    1  C6  UNL     1      25.151  -0.300  53.092  1.00  0.00     0.132 A 
HETATM    2  C7  UNL     1      24.746   0.807  52.372  1.00  0.00     0.071 A 
HETATM    3  C8  UNL     1      23.412   1.014  52.731  1.00  0.00     0.069 A 
HETATM    4  N3  UNL     1      23.101   0.043  53.623  1.00  0.00    -0.132 NA
HETATM    5  O1  UNL     1      24.127  -0.721  53.827  1.00  0.00    -0.211 OA
ENDROOT
BRANCH   1   6
HETATM    6  C5  UNL     1      26.479  -0.906  53.052  1.00  0.00     0.094 A 
HETATM    7  N2  UNL     1      27.624  -0.312  53.433  1.00  0.00    -0.236 N 
HETATM    8  N1  UNL     1      28.102   0.897  53.951  1.00  0.00    -0.183 NA
HETATM    9  C2  UNL     1      28.673  -1.157  53.264  1.00  0.00     0.041 A 
HETATM   10  C1  UNL     1      29.375   0.879  54.122  1.00  0.00     0.118 A 
HETATM   11  C16 UNL     1      29.919  -0.443  53.705  1.00  0.00     0.107 A 
HETATM   12  C3  UNL     1      28.200  -2.352  52.752  1.00  0.00     0.030 A 
HETATM   13  C4  UNL     1      26.835  -2.186  52.624  1.00  0.00     0.036 A 
ENDBRANCH   1   6
BRANCH   3  14
HETATM   14  C9  UNL     1      22.524   2.107  52.213  1.00  0.00     0.100 C 
BRANCH  14  15
HETATM   15  C10 UNL     1      22.455   2.088  50.738  1.00  0.00    -0.052 A 
HETATM   16  C11 UNL     1      23.110   2.939  49.871  1.00  0.00     0.007 A 
HETATM   17  C12 UNL     1      22.964   2.817  48.501  1.00  0.00     0.001 A 
HETATM   18  C13 UNL     1      22.148   1.827  47.996  1.00  0.00     0.000 A 
HETATM   19  C14 UNL     1      21.470   0.949  48.823  1.00  0.00     0.001 A 
HETATM   20  C15 UNL     1      21.636   1.095  50.196  1.00  0.00     0.007 A 
ENDBRANCH  14  15
ENDBRANCH   3  14
TORSDOF 3
ENDMDL
MODEL 3
REMARK VINA RESULT:      -7.9      1.787      2.467
REMARK  3 active torsions:
REMARK  status: ('A' for Active; 'I' for Inactive)
REMARK    1  A    between atoms: C5_7  and  C6_8 
REMARK    2  A    between atoms: C8_10  and  C9_11 
REMARK    3  A    between atoms: C9_11  and  C10_12 
ROOT
HETATM    1  C6  UNL     1      25.915   1.635  53.081  1.00  0.00     0.132 A 
HETATM    2  C7  UNL     1      25.136   0.860  52.244  1.00  0.00     0.071 A 
HETATM    3  C8  UNL     1      23.870   1.451  52.265  1.00  0.00     0.069 A 
HETATM    4  N3  UNL     1      23.960   2.519  53.093  1.00  0.00    -0.132 NA
HETATM    5  O1  UNL     1      25.162   2.618  53.566  1.00  0.00    -0.211 OA
ENDROOT
BRANCH   1   6
HETATM    6  C5  UNL     1      27.326   1.412  53.383  1.00  0.00     0.094 A 
HETATM    7  N2  UNL     1      27.949   0.220  53.385  1.00  0.00    -0.236 N 
HETATM    8  N1  UNL     1      27.698  -1.138  53.164  1.00  0.00    -0.183 NA
HETATM    9  C2  UNL     1      29.259   0.373  53.709  1.00  0.00     0.041 A 
HETATM   10  C1  UNL     1      28.751  -1.857  53.323  1.00  0.00     0.118 A 
HETATM   11  C16 UNL     1      29.901  -0.986  53.696  1.00  0.00     0.107 A 
HETATM   12  C3  UNL     1      29.507   1.716  53.928  1.00  0.00     0.030 A 
HETATM   13  C4  UNL     1      28.298   2.354  53.722  1.00  0.00     0.036 A 
ENDBRANCH   1   6
BRANCH   3  14
HETATM   14  C9  UNL     1      22.666   0.972  51.507  1.00  0.00     0.100 C 
BRANCH  14  15
HETATM   15  C10 UNL     1      21.775   0.170  52.368  1.00  0.00    -0.052 A 
HETATM   16  C11 UNL     1      22.157  -0.684  53.382  1.00  0.00     0.007 A 
HETATM   17  C12 UNL     1      21.218  -1.383  54.122  1.00  0.00     0.001 A 
HETATM   18  C13 UNL     1      19.880  -1.220  53.838  1.00  0.00     0.000 A 
HETATM   19  C14 UNL     1      19.446  -0.374  52.832  1.00  0.00     0.001 A 
HETATM   20  C15 UNL     1      20.411   0.315  52.105  1.00  0.00     0.007 A 
ENDBRANCH  14  15
ENDBRANCH   3  14
TORSDOF 3
ENDMDL
MODEL 4
REMARK VINA RESULT:      -7.8      2.185      2.876
REMARK  3 active torsions:
REMARK  status: ('A' for Active; 'I' for Inactive)
REMARK    1  A    between atoms: C5_7  and  C6_8 
REMARK    2  A    between atoms: C8_10  and  C9_11 
REMARK    3  A    between atoms: C9_11  and  C10_12 
ROOT
HETATM    1  C6  UNL     1      26.078   1.329  53.246  1.00  0.00     0.132 A 
HETATM    2  C7  UNL     1      24.996   0.746  52.615  1.00  0.00     0.071 A 
HETATM    3  C8  UNL     1      23.958   1.675  52.730  1.00  0.00     0.069 A 
HETATM    4  N3  UNL     1      24.465   2.733  53.407  1.00  0.00    -0.132 NA
HETATM    5  O1  UNL     1      25.707   2.520  53.704  1.00  0.00    -0.211 OA
ENDROOT
BRANCH   1   6
HETATM    6  C5  UNL     1      27.405   0.735  53.386  1.00  0.00     0.094 A 
HETATM    7  N2  UNL     1      27.704  -0.566  53.218  1.00  0.00    -0.236 N 
HETATM    8  N1  UNL     1      27.101  -1.787  52.899  1.00  0.00    -0.183 NA
HETATM    9  C2  UNL     1      29.029  -0.775  53.424  1.00  0.00     0.041 A 
HETATM   10  C1  UNL     1      27.947  -2.755  52.888  1.00  0.00     0.118 A 
HETATM   11  C16 UNL     1      29.304  -2.239  53.223  1.00  0.00     0.107 A 
HETATM   12  C3  UNL     1      29.625   0.433  53.740  1.00  0.00     0.030 A 
HETATM   13  C4  UNL     1      28.606   1.366  53.713  1.00  0.00     0.036 A 
ENDBRANCH   1   6
BRANCH   3  14
HETATM   14  C9  UNL     1      22.565   1.504  52.198  1.00  0.00     0.100 C 
BRANCH  14  15
HETATM   15  C10 UNL     1      22.513   1.749  50.743  1.00  0.00    -0.052 A 
HETATM   16  C11 UNL     1      23.236   2.691  50.039  1.00  0.00     0.007 A 
HETATM   17  C12 UNL     1      23.097   2.821  48.668  1.00  0.00     0.001 A 
HETATM   18  C13 UNL     1      22.221   1.996  47.997  1.00  0.00     0.000 A 
HETATM   19  C14 UNL     1      21.475   1.035  48.658  1.00  0.00     0.001 A 
HETATM   20  C15 UNL     1      21.634   0.926  50.035  1.00  0.00     0.007 A 
ENDBRANCH  14  15
ENDBRANCH   3  14
TORSDOF 3
ENDMDL
MODEL 5
REMARK VINA RESULT:      -7.8      4.326      6.653
REMARK  3 active torsions:
REMARK  status: ('A' for Active; 'I' for Inactive)
REMARK    1  A    between atoms: C5_7  and  C6_8 
REMARK    2  A    between atoms: C8_10  and  C9_11 
REMARK    3  A    between atoms: C9_11  and  C10_12 
ROOT
HETATM    1  C6  UNL     1      25.038   2.634  51.065  1.00  0.00     0.132 A 
HETATM    2  C7  UNL     1      25.731   1.850  51.966  1.00  0.00     0.071 A 
HETATM    3  C8  UNL     1      24.806   0.909  52.426  1.00  0.00     0.069 A 
HETATM    4  N3  UNL     1      23.640   1.177  51.791  1.00  0.00    -0.132 NA
HETATM    5  O1  UNL     1      23.787   2.189  50.996  1.00  0.00    -0.211 OA
ENDROOT
BRANCH   1   6
HETATM    6  C5  UNL     1      25.586   3.761  50.315  1.00  0.00     0.094 A 
HETATM    7  N2  UNL     1      25.160   5.035  50.390  1.00  0.00    -0.236 N 
HETATM    8  N1  UNL     1      24.208   5.826  51.042  1.00  0.00    -0.183 NA
HETATM    9  C2  UNL     1      25.889   5.824  49.561  1.00  0.00     0.041 A 
HETATM   10  C1  UNL     1      24.281   7.059  50.687  1.00  0.00     0.118 A 
HETATM   11  C16 UNL     1      25.370   7.230  49.686  1.00  0.00     0.107 A 
HETATM   12  C3  UNL     1      26.830   5.041  48.916  1.00  0.00     0.030 A 
HETATM   13  C4  UNL     1      26.634   3.760  49.393  1.00  0.00     0.036 A 
ENDBRANCH   1   6
BRANCH   3  14
HETATM   14  C9  UNL     1      25.080  -0.173  53.429  1.00  0.00     0.100 C 
BRANCH  14  15
HETATM   15  C10 UNL     1      26.530  -0.402  53.588  1.00  0.00    -0.052 A 
HETATM   16  C11 UNL     1      27.317  -1.257  52.845  1.00  0.00     0.007 A 
HETATM   17  C12 UNL     1      28.673  -1.382  53.094  1.00  0.00     0.001 A 
HETATM   18  C13 UNL     1      29.244  -0.636  54.102  1.00  0.00     0.000 A 
HETATM   19  C14 UNL     1      28.498   0.237  54.875  1.00  0.00     0.001 A 
HETATM   20  C15 UNL     1      27.138   0.341  54.603  1.00  0.00     0.007 A 
ENDBRANCH  14  15
ENDBRANCH   3  14
TORSDOF 3
ENDMDL
MODEL 6
REMARK VINA RESULT:      -7.7      2.782      7.240
REMARK  3 active torsions:
REMARK  status: ('A' for Active; 'I' for Inactive)
REMARK    1  A    between atoms: C5_7  and  C6_8 
REMARK    2  A    between atoms: C8_10  and  C9_11 
REMARK    3  A    between atoms: C9_11  and  C10_12 
ROOT
HETATM    1  C6  UNL     1      21.403  -0.794  53.894  1.00  0.00     0.132 A 
HETATM    2  C7  UNL     1      22.713  -0.356  53.873  1.00  0.00     0.071 A 
HETATM    3  C8  UNL     1      23.364  -1.088  54.870  1.00  0.00     0.069 A 
HETATM    4  N3  UNL     1      22.429  -1.901  55.418  1.00  0.00    -0.132 NA
HETATM    5  O1  UNL     1      21.285  -1.720  54.839  1.00  0.00    -0.211 OA
ENDROOT
BRANCH   1   6
HETATM    6  C5  UNL     1      20.330  -0.318  53.025  1.00  0.00     0.094 A 
HETATM    7  N2  UNL     1      19.088  -0.829  52.960  1.00  0.00    -0.236 N 
HETATM    8  N1  UNL     1      18.297  -1.836  53.522  1.00  0.00    -0.183 NA
HETATM    9  C2  UNL     1      18.346  -0.150  52.049  1.00  0.00     0.041 A 
HETATM   10  C1  UNL     1      17.108  -1.845  53.035  1.00  0.00     0.118 A 
HETATM   11  C16 UNL     1      16.974  -0.763  52.020  1.00  0.00     0.107 A 
HETATM   12  C3  UNL     1      19.129   0.846  51.493  1.00  0.00     0.030 A 
HETATM   13  C4  UNL     1      20.361   0.733  52.108  1.00  0.00     0.036 A 
ENDBRANCH   1   6
BRANCH   3  14
HETATM   14  C9  UNL     1      24.814  -0.972  55.238  1.00  0.00     0.100 C 
BRANCH  14  15
HETATM   15  C10 UNL     1      25.595  -0.350  54.151  1.00  0.00    -0.052 A 
HETATM   16  C11 UNL     1      25.935  -0.927  52.945  1.00  0.00     0.007 A 
HETATM   17  C12 UNL     1      26.675  -0.235  52.002  1.00  0.00     0.001 A 
HETATM   18  C13 UNL     1      27.077   1.055  52.276  1.00  0.00     0.000 A 
HETATM   19  C14 UNL     1      26.761   1.679  53.471  1.00  0.00     0.001 A 
HETATM   20  C15 UNL     1      26.017   0.958  54.399  1.00  0.00     0.007 A 
ENDBRANCH  14  15
ENDBRANCH   3  14
TORSDOF 3
ENDMDL
MODEL 7
REMARK VINA RESULT:      -7.6      4.434      5.852
REMARK  3 active torsions:
REMARK  status: ('A' for Active; 'I' for Inactive)
REMARK    1  A    between atoms: C5_7  and  C6_8 
REMARK    2  A    between atoms: C8_10  and  C9_11 
REMARK    3  A    between atoms: C9_11  and  C10_12 
ROOT
HETATM    1  C6  UNL     1      25.119   2.537  52.409  1.00  0.00     0.132 A 
HETATM    2  C7  UNL     1      25.320   2.731  51.056  1.00  0.00     0.071 A 
HETATM    3  C8  UNL     1      24.585   3.875  50.734  1.00  0.00     0.069 A 
HETATM    4  N3  UNL     1      24.000   4.290  51.883  1.00  0.00    -0.132 NA
HETATM    5  O1  UNL     1      24.320   3.499  52.858  1.00  0.00    -0.211 OA
ENDROOT
BRANCH   1   6
HETATM    6  C5  UNL     1      25.689   1.456  53.209  1.00  0.00     0.094 A 
HETATM    7  N2  UNL     1      26.943   1.418  53.697  1.00  0.00    -0.236 N 
HETATM    8  N1  UNL     1      28.121   2.171  53.726  1.00  0.00    -0.183 NA
HETATM    9  C2  UNL     1      27.141   0.271  54.395  1.00  0.00     0.041 A 
HETATM   10  C1  UNL     1      29.052   1.585  54.391  1.00  0.00     0.118 A 
HETATM   11  C16 UNL     1      28.552   0.284  54.914  1.00  0.00     0.107 A 
HETATM   12  C3  UNL     1      25.975  -0.473  54.366  1.00  0.00     0.030 A 
HETATM   13  C4  UNL     1      25.078   0.273  53.627  1.00  0.00     0.036 A 
ENDBRANCH   1   6
BRANCH   3  14
HETATM   14  C9  UNL     1      24.483   4.498  49.372  1.00  0.00     0.100 C 
BRANCH  14  15
HETATM   15  C10 UNL     1      25.761   5.118  48.969  1.00  0.00    -0.052 A 
HETATM   16  C11 UNL     1      27.000   4.512  48.947  1.00  0.00     0.007 A 
HETATM   17  C12 UNL     1      28.129   5.205  48.545  1.00  0.00     0.001 A 
HETATM   18  C13 UNL     1      28.009   6.523  48.161  1.00  0.00     0.000 A 
HETATM   19  C14 UNL     1      26.787   7.175  48.164  1.00  0.00     0.001 A 
HETATM   20  C15 UNL     1      25.671   6.454  48.573  1.00  0.00     0.007 A 
ENDBRANCH  14  15
ENDBRANCH   3  14
TORSDOF 3
ENDMDL
MODEL 8
REMARK VINA RESULT:      -7.6      3.909      6.171
REMARK  3 active torsions:
REMARK  status: ('A' for Active; 'I' for Inactive)
REMARK    1  A    between atoms: C5_7  and  C6_8 
REMARK    2  A    between atoms: C8_10  and  C9_11 
REMARK    3  A    between atoms: C9_11  and  C10_12 
ROOT
HETATM    1  C6  UNL     1      24.160   2.654  51.742  1.00  0.00     0.132 A 
HETATM    2  C7  UNL     1      24.934   1.999  52.679  1.00  0.00     0.071 A 
HETATM    3  C8  UNL     1      24.268   0.797  52.934  1.00  0.00     0.069 A 
HETATM    4  N3  UNL     1      23.160   0.802  52.154  1.00  0.00    -0.132 NA
HETATM    5  O1  UNL     1      23.106   1.894  51.460  1.00  0.00    -0.211 OA
ENDROOT
BRANCH   1   6
HETATM    6  C5  UNL     1      24.450   3.962  51.159  1.00  0.00     0.094 A 
HETATM    7  N2  UNL     1      25.457   4.237  50.311  1.00  0.00    -0.236 N 
HETATM    8  N1  UNL     1      26.530   3.619  49.660  1.00  0.00    -0.183 NA
HETATM    9  C2  UNL     1      25.436   5.550  49.966  1.00  0.00     0.041 A 
HETATM   10  C1  UNL     1      27.190   4.443  48.928  1.00  0.00     0.118 A 
HETATM   11  C16 UNL     1      26.579   5.798  49.022  1.00  0.00     0.107 A 
HETATM   12  C3  UNL     1      24.375   6.161  50.610  1.00  0.00     0.030 A 
HETATM   13  C4  UNL     1      23.768   5.165  51.349  1.00  0.00     0.036 A 
ENDBRANCH   1   6
BRANCH   3  14
HETATM   14  C9  UNL     1      24.717  -0.269  53.889  1.00  0.00     0.100 C 
BRANCH  14  15
HETATM   15  C10 UNL     1      26.190  -0.338  53.961  1.00  0.00    -0.052 A 
HETATM   16  C11 UNL     1      27.001   0.288  54.885  1.00  0.00     0.007 A 
HETATM   17  C12 UNL     1      28.377   0.143  54.847  1.00  0.00     0.001 A 
HETATM   18  C13 UNL     1      28.944  -0.643  53.867  1.00  0.00     0.000 A 
HETATM   19  C14 UNL     1      28.174  -1.293  52.917  1.00  0.00     0.001 A 
HETATM   20  C15 UNL     1      26.794  -1.128  52.981  1.00  0.00     0.007 A 
ENDBRANCH  14  15
ENDBRANCH   3  14
TORSDOF 3
ENDMDL
MODEL 9
REMARK VINA RESULT:      -7.5      4.254      7.390
REMARK  3 active torsions:
REMARK  status: ('A' for Active; 'I' for Inactive)
REMARK    1  A    between atoms: C5_7  and  C6_8 
REMARK    2  A    between atoms: C8_10  and  C9_11 
REMARK    3  A    between atoms: C9_11  and  C10_12 
ROOT
HETATM    1  C6  UNL     1      25.554   2.957  50.845  1.00  0.00     0.132 A 
HETATM    2  C7  UNL     1      25.281   2.177  51.952  1.00  0.00     0.071 A 
HETATM    3  C8  UNL     1      26.523   1.921  52.539  1.00  0.00     0.069 A 
HETATM    4  N3  UNL     1      27.446   2.545  51.768  1.00  0.00    -0.132 NA
HETATM    5  O1  UNL     1      26.868   3.148  50.779  1.00  0.00    -0.211 OA
ENDROOT
BRANCH   1   6
HETATM    6  C5  UNL     1      24.566   3.480  49.905  1.00  0.00     0.094 A 
HETATM    7  N2  UNL     1      24.584   4.706  49.350  1.00  0.00    -0.236 N 
HETATM    8  N1  UNL     1      25.340   5.882  49.338  1.00  0.00    -0.183 NA
HETATM    9  C2  UNL     1      23.518   4.864  48.524  1.00  0.00     0.041 A 
HETATM   10  C1  UNL     1      24.832   6.775  48.565  1.00  0.00     0.118 A 
HETATM   11  C16 UNL     1      23.591   6.245  47.935  1.00  0.00     0.107 A 
HETATM   12  C3  UNL     1      22.771   3.700  48.537  1.00  0.00     0.030 A 
HETATM   13  C4  UNL     1      23.432   2.846  49.398  1.00  0.00     0.036 A 
ENDBRANCH   1   6
BRANCH   3  14
HETATM   14  C9  UNL     1      26.756   1.109  53.779  1.00  0.00     0.100 C 
BRANCH  14  15
HETATM   15  C10 UNL     1      27.398  -0.182  53.462  1.00  0.00    -0.052 A 
HETATM   16  C11 UNL     1      26.795  -1.288  52.900  1.00  0.00     0.007 A 
HETATM   17  C12 UNL     1      27.511  -2.446  52.650  1.00  0.00     0.001 A 
HETATM   18  C13 UNL     1      28.850  -2.491  52.970  1.00  0.00     0.000 A 
HETATM   19  C14 UNL     1      29.502  -1.409  53.535  1.00  0.00     0.001 A 
HETATM   20  C15 UNL     1      28.757  -0.259  53.775  1.00  0.00     0.007 A 
ENDBRANCH  14  15
ENDBRANCH   3  14
TORSDOF 3
ENDMDL
