MODEL 1
REMARK VINA RESULT:      -6.3      0.000      0.000
REMARK  10 active torsions:
REMARK  status: ('A' for Active; 'I' for Inactive)
REMARK    1  A    between atoms: C1_2  and  S1_3 
REMARK    2  A    between atoms: S1_3  and  C2_4 
REMARK    3  A    between atoms: C2_4  and  C3_5 
REMARK    4  A    between atoms: C3_5  and  C4_6 
REMARK    5  A    between atoms: C4_6  and  N1_7 
REMARK    6  A    between atoms: N1_7  and  C5_8 
REMARK    7  A    between atoms: C10_13  and  C11_14 
REMARK    8  A    between atoms: C11_14  and  C12_15 
REMARK    9  A    between atoms: C12_15  and  N2_16 
REMARK   10  A    between atoms: N2_16  and  C13_17 
ROOT
HETATM    1  C5  UNL     1      24.254  -0.169  53.633  1.00  0.00     0.034 A 
HETATM    2  C6  UNL     1      23.952  -1.008  54.682  1.00  0.00     0.029 A 
HETATM    3  C7  UNL     1      22.692  -1.285  55.170  1.00  0.00     0.002 A 
HETATM    4  C8  UNL     1      21.632  -0.661  54.546  1.00  0.00     0.001 A 
HETATM    5  C9  UNL     1      21.893   0.186  53.492  1.00  0.00     0.009 A 
HETATM    6  C10 UNL     1      23.157   0.449  53.023  1.00  0.00    -0.030 A 
ENDROOT
BRANCH   1   7
HETATM    7  N1  UNL     1      25.566   0.049  53.223  1.00  0.00    -0.389 N 
HETATM    8  H8  UNL     1      25.984   0.947  53.600  1.00  0.00     0.159 HD
BRANCH   7   9
HETATM    9  C4  UNL     1      26.538  -0.595  52.407  1.00  0.00     0.120 C 
BRANCH   9  10
HETATM   10  C3  UNL     1      27.638  -1.314  53.098  1.00  0.00     0.030 C 
BRANCH  10  11
HETATM   11  C2  UNL     1      28.958  -0.650  53.188  1.00  0.00     0.083 C 
BRANCH  11  12
HETATM   12  S1  UNL     1      28.873   0.593  54.541  1.00  0.00    -0.101 SA
BRANCH  12  13
HETATM   13  C1  UNL     1      28.511   2.174  53.787  1.00  0.00     0.304 C 
HETATM   14  O1  UNL     1      27.346   2.462  54.070  1.00  0.00    -0.295 OA
ENDBRANCH  12  13
ENDBRANCH  11  12
ENDBRANCH  10  11
ENDBRANCH   9  10
ENDBRANCH   7   9
ENDBRANCH   1   7
BRANCH   6  15
HETATM   15  C11 UNL     1      23.338   1.398  51.894  1.00  0.00     0.060 C 
BRANCH  15  16
HETATM   16  C12 UNL     1      23.402   2.819  52.397  1.00  0.00     0.124 C 
BRANCH  16  17
HETATM   17  N2  UNL     1      24.766   3.318  52.427  1.00  0.00    -0.390 N 
HETATM   18  H17 UNL     1      25.465   3.628  53.156  1.00  0.00     0.159 HD
BRANCH  17  19
HETATM   19  C13 UNL     1      25.356   3.435  51.132  1.00  0.00     0.027 A 
HETATM   20  C14 UNL     1      25.315   4.007  49.931  1.00  0.00     0.029 A 
HETATM   21  C15 UNL     1      26.510   3.282  49.449  1.00  0.00     0.004 A 
HETATM   22  C16 UNL     1      26.545   2.715  50.651  1.00  0.00     0.029 A 
ENDBRANCH  17  19
ENDBRANCH  16  17
ENDBRANCH  15  16
ENDBRANCH   6  15
TORSDOF 10
ENDMDL
MODEL 2
REMARK VINA RESULT:      -6.0      2.754      5.872
REMARK  10 active torsions:
REMARK  status: ('A' for Active; 'I' for Inactive)
REMARK    1  A    between atoms: C1_2  and  S1_3 
REMARK    2  A    between atoms: S1_3  and  C2_4 
REMARK    3  A    between atoms: C2_4  and  C3_5 
REMARK    4  A    between atoms: C3_5  and  C4_6 
REMARK    5  A    between atoms: C4_6  and  N1_7 
REMARK    6  A    between atoms: N1_7  and  C5_8 
REMARK    7  A    between atoms: C10_13  and  C11_14 
REMARK    8  A    between atoms: C11_14  and  C12_15 
REMARK    9  A    between atoms: C12_15  and  N2_16 
REMARK   10  A    between atoms: N2_16  and  C13_17 
ROOT
HETATM    1  C5  UNL     1      24.165   1.726  51.496  1.00  0.00     0.034 A 
HETATM    2  C6  UNL     1      24.181   2.829  50.672  1.00  0.00     0.029 A 
HETATM    3  C7  UNL     1      25.301   3.477  50.194  1.00  0.00     0.002 A 
HETATM    4  C8  UNL     1      26.524   2.970  50.581  1.00  0.00     0.001 A 
HETATM    5  C9  UNL     1      26.551   1.867  51.405  1.00  0.00     0.009 A 
HETATM    6  C10 UNL     1      25.422   1.238  51.869  1.00  0.00    -0.030 A 
ENDROOT
BRANCH   1   7
HETATM    7  N1  UNL     1      22.974   1.151  51.928  1.00  0.00    -0.389 N 
HETATM    8  H8  UNL     1      22.866   1.142  52.982  1.00  0.00     0.159 HD
BRANCH   7   9
HETATM    9  C4  UNL     1      21.827   0.537  51.351  1.00  0.00     0.120 C 
BRANCH   9  10
HETATM   10  C3  UNL     1      20.560   0.602  52.123  1.00  0.00     0.030 C 
BRANCH  10  11
HETATM   11  C2  UNL     1      20.641   0.591  53.601  1.00  0.00     0.083 C 
BRANCH  11  12
HETATM   12  S1  UNL     1      20.939  -1.143  54.136  1.00  0.00    -0.101 SA
BRANCH  12  13
HETATM   13  C1  UNL     1      22.636  -1.244  54.689  1.00  0.00     0.304 C 
HETATM   14  O1  UNL     1      22.642  -1.854  55.760  1.00  0.00    -0.295 OA
ENDBRANCH  12  13
ENDBRANCH  11  12
ENDBRANCH  10  11
ENDBRANCH   9  10
ENDBRANCH   7   9
ENDBRANCH   1   7
BRANCH   6  15
HETATM   15  C11 UNL     1      25.554   0.067  52.776  1.00  0.00     0.060 C 
BRANCH  15  16
HETATM   16  C12 UNL     1      25.887   0.514  54.178  1.00  0.00     0.124 C 
BRANCH  16  17
HETATM   17  N2  UNL     1      26.883  -0.346  54.794  1.00  0.00    -0.390 N 
HETATM   18  H17 UNL     1      26.911  -1.094  55.538  1.00  0.00     0.159 HD
BRANCH  17  19
HETATM   19  C13 UNL     1      28.199  -0.153  54.273  1.00  0.00     0.027 A 
HETATM   20  C14 UNL     1      29.222   0.680  54.098  1.00  0.00     0.029 A 
HETATM   21  C15 UNL     1      30.039  -0.332  53.396  1.00  0.00     0.004 A 
HETATM   22  C16 UNL     1      29.013  -1.158  53.576  1.00  0.00     0.029 A 
ENDBRANCH  17  19
ENDBRANCH  16  17
ENDBRANCH  15  16
ENDBRANCH   6  15
TORSDOF 10
ENDMDL
MODEL 3
REMARK VINA RESULT:      -6.0      1.474      4.647
REMARK  10 active torsions:
REMARK  status: ('A' for Active; 'I' for Inactive)
REMARK    1  A    between atoms: C1_2  and  S1_3 
REMARK    2  A    between atoms: S1_3  and  C2_4 
REMARK    3  A    between atoms: C2_4  and  C3_5 
REMARK    4  A    between atoms: C3_5  and  C4_6 
REMARK    5  A    between atoms: C4_6  and  N1_7 
REMARK    6  A    between atoms: N1_7  and  C5_8 
REMARK    7  A    between atoms: C10_13  and  C11_14 
REMARK    8  A    between atoms: C11_14  and  C12_15 
REMARK    9  A    between atoms: C12_15  and  N2_16 
REMARK   10  A    between atoms: N2_16  and  C13_17 
ROOT
HETATM    1  C5  UNL     1      25.344   2.255  51.955  1.00  0.00     0.034 A 
HETATM    2  C6  UNL     1      26.492   2.611  51.283  1.00  0.00     0.029 A 
HETATM    3  C7  UNL     1      26.560   3.205  50.040  1.00  0.00     0.002 A 
HETATM    4  C8  UNL     1      25.362   3.467  49.409  1.00  0.00     0.001 A 
HETATM    5  C9  UNL     1      24.191   3.125  50.048  1.00  0.00     0.009 A 
HETATM    6  C10 UNL     1      24.147   2.533  51.287  1.00  0.00    -0.030 A 
ENDROOT
BRANCH   1   7
HETATM    7  N1  UNL     1      25.385   1.651  53.208  1.00  0.00    -0.389 N 
HETATM    8  H8  UNL     1      25.149   2.310  54.003  1.00  0.00     0.159 HD
BRANCH   7   9
HETATM    9  C4  UNL     1      25.676   0.370  53.754  1.00  0.00     0.120 C 
BRANCH   9  10
HETATM   10  C3  UNL     1      26.400  -0.592  52.884  1.00  0.00     0.030 C 
BRANCH  10  11
HETATM   11  C2  UNL     1      27.871  -0.685  53.019  1.00  0.00     0.083 C 
BRANCH  11  12
HETATM   12  S1  UNL     1      28.351   0.181  54.570  1.00  0.00    -0.101 SA
BRANCH  12  13
HETATM   13  C1  UNL     1      29.104   1.733  54.100  1.00  0.00     0.304 C 
HETATM   14  O1  UNL     1      28.259   2.617  54.250  1.00  0.00    -0.295 OA
ENDBRANCH  12  13
ENDBRANCH  11  12
ENDBRANCH  10  11
ENDBRANCH   9  10
ENDBRANCH   7   9
ENDBRANCH   1   7
BRANCH   6  15
HETATM   15  C11 UNL     1      22.832   2.180  51.884  1.00  0.00     0.060 C 
BRANCH  15  16
HETATM   16  C12 UNL     1      22.153   1.101  51.077  1.00  0.00     0.124 C 
BRANCH  16  17
HETATM   17  N2  UNL     1      21.098   0.448  51.833  1.00  0.00    -0.390 N 
HETATM   18  H17 UNL     1      20.052   0.328  51.764  1.00  0.00     0.159 HD
BRANCH  17  19
HETATM   19  C13 UNL     1      21.571  -0.229  52.998  1.00  0.00     0.027 A 
HETATM   20  C14 UNL     1      22.363  -1.173  53.500  1.00  0.00     0.029 A 
HETATM   21  C15 UNL     1      21.954  -0.900  54.893  1.00  0.00     0.004 A 
HETATM   22  C16 UNL     1      21.165   0.042  54.385  1.00  0.00     0.029 A 
ENDBRANCH  17  19
ENDBRANCH  16  17
ENDBRANCH  15  16
ENDBRANCH   6  15
TORSDOF 10
ENDMDL
MODEL 4
REMARK VINA RESULT:      -6.0      2.221      5.780
REMARK  10 active torsions:
REMARK  status: ('A' for Active; 'I' for Inactive)
REMARK    1  A    between atoms: C1_2  and  S1_3 
REMARK    2  A    between atoms: S1_3  and  C2_4 
REMARK    3  A    between atoms: C2_4  and  C3_5 
REMARK    4  A    between atoms: C3_5  and  C4_6 
REMARK    5  A    between atoms: C4_6  and  N1_7 
REMARK    6  A    between atoms: N1_7  and  C5_8 
REMARK    7  A    between atoms: C10_13  and  C11_14 
REMARK    8  A    between atoms: C11_14  and  C12_15 
REMARK    9  A    between atoms: C12_15  and  N2_16 
REMARK   10  A    between atoms: N2_16  and  C13_17 
ROOT
HETATM    1  C5  UNL     1      27.495   2.043  52.720  1.00  0.00     0.034 A 
HETATM    2  C6  UNL     1      28.561   2.529  53.444  1.00  0.00     0.029 A 
HETATM    3  C7  UNL     1      29.353   1.810  54.315  1.00  0.00     0.002 A 
HETATM    4  C8  UNL     1      29.048   0.475  54.475  1.00  0.00     0.001 A 
HETATM    5  C9  UNL     1      27.989  -0.050  53.768  1.00  0.00     0.009 A 
HETATM    6  C10 UNL     1      27.212   0.686  52.906  1.00  0.00    -0.030 A 
ENDROOT
BRANCH   1   7
HETATM    7  N1  UNL     1      26.753   2.859  51.871  1.00  0.00    -0.389 N 
HETATM    8  H8  UNL     1      25.980   3.390  52.363  1.00  0.00     0.159 HD
BRANCH   7   9
HETATM    9  C4  UNL     1      26.718   3.188  50.487  1.00  0.00     0.120 C 
BRANCH   9  10
HETATM   10  C3  UNL     1      25.383   3.276  49.842  1.00  0.00     0.030 C 
BRANCH  10  11
HETATM   11  C2  UNL     1      24.576   4.495  50.073  1.00  0.00     0.083 C 
BRANCH  11  12
HETATM   12  S1  UNL     1      23.120   4.023  51.093  1.00  0.00    -0.101 SA
BRANCH  12  13
HETATM   13  C1  UNL     1      23.556   4.308  52.804  1.00  0.00     0.304 C 
HETATM   14  O1  UNL     1      24.189   3.325  53.195  1.00  0.00    -0.295 OA
ENDBRANCH  12  13
ENDBRANCH  11  12
ENDBRANCH  10  11
ENDBRANCH   9  10
ENDBRANCH   7   9
ENDBRANCH   1   7
BRANCH   6  15
HETATM   15  C11 UNL     1      26.074   0.034  52.205  1.00  0.00     0.060 C 
BRANCH  15  16
HETATM   16  C12 UNL     1      25.073  -0.500  53.199  1.00  0.00     0.124 C 
BRANCH  16  17
HETATM   17  N2  UNL     1      23.930   0.385  53.339  1.00  0.00    -0.390 N 
HETATM   18  H17 UNL     1      23.737   1.421  53.281  1.00  0.00     0.159 HD
BRANCH  17  19
HETATM   19  C13 UNL     1      22.713  -0.302  53.636  1.00  0.00     0.027 A 
HETATM   20  C14 UNL     1      21.457  -0.560  53.278  1.00  0.00     0.029 A 
HETATM   21  C15 UNL     1      21.216  -1.443  54.438  1.00  0.00     0.004 A 
HETATM   22  C16 UNL     1      22.471  -1.181  54.789  1.00  0.00     0.029 A 
ENDBRANCH  17  19
ENDBRANCH  16  17
ENDBRANCH  15  16
ENDBRANCH   6  15
TORSDOF 10
ENDMDL
MODEL 5
REMARK VINA RESULT:      -5.9      2.420      4.855
REMARK  10 active torsions:
REMARK  status: ('A' for Active; 'I' for Inactive)
REMARK    1  A    between atoms: C1_2  and  S1_3 
REMARK    2  A    between atoms: S1_3  and  C2_4 
REMARK    3  A    between atoms: C2_4  and  C3_5 
REMARK    4  A    between atoms: C3_5  and  C4_6 
REMARK    5  A    between atoms: C4_6  and  N1_7 
REMARK    6  A    between atoms: N1_7  and  C5_8 
REMARK    7  A    between atoms: C10_13  and  C11_14 
REMARK    8  A    between atoms: C11_14  and  C12_15 
REMARK    9  A    between atoms: C12_15  and  N2_16 
REMARK   10  A    between atoms: N2_16  and  C13_17 
ROOT
HETATM    1  C5  UNL     1      22.995   0.622  52.714  1.00  0.00     0.034 A 
HETATM    2  C6  UNL     1      21.653   0.698  53.015  1.00  0.00     0.029 A 
HETATM    3  C7  UNL     1      21.002   0.018  54.023  1.00  0.00     0.002 A 
HETATM    4  C8  UNL     1      21.770  -0.818  54.807  1.00  0.00     0.001 A 
HETATM    5  C9  UNL     1      23.117  -0.920  54.538  1.00  0.00     0.009 A 
HETATM    6  C10 UNL     1      23.745  -0.234  53.527  1.00  0.00    -0.030 A 
ENDROOT
BRANCH   1   7
HETATM    7  N1  UNL     1      23.553   1.347  51.665  1.00  0.00    -0.389 N 
HETATM    8  H8  UNL     1      24.156   0.763  51.020  1.00  0.00     0.159 HD
BRANCH   7   9
HETATM    9  C4  UNL     1      23.563   2.692  51.198  1.00  0.00     0.120 C 
BRANCH   9  10
HETATM   10  C3  UNL     1      23.657   2.902  49.732  1.00  0.00     0.030 C 
BRANCH  10  11
HETATM   11  C2  UNL     1      23.818   4.286  49.234  1.00  0.00     0.083 C 
BRANCH  11  12
HETATM   12  S1  UNL     1      25.416   4.933  49.873  1.00  0.00    -0.101 SA
BRANCH  12  13
HETATM   13  C1  UNL     1      26.674   3.727  49.474  1.00  0.00     0.304 C 
HETATM   14  O1  UNL     1      27.579   4.316  48.880  1.00  0.00    -0.295 OA
ENDBRANCH  12  13
ENDBRANCH  11  12
ENDBRANCH  10  11
ENDBRANCH   9  10
ENDBRANCH   7   9
ENDBRANCH   1   7
BRANCH   6  15
HETATM   15  C11 UNL     1      25.201  -0.431  53.301  1.00  0.00     0.060 C 
BRANCH  15  16
HETATM   16  C12 UNL     1      26.007   0.455  54.218  1.00  0.00     0.124 C 
BRANCH  16  17
HETATM   17  N2  UNL     1      27.037  -0.291  54.918  1.00  0.00    -0.390 N 
HETATM   18  H17 UNL     1      27.100  -0.934  55.753  1.00  0.00     0.159 HD
BRANCH  17  19
HETATM   19  C13 UNL     1      28.337  -0.137  54.346  1.00  0.00     0.027 A 
HETATM   20  C14 UNL     1      29.383   0.660  54.143  1.00  0.00     0.029 A 
HETATM   21  C15 UNL     1      30.132  -0.368  53.390  1.00  0.00     0.004 A 
HETATM   22  C16 UNL     1      29.084  -1.159  53.598  1.00  0.00     0.029 A 
ENDBRANCH  17  19
ENDBRANCH  16  17
ENDBRANCH  15  16
ENDBRANCH   6  15
TORSDOF 10
ENDMDL
MODEL 6
REMARK VINA RESULT:      -5.8      2.713      4.962
REMARK  10 active torsions:
REMARK  status: ('A' for Active; 'I' for Inactive)
REMARK    1  A    between atoms: C1_2  and  S1_3 
REMARK    2  A    between atoms: S1_3  and  C2_4 
REMARK    3  A    between atoms: C2_4  and  C3_5 
REMARK    4  A    between atoms: C3_5  and  C4_6 
REMARK    5  A    between atoms: C4_6  and  N1_7 
REMARK    6  A    between atoms: N1_7  and  C5_8 
REMARK    7  A    between atoms: C10_13  and  C11_14 
REMARK    8  A    between atoms: C11_14  and  C12_15 
REMARK    9  A    between atoms: C12_15  and  N2_16 
REMARK   10  A    between atoms: N2_16  and  C13_17 
ROOT
HETATM    1  C5  UNL     1      22.617   0.840  52.789  1.00  0.00     0.034 A 
HETATM    2  C6  UNL     1      21.323   0.711  53.242  1.00  0.00     0.029 A 
HETATM    3  C7  UNL     1      20.890  -0.125  54.250  1.00  0.00     0.002 A 
HETATM    4  C8  UNL     1      21.846  -0.908  54.862  1.00  0.00     0.001 A 
HETATM    5  C9  UNL     1      23.152  -0.809  54.437  1.00  0.00     0.009 A 
HETATM    6  C10 UNL     1      23.561   0.031  53.430  1.00  0.00    -0.030 A 
ENDROOT
BRANCH   1   7
HETATM    7  N1  UNL     1      22.949   1.712  51.756  1.00  0.00    -0.389 N 
HETATM    8  H8  UNL     1      23.369   2.625  52.091  1.00  0.00     0.159 HD
BRANCH   7   9
HETATM    9  C4  UNL     1      22.872   1.744  50.336  1.00  0.00     0.120 C 
BRANCH   9  10
HETATM   10  C3  UNL     1      23.534   2.879  49.644  1.00  0.00     0.030 C 
BRANCH  10  11
HETATM   11  C2  UNL     1      22.945   4.228  49.795  1.00  0.00     0.083 C 
BRANCH  11  12
HETATM   12  S1  UNL     1      24.056   5.211  50.882  1.00  0.00    -0.101 SA
BRANCH  12  13
HETATM   13  C1  UNL     1      23.423   5.077  52.548  1.00  0.00     0.304 C 
HETATM   14  O1  UNL     1      22.295   4.584  52.479  1.00  0.00    -0.295 OA
ENDBRANCH  12  13
ENDBRANCH  11  12
ENDBRANCH  10  11
ENDBRANCH   9  10
ENDBRANCH   7   9
ENDBRANCH   1   7
BRANCH   6  15
HETATM   15  C11 UNL     1      24.992   0.049  53.026  1.00  0.00     0.060 C 
BRANCH  15  16
HETATM   16  C12 UNL     1      25.805  -0.873  53.901  1.00  0.00     0.124 C 
BRANCH  16  17
HETATM   17  N2  UNL     1      26.637  -0.134  54.834  1.00  0.00    -0.390 N 
HETATM   18  H17 UNL     1      26.527   0.326  55.778  1.00  0.00     0.159 HD
BRANCH  17  19
HETATM   19  C13 UNL     1      27.981   0.038  54.383  1.00  0.00     0.027 A 
HETATM   20  C14 UNL     1      29.070   0.803  54.375  1.00  0.00     0.029 A 
HETATM   21  C15 UNL     1      29.831  -0.138  53.527  1.00  0.00     0.004 A 
HETATM   22  C16 UNL     1      28.740  -0.897  53.539  1.00  0.00     0.029 A 
ENDBRANCH  17  19
ENDBRANCH  16  17
ENDBRANCH  15  16
ENDBRANCH   6  15
TORSDOF 10
ENDMDL
MODEL 7
REMARK VINA RESULT:      -5.6      3.144      5.404
REMARK  10 active torsions:
REMARK  status: ('A' for Active; 'I' for Inactive)
REMARK    1  A    between atoms: C1_2  and  S1_3 
REMARK    2  A    between atoms: S1_3  and  C2_4 
REMARK    3  A    between atoms: C2_4  and  C3_5 
REMARK    4  A    between atoms: C3_5  and  C4_6 
REMARK    5  A    between atoms: C4_6  and  N1_7 
REMARK    6  A    between atoms: N1_7  and  C5_8 
REMARK    7  A    between atoms: C10_13  and  C11_14 
REMARK    8  A    between atoms: C11_14  and  C12_15 
REMARK    9  A    between atoms: C12_15  and  N2_16 
REMARK   10  A    between atoms: N2_16  and  C13_17 
ROOT
HETATM    1  C5  UNL     1      22.365   0.708  52.850  1.00  0.00     0.034 A 
HETATM    2  C6  UNL     1      21.098   0.259  53.146  1.00  0.00     0.029 A 
HETATM    3  C7  UNL     1      20.775  -0.758  54.020  1.00  0.00     0.002 A 
HETATM    4  C8  UNL     1      21.824  -1.385  54.659  1.00  0.00     0.001 A 
HETATM    5  C9  UNL     1      23.107  -0.964  54.390  1.00  0.00     0.009 A 
HETATM    6  C10 UNL     1      23.406   0.051  53.514  1.00  0.00    -0.030 A 
ENDROOT
BRANCH   1   7
HETATM    7  N1  UNL     1      22.583   1.742  51.943  1.00  0.00    -0.389 N 
HETATM    8  H8  UNL     1      22.771   1.405  50.956  1.00  0.00     0.159 HD
BRANCH   7   9
HETATM    9  C4  UNL     1      22.645   3.163  51.956  1.00  0.00     0.120 C 
BRANCH   9  10
HETATM   10  C3  UNL     1      23.352   3.824  50.830  1.00  0.00     0.030 C 
BRANCH  10  11
HETATM   11  C2  UNL     1      23.766   2.989  49.680  1.00  0.00     0.083 C 
BRANCH  11  12
HETATM   12  S1  UNL     1      22.392   2.994  48.457  1.00  0.00    -0.101 SA
BRANCH  12  13
HETATM   13  C1  UNL     1      21.714   1.340  48.414  1.00  0.00     0.304 C 
HETATM   14  O1  UNL     1      21.015   1.200  49.420  1.00  0.00    -0.295 OA
ENDBRANCH  12  13
ENDBRANCH  11  12
ENDBRANCH  10  11
ENDBRANCH   9  10
ENDBRANCH   7   9
ENDBRANCH   1   7
BRANCH   6  15
HETATM   15  C11 UNL     1      24.826   0.417  53.272  1.00  0.00     0.060 C 
BRANCH  15  16
HETATM   16  C12 UNL     1      25.742  -0.718  53.658  1.00  0.00     0.124 C 
BRANCH  16  17
HETATM   17  N2  UNL     1      26.611  -0.355  54.764  1.00  0.00    -0.390 N 
HETATM   18  H17 UNL     1      26.527  -0.219  55.807  1.00  0.00     0.159 HD
BRANCH  17  19
HETATM   19  C13 UNL     1      27.960  -0.103  54.366  1.00  0.00     0.027 A 
HETATM   20  C14 UNL     1      29.020   0.698  54.447  1.00  0.00     0.029 A 
HETATM   21  C15 UNL     1      29.839  -0.150  53.556  1.00  0.00     0.004 A 
HETATM   22  C16 UNL     1      28.777  -0.946  53.481  1.00  0.00     0.029 A 
ENDBRANCH  17  19
ENDBRANCH  16  17
ENDBRANCH  15  16
ENDBRANCH   6  15
TORSDOF 10
ENDMDL
MODEL 8
REMARK VINA RESULT:      -5.6      3.681      6.542
REMARK  10 active torsions:
REMARK  status: ('A' for Active; 'I' for Inactive)
REMARK    1  A    between atoms: C1_2  and  S1_3 
REMARK    2  A    between atoms: S1_3  and  C2_4 
REMARK    3  A    between atoms: C2_4  and  C3_5 
REMARK    4  A    between atoms: C3_5  and  C4_6 
REMARK    5  A    between atoms: C4_6  and  N1_7 
REMARK    6  A    between atoms: N1_7  and  C5_8 
REMARK    7  A    between atoms: C10_13  and  C11_14 
REMARK    8  A    between atoms: C11_14  and  C12_15 
REMARK    9  A    between atoms: C12_15  and  N2_16 
REMARK   10  A    between atoms: N2_16  and  C13_17 
ROOT
HETATM    1  C5  UNL     1      24.256   1.303  51.800  1.00  0.00     0.034 A 
HETATM    2  C6  UNL     1      24.162   2.402  50.976  1.00  0.00     0.029 A 
HETATM    3  C7  UNL     1      25.214   3.106  50.428  1.00  0.00     0.002 A 
HETATM    4  C8  UNL     1      26.484   2.665  50.736  1.00  0.00     0.001 A 
HETATM    5  C9  UNL     1      26.621   1.568  51.558  1.00  0.00     0.009 A 
HETATM    6  C10 UNL     1      25.558   0.883  52.093  1.00  0.00    -0.030 A 
ENDROOT
BRANCH   1   7
HETATM    7  N1  UNL     1      23.126   0.668  52.307  1.00  0.00    -0.389 N 
HETATM    8  H8  UNL     1      22.696  -0.030  51.637  1.00  0.00     0.159 HD
BRANCH   7   9
HETATM    9  C4  UNL     1      22.345   0.693  53.496  1.00  0.00     0.120 C 
BRANCH   9  10
HETATM   10  C3  UNL     1      20.869   0.642  53.342  1.00  0.00     0.030 C 
BRANCH  10  11
HETATM   11  C2  UNL     1      20.219   1.674  52.503  1.00  0.00     0.083 C 
BRANCH  11  12
HETATM   12  S1  UNL     1      19.401   0.822  51.093  1.00  0.00    -0.101 SA
BRANCH  12  13
HETATM   13  C1  UNL     1      17.765   0.349  51.637  1.00  0.00     0.304 C 
HETATM   14  O1  UNL     1      17.796  -0.854  51.904  1.00  0.00    -0.295 OA
ENDBRANCH  12  13
ENDBRANCH  11  12
ENDBRANCH  10  11
ENDBRANCH   9  10
ENDBRANCH   7   9
ENDBRANCH   1   7
BRANCH   6  15
HETATM   15  C11 UNL     1      25.809  -0.277  52.990  1.00  0.00     0.060 C 
BRANCH  15  16
HETATM   16  C12 UNL     1      25.990   0.182  54.416  1.00  0.00     0.124 C 
BRANCH  16  17
HETATM   17  N2  UNL     1      27.141  -0.445  55.040  1.00  0.00    -0.390 N 
HETATM   18  H17 UNL     1      27.329  -1.097  55.849  1.00  0.00     0.159 HD
BRANCH  17  19
HETATM   19  C13 UNL     1      28.380  -0.111  54.412  1.00  0.00     0.027 A 
HETATM   20  C14 UNL     1      29.263   0.839  54.114  1.00  0.00     0.029 A 
HETATM   21  C15 UNL     1      30.164  -0.098  53.410  1.00  0.00     0.004 A 
HETATM   22  C16 UNL     1      29.278  -1.041  53.711  1.00  0.00     0.029 A 
ENDBRANCH  17  19
ENDBRANCH  16  17
ENDBRANCH  15  16
ENDBRANCH   6  15
TORSDOF 10
ENDMDL
MODEL 9
REMARK VINA RESULT:      -5.5      2.704      4.836
REMARK  10 active torsions:
REMARK  status: ('A' for Active; 'I' for Inactive)
REMARK    1  A    between atoms: C1_2  and  S1_3 
REMARK    2  A    between atoms: S1_3  and  C2_4 
REMARK    3  A    between atoms: C2_4  and  C3_5 
REMARK    4  A    between atoms: C3_5  and  C4_6 
REMARK    5  A    between atoms: C4_6  and  N1_7 
REMARK    6  A    between atoms: N1_7  and  C5_8 
REMARK    7  A    between atoms: C10_13  and  C11_14 
REMARK    8  A    between atoms: C11_14  and  C12_15 
REMARK    9  A    between atoms: C12_15  and  N2_16 
REMARK   10  A    between atoms: N2_16  and  C13_17 
ROOT
HETATM    1  C5  UNL     1      21.561   0.867  53.030  1.00  0.00     0.034 A 
HETATM    2  C6  UNL     1      20.815   0.024  53.823  1.00  0.00     0.029 A 
HETATM    3  C7  UNL     1      21.305  -0.968  54.647  1.00  0.00     0.002 A 
HETATM    4  C8  UNL     1      22.674  -1.131  54.679  1.00  0.00     0.001 A 
HETATM    5  C9  UNL     1      23.455  -0.306  53.901  1.00  0.00     0.009 A 
HETATM    6  C10 UNL     1      22.945   0.676  53.086  1.00  0.00    -0.030 A 
ENDROOT
BRANCH   1   7
HETATM    7  N1  UNL     1      20.965   1.835  52.226  1.00  0.00    -0.389 N 
HETATM    8  H8  UNL     1      20.747   1.496  51.247  1.00  0.00     0.159 HD
BRANCH   7   9
HETATM    9  C4  UNL     1      20.562   3.195  52.334  1.00  0.00     0.120 C 
BRANCH   9  10
HETATM   10  C3  UNL     1      21.355   4.201  51.582  1.00  0.00     0.030 C 
BRANCH  10  11
HETATM   11  C2  UNL     1      22.367   4.988  52.323  1.00  0.00     0.083 C 
BRANCH  11  12
HETATM   12  S1  UNL     1      23.459   5.805  51.090  1.00  0.00    -0.101 SA
BRANCH  12  13
HETATM   13  C1  UNL     1      24.192   4.515  50.093  1.00  0.00     0.304 C 
HETATM   14  O1  UNL     1      25.385   4.442  50.397  1.00  0.00    -0.295 OA
ENDBRANCH  12  13
ENDBRANCH  11  12
ENDBRANCH  10  11
ENDBRANCH   9  10
ENDBRANCH   7   9
ENDBRANCH   1   7
BRANCH   6  15
HETATM   15  C11 UNL     1      23.870   1.500  52.264  1.00  0.00     0.060 C 
BRANCH  15  16
HETATM   16  C12 UNL     1      24.715   2.389  53.142  1.00  0.00     0.124 C 
BRANCH  16  17
HETATM   17  N2  UNL     1      26.106   2.392  52.724  1.00  0.00    -0.390 N 
HETATM   18  H17 UNL     1      26.803   3.089  52.347  1.00  0.00     0.159 HD
BRANCH  17  19
HETATM   19  C13 UNL     1      26.737   1.115  52.841  1.00  0.00     0.027 A 
HETATM   20  C14 UNL     1      27.100  -0.013  52.236  1.00  0.00     0.029 A 
HETATM   21  C15 UNL     1      27.702  -0.579  53.462  1.00  0.00     0.004 A 
HETATM   22  C16 UNL     1      27.336   0.551  54.059  1.00  0.00     0.029 A 
ENDBRANCH  17  19
ENDBRANCH  16  17
ENDBRANCH  15  16
ENDBRANCH   6  15
TORSDOF 10
ENDMDL
