MODEL 1
REMARK VINA RESULT:      -9.2      0.000      0.000
REMARK  6 active torsions:
REMARK  status: ('A' for Active; 'I' for Inactive)
REMARK    1  A    between atoms: C8_8  and  C9_9 
REMARK    2  A    between atoms: C9_9  and  C10_10 
REMARK    3  A    between atoms: C10_10  and  C11_11 
REMARK    4  A    between atoms: C11_11  and  C12_12 
REMARK    5  A    between atoms: C17_17  and  N1_18 
REMARK    6  A    between atoms: C18_20  and  C19_21 
ROOT
HETATM    1  C1  UNL     1      26.459   2.735  50.143  1.00  0.00     0.097 C 
HETATM    2  C2  UNL     1      26.611   3.897  49.595  1.00  0.00    -0.143 C 
HETATM    3  C3  UNL     1      26.730   5.056  48.965  1.00  0.00     0.015 A 
HETATM    4  C4  UNL     1      27.981   5.349  48.546  1.00  0.00     0.020 A 
HETATM    5  C5  UNL     1      28.101   6.577  47.879  1.00  0.00     0.002 A 
HETATM    6  C6  UNL     1      26.989   7.395  47.688  1.00  0.00     0.001 A 
HETATM    7  C7  UNL     1      25.751   6.988  48.163  1.00  0.00     0.012 A 
HETATM    8  C8  UNL     1      25.591   5.775  48.830  1.00  0.00    -0.022 A 
ENDROOT
BRANCH   8   9
HETATM    9  C9  UNL     1      24.430   5.377  49.285  1.00  0.00    -0.014 C 
BRANCH   9  10
HETATM   10  C10 UNL     1      23.297   4.921  48.481  1.00  0.00     0.029 C 
BRANCH  10  11
HETATM   11  C11 UNL     1      23.105   3.400  48.531  1.00  0.00     0.018 C 
BRANCH  11  12
HETATM   12  C12 UNL     1      22.289   3.040  49.729  1.00  0.00     0.016 A 
HETATM   13  C13 UNL     1      21.780   3.612  50.916  1.00  0.00     0.033 A 
HETATM   14  C14 UNL     1      21.032   3.624  52.197  1.00  0.00    -0.016 C 
HETATM   15  C17 UNL     1      21.566   2.149  50.506  1.00  0.00     0.098 A 
HETATM   16  C15 UNL     1      19.999   2.772  52.140  1.00  0.00    -0.027 C 
HETATM   17  C16 UNL     1      20.048   2.151  50.756  1.00  0.00     0.064 C 
BRANCH  15  18
HETATM   18  N1  UNL     1      22.226   1.252  51.484  1.00  0.00    -0.199 N 
HETATM   19  N2  UNL     1      23.563   1.364  51.868  1.00  0.00    -0.155 NA
HETATM   20  C18 UNL     1      24.125   0.587  52.711  1.00  0.00     0.091 A 
HETATM   21  C24 UNL     1      23.369  -0.478  53.325  1.00  0.00     0.053 A 
HETATM   22  C25 UNL     1      22.114  -0.598  52.976  1.00  0.00     0.111 A 
HETATM   23  N4  UNL     1      21.412   0.235  52.038  1.00  0.00    -0.293 N 
HETATM   24  H22 UNL     1      20.417   0.062  51.827  1.00  0.00     0.187 HD
BRANCH  20  25
HETATM   25  C19 UNL     1      25.529   0.812  53.023  1.00  0.00     0.012 A 
HETATM   26  C20 UNL     1      26.523  -0.028  52.608  1.00  0.00     0.017 A 
HETATM   27  C21 UNL     1      27.822   0.245  52.940  1.00  0.00     0.020 A 
HETATM   28  C22 UNL     1      28.222   1.352  53.694  1.00  0.00     0.116 A 
HETATM   29  N3  UNL     1      27.220   2.153  54.084  1.00  0.00    -0.272 NA
HETATM   30  C23 UNL     1      25.946   1.895  53.765  1.00  0.00     0.130 A 
ENDBRANCH  20  25
ENDBRANCH  15  18
ENDBRANCH  11  12
ENDBRANCH  10  11
ENDBRANCH   9  10
ENDBRANCH   8   9
TORSDOF 6
ENDMDL
MODEL 2
REMARK VINA RESULT:      -9.0      1.721      5.213
REMARK  6 active torsions:
REMARK  status: ('A' for Active; 'I' for Inactive)
REMARK    1  A    between atoms: C8_8  and  C9_9 
REMARK    2  A    between atoms: C9_9  and  C10_10 
REMARK    3  A    between atoms: C10_10  and  C11_11 
REMARK    4  A    between atoms: C11_11  and  C12_12 
REMARK    5  A    between atoms: C17_17  and  N1_18 
REMARK    6  A    between atoms: C18_20  and  C19_21 
ROOT
HETATM    1  C1  UNL     1      22.336   4.746  49.590  1.00  0.00     0.097 C 
HETATM    2  C2  UNL     1      23.558   5.010  49.257  1.00  0.00    -0.143 C 
HETATM    3  C3  UNL     1      24.826   5.290  48.998  1.00  0.00     0.015 A 
HETATM    4  C4  UNL     1      25.041   6.519  48.476  1.00  0.00     0.020 A 
HETATM    5  C5  UNL     1      26.386   6.810  48.204  1.00  0.00     0.002 A 
HETATM    6  C6  UNL     1      27.384   5.875  48.468  1.00  0.00     0.001 A 
HETATM    7  C7  UNL     1      27.043   4.644  49.006  1.00  0.00     0.012 A 
HETATM    8  C8  UNL     1      25.719   4.316  49.291  1.00  0.00    -0.022 A 
ENDROOT
BRANCH   8   9
HETATM    9  C9  UNL     1      25.379   3.158  49.798  1.00  0.00    -0.014 C 
BRANCH   9  10
HETATM   10  C10 UNL     1      25.369   2.806  51.218  1.00  0.00     0.029 C 
BRANCH  10  11
HETATM   11  C11 UNL     1      26.762   2.450  51.752  1.00  0.00     0.018 C 
BRANCH  11  12
HETATM   12  C12 UNL     1      26.751   1.053  52.280  1.00  0.00     0.016 A 
HETATM   13  C13 UNL     1      26.747  -0.285  51.830  1.00  0.00     0.033 A 
HETATM   14  C14 UNL     1      26.741  -1.761  51.978  1.00  0.00    -0.016 C 
HETATM   15  C17 UNL     1      26.725   0.123  53.307  1.00  0.00     0.098 A 
HETATM   16  C15 UNL     1      27.390  -2.118  53.095  1.00  0.00    -0.027 C 
HETATM   17  C16 UNL     1      27.858  -0.824  53.735  1.00  0.00     0.064 C 
BRANCH  15  18
HETATM   18  N1  UNL     1      25.454  -0.315  53.931  1.00  0.00    -0.199 N 
HETATM   19  N2  UNL     1      24.198  -0.139  53.349  1.00  0.00    -0.155 NA
HETATM   20  C18 UNL     1      23.106  -0.520  53.892  1.00  0.00     0.091 A 
HETATM   21  C24 UNL     1      23.130  -1.173  55.179  1.00  0.00     0.053 A 
HETATM   22  C25 UNL     1      24.300  -1.346  55.739  1.00  0.00     0.111 A 
HETATM   23  N4  UNL     1      25.568  -0.947  55.192  1.00  0.00    -0.293 N 
HETATM   24  H22 UNL     1      26.442  -1.128  55.710  1.00  0.00     0.187 HD
BRANCH  20  25
HETATM   25  C19 UNL     1      21.861  -0.275  53.179  1.00  0.00     0.012 A 
HETATM   26  C20 UNL     1      21.821   0.266  51.925  1.00  0.00     0.017 A 
HETATM   27  C21 UNL     1      20.613   0.469  51.314  1.00  0.00     0.020 A 
HETATM   28  C22 UNL     1      19.380   0.156  51.893  1.00  0.00     0.116 A 
HETATM   29  N3  UNL     1      19.459  -0.372  53.123  1.00  0.00    -0.272 NA
HETATM   30  C23 UNL     1      20.635  -0.575  53.729  1.00  0.00     0.130 A 
ENDBRANCH  20  25
ENDBRANCH  15  18
ENDBRANCH  11  12
ENDBRANCH  10  11
ENDBRANCH   9  10
ENDBRANCH   8   9
TORSDOF 6
ENDMDL
MODEL 3
REMARK VINA RESULT:      -8.9      2.009      6.007
REMARK  6 active torsions:
REMARK  status: ('A' for Active; 'I' for Inactive)
REMARK    1  A    between atoms: C8_8  and  C9_9 
REMARK    2  A    between atoms: C9_9  and  C10_10 
REMARK    3  A    between atoms: C10_10  and  C11_11 
REMARK    4  A    between atoms: C11_11  and  C12_12 
REMARK    5  A    between atoms: C17_17  and  N1_18 
REMARK    6  A    between atoms: C18_20  and  C19_21 
ROOT
HETATM    1  C1  UNL     1      28.667   2.482  53.833  1.00  0.00     0.097 C 
HETATM    2  C2  UNL     1      28.668   1.211  53.592  1.00  0.00    -0.143 C 
HETATM    3  C3  UNL     1      28.635  -0.102  53.423  1.00  0.00     0.015 A 
HETATM    4  C4  UNL     1      29.835  -0.717  53.510  1.00  0.00     0.020 A 
HETATM    5  C5  UNL     1      29.794  -2.107  53.329  1.00  0.00     0.002 A 
HETATM    6  C6  UNL     1      28.587  -2.757  53.083  1.00  0.00     0.001 A 
HETATM    7  C7  UNL     1      27.414  -2.020  53.015  1.00  0.00     0.012 A 
HETATM    8  C8  UNL     1      27.413  -0.638  53.189  1.00  0.00    -0.022 A 
ENDROOT
BRANCH   8   9
HETATM    9  C9  UNL     1      26.316   0.074  53.128  1.00  0.00    -0.014 C 
BRANCH   9  10
HETATM   10  C10 UNL     1      25.038  -0.357  52.562  1.00  0.00     0.029 C 
BRANCH  10  11
HETATM   11  C11 UNL     1      23.859  -0.133  53.518  1.00  0.00     0.018 C 
BRANCH  11  12
HETATM   12  C12 UNL     1      22.751   0.554  52.789  1.00  0.00     0.016 A 
HETATM   13  C13 UNL     1      22.018   0.470  51.585  1.00  0.00     0.033 A 
HETATM   14  C14 UNL     1      20.986   0.876  50.599  1.00  0.00    -0.016 C 
HETATM   15  C17 UNL     1      21.791   1.545  52.654  1.00  0.00     0.098 A 
HETATM   16  C15 UNL     1      19.931   1.415  51.227  1.00  0.00    -0.027 C 
HETATM   17  C16 UNL     1      20.263   1.374  52.708  1.00  0.00     0.064 C 
BRANCH  15  18
HETATM   18  N1  UNL     1      22.119   2.880  52.102  1.00  0.00    -0.199 N 
HETATM   19  N2  UNL     1      23.285   3.165  51.390  1.00  0.00    -0.155 NA
HETATM   20  C18 UNL     1      23.561   4.319  50.917  1.00  0.00     0.091 A 
HETATM   21  C24 UNL     1      22.642   5.415  51.107  1.00  0.00     0.053 A 
HETATM   22  C25 UNL     1      21.543   5.165  51.773  1.00  0.00     0.111 A 
HETATM   23  N4  UNL     1      21.163   3.898  52.334  1.00  0.00    -0.293 N 
HETATM   24  H22 UNL     1      20.272   3.798  52.845  1.00  0.00     0.187 HD
BRANCH  20  25
HETATM   25  C19 UNL     1      24.813   4.483  50.193  1.00  0.00     0.012 A 
HETATM   26  C20 UNL     1      25.710   3.467  50.025  1.00  0.00     0.017 A 
HETATM   27  C21 UNL     1      26.868   3.693  49.333  1.00  0.00     0.020 A 
HETATM   28  C22 UNL     1      27.214   4.924  48.766  1.00  0.00     0.116 A 
HETATM   29  N3  UNL     1      26.310   5.897  48.951  1.00  0.00    -0.272 NA
HETATM   30  C23 UNL     1      25.175   5.685  49.627  1.00  0.00     0.130 A 
ENDBRANCH  20  25
ENDBRANCH  15  18
ENDBRANCH  11  12
ENDBRANCH  10  11
ENDBRANCH   9  10
ENDBRANCH   8   9
TORSDOF 6
ENDMDL
MODEL 4
REMARK VINA RESULT:      -8.7      2.119      6.425
REMARK  6 active torsions:
REMARK  status: ('A' for Active; 'I' for Inactive)
REMARK    1  A    between atoms: C8_8  and  C9_9 
REMARK    2  A    between atoms: C9_9  and  C10_10 
REMARK    3  A    between atoms: C10_10  and  C11_11 
REMARK    4  A    between atoms: C11_11  and  C12_12 
REMARK    5  A    between atoms: C17_17  and  N1_18 
REMARK    6  A    between atoms: C18_20  and  C19_21 
ROOT
HETATM    1  C1  UNL     1      29.659   2.047  54.605  1.00  0.00     0.097 C 
HETATM    2  C2  UNL     1      29.205   0.945  54.102  1.00  0.00    -0.143 C 
HETATM    3  C3  UNL     1      28.705  -0.199  53.662  1.00  0.00     0.015 A 
HETATM    4  C4  UNL     1      29.605  -1.198  53.526  1.00  0.00     0.020 A 
HETATM    5  C5  UNL     1      29.070  -2.408  53.059  1.00  0.00     0.002 A 
HETATM    6  C6  UNL     1      27.711  -2.522  52.774  1.00  0.00     0.001 A 
HETATM    7  C7  UNL     1      26.880  -1.425  52.953  1.00  0.00     0.012 A 
HETATM    8  C8  UNL     1      27.374  -0.207  53.415  1.00  0.00    -0.022 A 
ENDROOT
BRANCH   8   9
HETATM    9  C9  UNL     1      26.604   0.837  53.589  1.00  0.00    -0.014 C 
BRANCH   9  10
HETATM   10  C10 UNL     1      25.700   1.419  52.597  1.00  0.00     0.029 C 
BRANCH  10  11
HETATM   11  C11 UNL     1      24.228   1.352  53.023  1.00  0.00     0.018 C 
BRANCH  11  12
HETATM   12  C12 UNL     1      23.375   1.978  51.969  1.00  0.00     0.016 A 
HETATM   13  C13 UNL     1      23.021   1.816  50.611  1.00  0.00     0.033 A 
HETATM   14  C14 UNL     1      22.317   2.150  49.349  1.00  0.00    -0.016 C 
HETATM   15  C17 UNL     1      22.492   2.942  51.508  1.00  0.00     0.098 A 
HETATM   16  C15 UNL     1      21.124   2.701  49.615  1.00  0.00    -0.027 C 
HETATM   17  C16 UNL     1      21.014   2.745  51.128  1.00  0.00     0.064 C 
BRANCH  15  18
HETATM   18  N1  UNL     1      22.961   4.252  51.000  1.00  0.00    -0.199 N 
HETATM   19  N2  UNL     1      24.202   4.456  50.394  1.00  0.00    -0.155 NA
HETATM   20  C18 UNL     1      24.600   5.588  49.958  1.00  0.00     0.091 A 
HETATM   21  C24 UNL     1      23.748   6.747  50.079  1.00  0.00     0.053 A 
HETATM   22  C25 UNL     1      22.581   6.574  50.645  1.00  0.00     0.111 A 
HETATM   23  N4  UNL     1      22.064   5.335  51.158  1.00  0.00    -0.293 N 
HETATM   24  H22 UNL     1      21.127   5.297  51.589  1.00  0.00     0.187 HD
BRANCH  20  25
HETATM   25  C19 UNL     1      25.919   5.665  49.347  1.00  0.00     0.012 A 
HETATM   26  C20 UNL     1      26.435   6.825  48.844  1.00  0.00     0.017 A 
HETATM   27  C21 UNL     1      27.683   6.824  48.283  1.00  0.00     0.020 A 
HETATM   28  C22 UNL     1      28.495   5.690  48.181  1.00  0.00     0.116 A 
HETATM   29  N3  UNL     1      27.955   4.571  48.684  1.00  0.00    -0.272 NA
HETATM   30  C23 UNL     1      26.736   4.562  49.236  1.00  0.00     0.130 A 
ENDBRANCH  20  25
ENDBRANCH  15  18
ENDBRANCH  11  12
ENDBRANCH  10  11
ENDBRANCH   9  10
ENDBRANCH   8   9
TORSDOF 6
ENDMDL
MODEL 5
REMARK VINA RESULT:      -8.7      2.672      6.072
REMARK  6 active torsions:
REMARK  status: ('A' for Active; 'I' for Inactive)
REMARK    1  A    between atoms: C8_8  and  C9_9 
REMARK    2  A    between atoms: C9_9  and  C10_10 
REMARK    3  A    between atoms: C10_10  and  C11_11 
REMARK    4  A    between atoms: C11_11  and  C12_12 
REMARK    5  A    between atoms: C17_17  and  N1_18 
REMARK    6  A    between atoms: C18_20  and  C19_21 
ROOT
HETATM    1  C1  UNL     1      22.941   2.553  47.667  1.00  0.00     0.097 C 
HETATM    2  C2  UNL     1      22.418   2.955  48.780  1.00  0.00    -0.143 C 
HETATM    3  C3  UNL     1      21.898   3.289  49.951  1.00  0.00     0.015 A 
HETATM    4  C4  UNL     1      20.550   3.384  49.967  1.00  0.00     0.020 A 
HETATM    5  C5  UNL     1      20.004   3.738  51.210  1.00  0.00     0.002 A 
HETATM    6  C6  UNL     1      20.828   3.964  52.311  1.00  0.00     0.001 A 
HETATM    7  C7  UNL     1      22.202   3.836  52.174  1.00  0.00     0.012 A 
HETATM    8  C8  UNL     1      22.782   3.486  50.957  1.00  0.00    -0.022 A 
ENDROOT
BRANCH   8   9
HETATM    9  C9  UNL     1      24.077   3.361  50.811  1.00  0.00    -0.014 C 
BRANCH   9  10
HETATM   10  C10 UNL     1      25.040   3.053  51.868  1.00  0.00     0.029 C 
BRANCH  10  11
HETATM   11  C11 UNL     1      26.288   2.332  51.343  1.00  0.00     0.018 C 
BRANCH  11  12
HETATM   12  C12 UNL     1      26.461   1.041  52.074  1.00  0.00     0.016 A 
HETATM   13  C13 UNL     1      26.661  -0.335  51.829  1.00  0.00     0.033 A 
HETATM   14  C14 UNL     1      26.860  -1.759  52.196  1.00  0.00    -0.016 C 
HETATM   15  C17 UNL     1      26.538   0.278  53.229  1.00  0.00     0.098 A 
HETATM   16  C15 UNL     1      27.522  -1.850  53.358  1.00  0.00    -0.027 C 
HETATM   17  C16 UNL     1      27.783  -0.421  53.801  1.00  0.00     0.064 C 
BRANCH  15  18
HETATM   18  N1  UNL     1      25.326  -0.244  53.902  1.00  0.00    -0.199 N 
HETATM   19  N2  UNL     1      24.037  -0.147  53.374  1.00  0.00    -0.155 NA
HETATM   20  C18 UNL     1      22.997  -0.600  53.960  1.00  0.00     0.091 A 
HETATM   21  C24 UNL     1      23.117  -1.255  55.241  1.00  0.00     0.053 A 
HETATM   22  C25 UNL     1      24.318  -1.354  55.750  1.00  0.00     0.111 A 
HETATM   23  N4  UNL     1      25.534  -0.871  55.153  1.00  0.00    -0.293 N 
HETATM   24  H22 UNL     1      26.438  -0.997  55.633  1.00  0.00     0.187 HD
BRANCH  20  25
HETATM   25  C19 UNL     1      21.709  -0.433  53.301  1.00  0.00     0.012 A 
HETATM   26  C20 UNL     1      21.578   0.141  52.068  1.00  0.00     0.017 A 
HETATM   27  C21 UNL     1      20.336   0.265  51.509  1.00  0.00     0.020 A 
HETATM   28  C22 UNL     1      19.154  -0.163  52.122  1.00  0.00     0.116 A 
HETATM   29  N3  UNL     1      19.322  -0.721  53.329  1.00  0.00    -0.272 NA
HETATM   30  C23 UNL     1      20.533  -0.847  53.885  1.00  0.00     0.130 A 
ENDBRANCH  20  25
ENDBRANCH  15  18
ENDBRANCH  11  12
ENDBRANCH  10  11
ENDBRANCH   9  10
ENDBRANCH   8   9
TORSDOF 6
ENDMDL
MODEL 6
REMARK VINA RESULT:      -8.6      2.752      7.423
REMARK  6 active torsions:
REMARK  status: ('A' for Active; 'I' for Inactive)
REMARK    1  A    between atoms: C8_8  and  C9_9 
REMARK    2  A    between atoms: C9_9  and  C10_10 
REMARK    3  A    between atoms: C10_10  and  C11_11 
REMARK    4  A    between atoms: C11_11  and  C12_12 
REMARK    5  A    between atoms: C17_17  and  N1_18 
REMARK    6  A    between atoms: C18_20  and  C19_21 
ROOT
HETATM    1  C1  UNL     1      21.565   0.632  50.953  1.00  0.00     0.097 C 
HETATM    2  C2  UNL     1      22.074   0.201  52.061  1.00  0.00    -0.143 C 
HETATM    3  C3  UNL     1      22.631  -0.303  53.151  1.00  0.00     0.015 A 
HETATM    4  C4  UNL     1      21.777  -0.939  53.984  1.00  0.00     0.020 A 
HETATM    5  C5  UNL     1      22.372  -1.471  55.137  1.00  0.00     0.002 A 
HETATM    6  C6  UNL     1      23.739  -1.330  55.362  1.00  0.00     0.001 A 
HETATM    7  C7  UNL     1      24.519  -0.655  54.434  1.00  0.00     0.012 A 
HETATM    8  C8  UNL     1      23.966  -0.113  53.276  1.00  0.00    -0.022 A 
ENDROOT
BRANCH   8   9
HETATM    9  C9  UNL     1      24.687   0.527  52.391  1.00  0.00    -0.014 C 
BRANCH   9  10
HETATM   10  C10 UNL     1      25.751   1.489  52.676  1.00  0.00     0.029 C 
BRANCH  10  11
HETATM   11  C11 UNL     1      26.201   2.263  51.430  1.00  0.00     0.018 C 
BRANCH  11  12
HETATM   12  C12 UNL     1      25.069   3.095  50.924  1.00  0.00     0.016 A 
HETATM   13  C13 UNL     1      24.260   3.259  49.778  1.00  0.00     0.033 A 
HETATM   14  C14 UNL     1      23.181   3.866  48.961  1.00  0.00    -0.016 C 
HETATM   15  C17 UNL     1      24.130   4.107  51.049  1.00  0.00     0.098 A 
HETATM   16  C15 UNL     1      22.183   4.287  49.750  1.00  0.00    -0.027 C 
HETATM   17  C16 UNL     1      22.605   3.953  51.170  1.00  0.00     0.064 C 
BRANCH  15  18
HETATM   18  N1  UNL     1      24.460   5.520  50.746  1.00  0.00    -0.199 N 
HETATM   19  N2  UNL     1      25.590   5.922  50.031  1.00  0.00    -0.155 NA
HETATM   20  C18 UNL     1      25.868   7.141  49.774  1.00  0.00     0.091 A 
HETATM   21  C24 UNL     1      24.990   8.193  50.229  1.00  0.00     0.053 A 
HETATM   22  C25 UNL     1      23.926   7.834  50.901  1.00  0.00     0.111 A 
HETATM   23  N4  UNL     1      23.547   6.487  51.229  1.00  0.00    -0.293 N 
HETATM   24  H22 UNL     1      22.684   6.302  51.765  1.00  0.00     0.187 HD
BRANCH  20  25
HETATM   25  C19 UNL     1      27.080   7.426  49.019  1.00  0.00     0.012 A 
HETATM   26  C20 UNL     1      27.687   6.500  48.218  1.00  0.00     0.017 A 
HETATM   27  C21 UNL     1      28.825   6.837  47.537  1.00  0.00     0.020 A 
HETATM   28  C22 UNL     1      29.433   8.095  47.601  1.00  0.00     0.116 A 
HETATM   29  N3  UNL     1      28.809   8.976  48.397  1.00  0.00    -0.272 NA
HETATM   30  C23 UNL     1      27.695   8.656  49.066  1.00  0.00     0.130 A 
ENDBRANCH  20  25
ENDBRANCH  15  18
ENDBRANCH  11  12
ENDBRANCH  10  11
ENDBRANCH   9  10
ENDBRANCH   8   9
TORSDOF 6
ENDMDL
MODEL 7
REMARK VINA RESULT:      -8.4      2.344      6.293
REMARK  6 active torsions:
REMARK  status: ('A' for Active; 'I' for Inactive)
REMARK    1  A    between atoms: C8_8  and  C9_9 
REMARK    2  A    between atoms: C9_9  and  C10_10 
REMARK    3  A    between atoms: C10_10  and  C11_11 
REMARK    4  A    between atoms: C11_11  and  C12_12 
REMARK    5  A    between atoms: C17_17  and  N1_18 
REMARK    6  A    between atoms: C18_20  and  C19_21 
ROOT
HETATM    1  C1  UNL     1      29.752   2.086  54.612  1.00  0.00     0.097 C 
HETATM    2  C2  UNL     1      29.330   0.974  54.103  1.00  0.00    -0.143 C 
HETATM    3  C3  UNL     1      28.850  -0.174  53.651  1.00  0.00     0.015 A 
HETATM    4  C4  UNL     1      29.705  -1.218  53.728  1.00  0.00     0.020 A 
HETATM    5  C5  UNL     1      29.191  -2.431  53.247  1.00  0.00     0.002 A 
HETATM    6  C6  UNL     1      27.895  -2.504  52.741  1.00  0.00     0.001 A 
HETATM    7  C7  UNL     1      27.106  -1.364  52.713  1.00  0.00     0.012 A 
HETATM    8  C8  UNL     1      27.580  -0.140  53.181  1.00  0.00    -0.022 A 
ENDROOT
BRANCH   8   9
HETATM    9  C9  UNL     1      26.849   0.946  53.162  1.00  0.00    -0.014 C 
BRANCH   9  10
HETATM   10  C10 UNL     1      25.895   1.326  52.121  1.00  0.00     0.029 C 
BRANCH  10  11
HETATM   11  C11 UNL     1      26.411   2.460  51.226  1.00  0.00     0.018 C 
BRANCH  11  12
HETATM   12  C12 UNL     1      25.252   3.214  50.659  1.00  0.00     0.016 A 
HETATM   13  C13 UNL     1      24.332   4.226  51.008  1.00  0.00     0.033 A 
HETATM   14  C14 UNL     1      23.190   5.148  50.790  1.00  0.00    -0.016 C 
HETATM   15  C17 UNL     1      24.339   3.500  49.657  1.00  0.00     0.098 A 
HETATM   16  C15 UNL     1      23.116   5.498  49.498  1.00  0.00    -0.027 C 
HETATM   17  C16 UNL     1      24.260   4.779  48.806  1.00  0.00     0.064 C 
BRANCH  15  18
HETATM   18  N1  UNL     1      23.086   2.724  49.498  1.00  0.00    -0.199 N 
HETATM   19  N2  UNL     1      22.514   1.948  50.507  1.00  0.00    -0.155 NA
HETATM   20  C18 UNL     1      21.435   1.282  50.363  1.00  0.00     0.091 A 
HETATM   21  C24 UNL     1      20.736   1.306  49.100  1.00  0.00     0.053 A 
HETATM   22  C25 UNL     1      21.259   2.028  48.142  1.00  0.00     0.111 A 
HETATM   23  N4  UNL     1      22.466   2.803  48.228  1.00  0.00    -0.293 N 
HETATM   24  H22 UNL     1      22.800   3.344  47.415  1.00  0.00     0.187 HD
BRANCH  20  25
HETATM   25  C19 UNL     1      20.945   0.512  51.497  1.00  0.00     0.012 A 
HETATM   26  C20 UNL     1      19.615   0.292  51.723  1.00  0.00     0.017 A 
HETATM   27  C21 UNL     1      19.226  -0.442  52.810  1.00  0.00     0.020 A 
HETATM   28  C22 UNL     1      20.112  -1.000  53.736  1.00  0.00     0.116 A 
HETATM   29  N3  UNL     1      21.407  -0.763  53.482  1.00  0.00    -0.272 NA
HETATM   30  C23 UNL     1      21.798  -0.048  52.421  1.00  0.00     0.130 A 
ENDBRANCH  20  25
ENDBRANCH  15  18
ENDBRANCH  11  12
ENDBRANCH  10  11
ENDBRANCH   9  10
ENDBRANCH   8   9
TORSDOF 6
ENDMDL
MODEL 8
REMARK VINA RESULT:      -8.4      1.863      3.746
REMARK  6 active torsions:
REMARK  status: ('A' for Active; 'I' for Inactive)
REMARK    1  A    between atoms: C8_8  and  C9_9 
REMARK    2  A    between atoms: C9_9  and  C10_10 
REMARK    3  A    between atoms: C10_10  and  C11_11 
REMARK    4  A    between atoms: C11_11  and  C12_12 
REMARK    5  A    between atoms: C17_17  and  N1_18 
REMARK    6  A    between atoms: C18_20  and  C19_21 
ROOT
HETATM    1  C1  UNL     1      21.404   7.073  50.243  1.00  0.00     0.097 C 
HETATM    2  C2  UNL     1      22.301   6.160  50.054  1.00  0.00    -0.143 C 
HETATM    3  C3  UNL     1      23.201   5.196  49.937  1.00  0.00     0.015 A 
HETATM    4  C4  UNL     1      24.486   5.599  50.061  1.00  0.00     0.020 A 
HETATM    5  C5  UNL     1      25.434   4.573  49.936  1.00  0.00     0.002 A 
HETATM    6  C6  UNL     1      25.035   3.259  49.704  1.00  0.00     0.001 A 
HETATM    7  C7  UNL     1      23.684   2.964  49.595  1.00  0.00     0.012 A 
HETATM    8  C8  UNL     1      22.712   3.954  49.713  1.00  0.00    -0.022 A 
ENDROOT
BRANCH   8   9
HETATM    9  C9  UNL     1      21.433   3.692  49.613  1.00  0.00    -0.014 C 
BRANCH   9  10
HETATM   10  C10 UNL     1      20.587   3.105  50.652  1.00  0.00     0.029 C 
BRANCH  10  11
HETATM   11  C11 UNL     1      20.475   1.580  50.536  1.00  0.00     0.018 C 
BRANCH  11  12
HETATM   12  C12 UNL     1      21.173   0.940  51.691  1.00  0.00     0.016 A 
HETATM   13  C13 UNL     1      21.051   0.780  53.089  1.00  0.00     0.033 A 
HETATM   14  C14 UNL     1      21.448   0.296  54.434  1.00  0.00    -0.016 C 
HETATM   15  C17 UNL     1      22.205   0.208  52.257  1.00  0.00     0.098 A 
HETATM   16  C15 UNL     1      22.085  -0.879  54.335  1.00  0.00    -0.027 C 
HETATM   17  C16 UNL     1      22.123  -1.208  52.853  1.00  0.00     0.064 C 
BRANCH  15  18
HETATM   18  N1  UNL     1      23.480   0.842  52.665  1.00  0.00    -0.199 N 
HETATM   19  N2  UNL     1      24.690   0.156  52.784  1.00  0.00    -0.155 NA
HETATM   20  C18 UNL     1      25.786   0.709  53.136  1.00  0.00     0.091 A 
HETATM   21  C24 UNL     1      25.818   2.121  53.437  1.00  0.00     0.053 A 
HETATM   22  C25 UNL     1      24.692   2.779  53.330  1.00  0.00     0.111 A 
HETATM   23  N4  UNL     1      23.422   2.229  52.941  1.00  0.00    -0.293 N 
HETATM   24  H22 UNL     1      22.586   2.831  52.885  1.00  0.00     0.187 HD
BRANCH  20  25
HETATM   25  C19 UNL     1      26.979  -0.121  53.222  1.00  0.00     0.012 A 
HETATM   26  C20 UNL     1      28.206   0.379  53.556  1.00  0.00     0.017 A 
HETATM   27  C21 UNL     1      29.284  -0.460  53.618  1.00  0.00     0.020 A 
HETATM   28  C22 UNL     1      29.225  -1.833  53.356  1.00  0.00     0.116 A 
HETATM   29  N3  UNL     1      28.006  -2.287  53.032  1.00  0.00    -0.272 NA
HETATM   30  C23 UNL     1      26.944  -1.474  52.970  1.00  0.00     0.130 A 
ENDBRANCH  20  25
ENDBRANCH  15  18
ENDBRANCH  11  12
ENDBRANCH  10  11
ENDBRANCH   9  10
ENDBRANCH   8   9
TORSDOF 6
ENDMDL
MODEL 9
REMARK VINA RESULT:      -8.4      4.153      8.470
REMARK  6 active torsions:
REMARK  status: ('A' for Active; 'I' for Inactive)
REMARK    1  A    between atoms: C8_8  and  C9_9 
REMARK    2  A    between atoms: C9_9  and  C10_10 
REMARK    3  A    between atoms: C10_10  and  C11_11 
REMARK    4  A    between atoms: C11_11  and  C12_12 
REMARK    5  A    between atoms: C17_17  and  N1_18 
REMARK    6  A    between atoms: C18_20  and  C19_21 
ROOT
HETATM    1  C1  UNL     1      23.015   3.325  48.809  1.00  0.00     0.097 C 
HETATM    2  C2  UNL     1      23.776   3.107  49.833  1.00  0.00    -0.143 C 
HETATM    3  C3  UNL     1      24.570   2.808  50.849  1.00  0.00     0.015 A 
HETATM    4  C4  UNL     1      23.931   2.551  52.012  1.00  0.00     0.020 A 
HETATM    5  C5  UNL     1      24.777   2.234  53.086  1.00  0.00     0.002 A 
HETATM    6  C6  UNL     1      26.159   2.199  52.916  1.00  0.00     0.001 A 
HETATM    7  C7  UNL     1      26.703   2.481  51.672  1.00  0.00     0.012 A 
HETATM    8  C8  UNL     1      25.897   2.800  50.581  1.00  0.00    -0.022 A 
ENDROOT
BRANCH   8   9
HETATM    9  C9  UNL     1      26.394   3.069  49.400  1.00  0.00    -0.014 C 
BRANCH   9  10
HETATM   10  C10 UNL     1      27.196   4.240  49.047  1.00  0.00     0.029 C 
BRANCH  10  11
HETATM   11  C11 UNL     1      26.406   5.551  49.139  1.00  0.00     0.018 C 
BRANCH  11  12
HETATM   12  C12 UNL     1      27.232   6.670  48.593  1.00  0.00     0.016 A 
HETATM   13  C13 UNL     1      27.623   7.240  47.362  1.00  0.00     0.033 A 
HETATM   14  C14 UNL     1      28.322   8.208  46.481  1.00  0.00    -0.016 C 
HETATM   15  C17 UNL     1      28.078   7.760  48.730  1.00  0.00     0.098 A 
HETATM   16  C15 UNL     1      28.415   9.401  47.086  1.00  0.00    -0.027 C 
HETATM   17  C16 UNL     1      27.750   9.234  48.440  1.00  0.00     0.064 C 
BRANCH  15  18
HETATM   18  N1  UNL     1      29.544   7.598  48.867  1.00  0.00    -0.199 N 
HETATM   19  N2  UNL     1      30.255   6.493  48.396  1.00  0.00    -0.155 NA
HETATM   20  C18 UNL     1      31.519   6.360  48.518  1.00  0.00     0.091 A 
HETATM   21  C24 UNL     1      32.293   7.389  49.172  1.00  0.00     0.053 A 
HETATM   22  C25 UNL     1      31.642   8.432  49.620  1.00  0.00     0.111 A 
HETATM   23  N4  UNL     1      30.225   8.652  49.521  1.00  0.00    -0.293 N 
HETATM   24  H22 UNL     1      29.801   9.511  49.906  1.00  0.00     0.187 HD
BRANCH  20  25
HETATM   25  C19 UNL     1      32.139   5.157  47.983  1.00  0.00     0.012 A 
HETATM   26  C20 UNL     1      31.449   4.231  47.253  1.00  0.00     0.017 A 
HETATM   27  C21 UNL     1      32.096   3.122  46.780  1.00  0.00     0.020 A 
HETATM   28  C22 UNL     1      33.452   2.856  46.995  1.00  0.00     0.116 A 
HETATM   29  N3  UNL     1      34.096   3.786  47.715  1.00  0.00    -0.272 NA
HETATM   30  C23 UNL     1      33.472   4.874  48.181  1.00  0.00     0.130 A 
ENDBRANCH  20  25
ENDBRANCH  15  18
ENDBRANCH  11  12
ENDBRANCH  10  11
ENDBRANCH   9  10
ENDBRANCH   8   9
TORSDOF 6
ENDMDL
