MODEL 1
REMARK VINA RESULT:      -8.0      0.000      0.000
REMARK  5 active torsions:
REMARK  status: ('A' for Active; 'I' for Inactive)
REMARK    1  A    between atoms: C2_2  and  N1_3 
REMARK    2  A    between atoms: N1_3  and  C3_4 
REMARK    3  A    between atoms: C6_7  and  N2_8 
REMARK    4  A    between atoms: N2_8  and  C7_9 
REMARK    5  A    between atoms: C18_23  and  O1_24 
ROOT
HETATM    1  C3  UNL     1      24.137   3.002  50.151  1.00  0.00     0.066 A 
HETATM    2  C4  UNL     1      24.197   2.271  51.336  1.00  0.00     0.048 A 
HETATM    3  C5  UNL     1      23.161   1.404  51.616  1.00  0.00     0.023 A 
HETATM    4  C6  UNL     1      23.211   0.666  52.799  1.00  0.00     0.067 A 
HETATM    5  C13 UNL     1      22.173  -0.204  53.081  1.00  0.00     0.089 A 
HETATM    6  C14 UNL     1      22.233  -0.962  54.303  1.00  0.00     0.103 C 
HETATM    7  N3  UNL     1      22.269  -1.590  55.297  1.00  0.00    -0.191 NA
HETATM    8  C15 UNL     1      21.126  -0.314  52.187  1.00  0.00     0.142 A 
HETATM    9  N4  UNL     1      21.089   0.414  51.035  1.00  0.00    -0.259 NA
HETATM   10  C16 UNL     1      22.100   1.276  50.736  1.00  0.00     0.071 A 
HETATM   11  C17 UNL     1      22.102   2.029  49.582  1.00  0.00     0.071 A 
HETATM   12  C18 UNL     1      23.090   2.906  49.239  1.00  0.00     0.097 A 
ENDROOT
BRANCH   4  13
HETATM   13  N2  UNL     1      24.310   0.831  53.658  1.00  0.00    -0.354 N 
HETATM   14  H6  UNL     1      24.023   1.415  54.468  1.00  0.00     0.166 HD
BRANCH  13  15
HETATM   15  C7  UNL     1      25.602   0.313  53.491  1.00  0.00     0.033 A 
HETATM   16  C8  UNL     1      25.786  -0.931  52.944  1.00  0.00     0.029 A 
HETATM   17  C9  UNL     1      27.073  -1.447  52.778  1.00  0.00     0.004 A 
HETATM   18  C10 UNL     1      28.145  -0.653  53.188  1.00  0.00     0.019 A 
HETATM   19  C11 UNL     1      27.950   0.606  53.741  1.00  0.00     0.013 A 
HETATM   20 BR1  UNL     1      29.427   1.681  54.298  1.00  0.00    -0.051 Br
HETATM   21  C12 UNL     1      26.668   1.090  53.894  1.00  0.00     0.048 A 
ENDBRANCH  13  15
ENDBRANCH   4  13
BRANCH   1  22
HETATM   22  N1  UNL     1      25.230   3.901  49.881  1.00  0.00    -0.364 N 
HETATM   23  H4  UNL     1      24.842   4.859  50.023  1.00  0.00     0.165 HD
BRANCH  22  24
HETATM   24  C2  UNL     1      26.589   3.842  49.503  1.00  0.00     0.078 C 
HETATM   25  C1  UNL     1      27.270   4.741  48.788  1.00  0.00     0.029 C 
ENDBRANCH  22  24
ENDBRANCH   1  22
BRANCH  12  26
HETATM   26  O1  UNL     1      23.082   3.659  48.074  1.00  0.00    -0.354 OA
HETATM   27  C19 UNL     1      22.167   4.735  47.983  1.00  0.00     0.210 C 
ENDBRANCH  12  26
TORSDOF 5
ENDMDL
MODEL 2
REMARK VINA RESULT:      -7.9      3.490      5.775
REMARK  5 active torsions:
REMARK  status: ('A' for Active; 'I' for Inactive)
REMARK    1  A    between atoms: C2_2  and  N1_3 
REMARK    2  A    between atoms: N1_3  and  C3_4 
REMARK    3  A    between atoms: C6_7  and  N2_8 
REMARK    4  A    between atoms: N2_8  and  C7_9 
REMARK    5  A    between atoms: C18_23  and  O1_24 
ROOT
HETATM    1  C3  UNL     1      26.440   1.529  52.062  1.00  0.00     0.066 A 
HETATM    2  C4  UNL     1      25.159   0.981  52.115  1.00  0.00     0.048 A 
HETATM    3  C5  UNL     1      24.811   0.254  53.235  1.00  0.00     0.023 A 
HETATM    4  C6  UNL     1      23.531  -0.298  53.299  1.00  0.00     0.067 A 
HETATM    5  C13 UNL     1      23.181  -1.029  54.421  1.00  0.00     0.089 A 
HETATM    6  C14 UNL     1      21.859  -1.594  54.479  1.00  0.00     0.103 C 
HETATM    7  N3  UNL     1      20.780  -2.060  54.542  1.00  0.00    -0.191 NA
HETATM    8  C15 UNL     1      24.103  -1.186  55.436  1.00  0.00     0.142 A 
HETATM    9  N4  UNL     1      25.351  -0.642  55.361  1.00  0.00    -0.259 NA
HETATM   10  C16 UNL     1      25.719   0.081  54.266  1.00  0.00     0.071 A 
HETATM   11  C17 UNL     1      26.968   0.648  54.150  1.00  0.00     0.071 A 
HETATM   12  C18 UNL     1      27.384   1.380  53.075  1.00  0.00     0.097 A 
ENDROOT
BRANCH   4  13
HETATM   13  N2  UNL     1      22.647  -0.094  52.227  1.00  0.00    -0.354 N 
HETATM   14  H6  UNL     1      22.911  -0.725  51.444  1.00  0.00     0.166 HD
BRANCH  13  15
HETATM   15  C7  UNL     1      21.572   0.803  52.175  1.00  0.00     0.033 A 
HETATM   16  C8  UNL     1      21.752   2.123  52.500  1.00  0.00     0.029 A 
HETATM   17  C9  UNL     1      20.680   3.016  52.449  1.00  0.00     0.004 A 
HETATM   18  C10 UNL     1      19.437   2.513  52.058  1.00  0.00     0.019 A 
HETATM   19  C11 UNL     1      19.263   1.175  51.730  1.00  0.00     0.013 A 
HETATM   20 BR1  UNL     1      17.558   0.502  51.196  1.00  0.00    -0.051 Br
HETATM   21  C12 UNL     1      20.340   0.316  51.790  1.00  0.00     0.048 A 
ENDBRANCH  13  15
ENDBRANCH   4  13
BRANCH   1  22
HETATM   22  N1  UNL     1      26.781   2.283  50.884  1.00  0.00    -0.364 N 
HETATM   23  H4  UNL     1      27.738   1.966  50.620  1.00  0.00     0.165 HD
BRANCH  22  24
HETATM   24  C2  UNL     1      26.211   3.267  50.047  1.00  0.00     0.078 C 
HETATM   25  C1  UNL     1      26.854   4.126  49.253  1.00  0.00     0.029 C 
ENDBRANCH  22  24
ENDBRANCH   1  22
BRANCH  12  26
HETATM   26  O1  UNL     1      28.645   1.946  52.969  1.00  0.00    -0.354 OA
HETATM   27  C19 UNL     1      29.407   2.104  54.151  1.00  0.00     0.210 C 
ENDBRANCH  12  26
TORSDOF 5
ENDMDL
MODEL 3
REMARK VINA RESULT:      -7.8      3.126      5.727
REMARK  5 active torsions:
REMARK  status: ('A' for Active; 'I' for Inactive)
REMARK    1  A    between atoms: C2_2  and  N1_3 
REMARK    2  A    between atoms: N1_3  and  C3_4 
REMARK    3  A    between atoms: C6_7  and  N2_8 
REMARK    4  A    between atoms: N2_8  and  C7_9 
REMARK    5  A    between atoms: C18_23  and  O1_24 
ROOT
HETATM    1  C3  UNL     1      20.325  -0.085  52.348  1.00  0.00     0.066 A 
HETATM    2  C4  UNL     1      21.694   0.177  52.368  1.00  0.00     0.048 A 
HETATM    3  C5  UNL     1      22.439  -0.346  53.405  1.00  0.00     0.023 A 
HETATM    4  C6  UNL     1      23.810  -0.091  53.435  1.00  0.00     0.067 A 
HETATM    5  C13 UNL     1      24.558  -0.614  54.475  1.00  0.00     0.089 A 
HETATM    6  C14 UNL     1      25.972  -0.347  54.497  1.00  0.00     0.103 C 
HETATM    7  N3  UNL     1      27.130  -0.139  54.528  1.00  0.00    -0.191 NA
HETATM    8  C15 UNL     1      23.927  -1.369  55.444  1.00  0.00     0.142 A 
HETATM    9  N4  UNL     1      22.586  -1.609  55.404  1.00  0.00    -0.259 NA
HETATM   10  C16 UNL     1      21.829  -1.105  54.390  1.00  0.00     0.071 A 
HETATM   11  C17 UNL     1      20.472  -1.325  54.311  1.00  0.00     0.071 A 
HETATM   12  C18 UNL     1      19.671  -0.842  53.316  1.00  0.00     0.097 A 
ENDROOT
BRANCH   4  13
HETATM   13  N2  UNL     1      24.381   0.684  52.412  1.00  0.00    -0.354 N 
HETATM   14  H6  UNL     1      25.035   0.093  51.862  1.00  0.00     0.166 HD
BRANCH  13  15
HETATM   15  C7  UNL     1      24.138   2.038  52.139  1.00  0.00     0.033 A 
HETATM   16  C8  UNL     1      24.149   2.963  53.151  1.00  0.00     0.029 A 
HETATM   17  C9  UNL     1      23.907   4.311  52.879  1.00  0.00     0.004 A 
HETATM   18  C10 UNL     1      23.658   4.668  51.552  1.00  0.00     0.019 A 
HETATM   19  C11 UNL     1      23.648   3.725  50.533  1.00  0.00     0.013 A 
HETATM   20 BR1  UNL     1      23.305   4.228  48.723  1.00  0.00    -0.051 Br
HETATM   21  C12 UNL     1      23.890   2.400  50.832  1.00  0.00     0.048 A 
ENDBRANCH  13  15
ENDBRANCH   4  13
BRANCH   1  22
HETATM   22  N1  UNL     1      19.568   0.471  51.256  1.00  0.00    -0.364 N 
HETATM   23  H4  UNL     1      18.595   0.118  51.386  1.00  0.00     0.165 HD
BRANCH  22  24
HETATM   24  C2  UNL     1      19.771   1.306  50.136  1.00  0.00     0.078 C 
HETATM   25  C1  UNL     1      20.744   1.217  49.225  1.00  0.00     0.029 C 
ENDBRANCH  22  24
ENDBRANCH   1  22
BRANCH  12  26
HETATM   26  O1  UNL     1      18.305  -1.070  53.247  1.00  0.00    -0.354 OA
HETATM   27  C19 UNL     1      17.826  -2.355  53.595  1.00  0.00     0.210 C 
ENDBRANCH  12  26
TORSDOF 5
ENDMDL
MODEL 4
REMARK VINA RESULT:      -7.7      3.113      5.691
REMARK  5 active torsions:
REMARK  status: ('A' for Active; 'I' for Inactive)
REMARK    1  A    between atoms: C2_2  and  N1_3 
REMARK    2  A    between atoms: N1_3  and  C3_4 
REMARK    3  A    between atoms: C6_7  and  N2_8 
REMARK    4  A    between atoms: N2_8  and  C7_9 
REMARK    5  A    between atoms: C18_23  and  O1_24 
ROOT
HETATM    1  C3  UNL     1      26.140   1.509  53.764  1.00  0.00     0.066 A 
HETATM    2  C4  UNL     1      24.956   2.089  53.311  1.00  0.00     0.048 A 
HETATM    3  C5  UNL     1      23.869   1.264  53.104  1.00  0.00     0.023 A 
HETATM    4  C6  UNL     1      22.678   1.834  52.651  1.00  0.00     0.067 A 
HETATM    5  C13 UNL     1      21.587   1.009  52.442  1.00  0.00     0.089 A 
HETATM    6  C14 UNL     1      20.363   1.604  51.977  1.00  0.00     0.103 C 
HETATM    7  N3  UNL     1      19.354   2.077  51.598  1.00  0.00    -0.191 NA
HETATM    8  C15 UNL     1      21.711  -0.345  52.687  1.00  0.00     0.142 A 
HETATM    9  N4  UNL     1      22.881  -0.889  53.128  1.00  0.00    -0.259 NA
HETATM   10  C16 UNL     1      23.968  -0.096  53.341  1.00  0.00     0.071 A 
HETATM   11  C17 UNL     1      25.168  -0.604  53.787  1.00  0.00     0.071 A 
HETATM   12  C18 UNL     1      26.284   0.147  54.015  1.00  0.00     0.097 A 
ENDROOT
BRANCH   4  13
HETATM   13  N2  UNL     1      22.629   3.219  52.426  1.00  0.00    -0.354 N 
HETATM   14  H6  UNL     1      22.202   3.683  53.252  1.00  0.00     0.166 HD
BRANCH  13  15
HETATM   15  C7  UNL     1      23.069   3.908  51.287  1.00  0.00     0.033 A 
HETATM   16  C8  UNL     1      23.210   3.254  50.091  1.00  0.00     0.029 A 
HETATM   17  C9  UNL     1      23.649   3.942  48.957  1.00  0.00     0.004 A 
HETATM   18  C10 UNL     1      23.933   5.302  49.095  1.00  0.00     0.019 A 
HETATM   19  C11 UNL     1      23.788   5.957  50.311  1.00  0.00     0.013 A 
HETATM   20 BR1  UNL     1      24.181   7.818  50.485  1.00  0.00    -0.051 Br
HETATM   21  C12 UNL     1      23.353   5.253  51.414  1.00  0.00     0.048 A 
ENDBRANCH  13  15
ENDBRANCH   4  13
BRANCH   1  22
HETATM   22  N1  UNL     1      27.261   2.389  53.973  1.00  0.00    -0.364 N 
HETATM   23  H4  UNL     1      26.904   3.149  54.592  1.00  0.00     0.165 HD
BRANCH  22  24
HETATM   24  C2  UNL     1      28.617   2.495  53.596  1.00  0.00     0.078 C 
HETATM   25  C1  UNL     1      29.689   2.234  54.348  1.00  0.00     0.029 C 
ENDBRANCH  22  24
ENDBRANCH   1  22
BRANCH  12  26
HETATM   26  O1  UNL     1      27.488  -0.376  54.464  1.00  0.00    -0.354 OA
HETATM   27  C19 UNL     1      28.289  -1.090  53.542  1.00  0.00     0.210 C 
ENDBRANCH  12  26
TORSDOF 5
ENDMDL
MODEL 5
REMARK VINA RESULT:      -7.7      2.887      5.307
REMARK  5 active torsions:
REMARK  status: ('A' for Active; 'I' for Inactive)
REMARK    1  A    between atoms: C2_2  and  N1_3 
REMARK    2  A    between atoms: N1_3  and  C3_4 
REMARK    3  A    between atoms: C6_7  and  N2_8 
REMARK    4  A    between atoms: N2_8  and  C7_9 
REMARK    5  A    between atoms: C18_23  and  O1_24 
ROOT
HETATM    1  C3  UNL     1      26.192   2.201  52.061  1.00  0.00     0.066 A 
HETATM    2  C4  UNL     1      24.801   2.112  52.078  1.00  0.00     0.048 A 
HETATM    3  C5  UNL     1      24.225   1.108  52.829  1.00  0.00     0.023 A 
HETATM    4  C6  UNL     1      22.833   1.011  52.854  1.00  0.00     0.067 A 
HETATM    5  C13 UNL     1      22.254   0.004  53.607  1.00  0.00     0.089 A 
HETATM    6  C14 UNL     1      20.818  -0.089  53.628  1.00  0.00     0.103 C 
HETATM    7  N3  UNL     1      19.645  -0.176  53.657  1.00  0.00    -0.191 NA
HETATM    8  C15 UNL     1      23.067  -0.867  54.305  1.00  0.00     0.142 A 
HETATM    9  N4  UNL     1      24.426  -0.761  54.271  1.00  0.00    -0.259 NA
HETATM   10  C16 UNL     1      25.018   0.222  53.538  1.00  0.00     0.071 A 
HETATM   11  C17 UNL     1      26.387   0.365  53.477  1.00  0.00     0.071 A 
HETATM   12  C18 UNL     1      27.028   1.332  52.757  1.00  0.00     0.097 A 
ENDROOT
BRANCH   4  13
HETATM   13  N2  UNL     1      22.072   1.934  52.119  1.00  0.00    -0.354 N 
HETATM   14  H6  UNL     1      21.604   2.588  52.776  1.00  0.00     0.166 HD
BRANCH  13  15
HETATM   15  C7  UNL     1      21.937   2.001  50.726  1.00  0.00     0.033 A 
HETATM   16  C8  UNL     1      21.605   0.882  50.006  1.00  0.00     0.029 A 
HETATM   17  C9  UNL     1      21.470   0.949  48.617  1.00  0.00     0.004 A 
HETATM   18  C10 UNL     1      21.685   2.186  48.006  1.00  0.00     0.019 A 
HETATM   19  C11 UNL     1      22.021   3.314  48.742  1.00  0.00     0.013 A 
HETATM   20 BR1  UNL     1      22.312   5.000  47.892  1.00  0.00    -0.051 Br
HETATM   21  C12 UNL     1      22.148   3.219  50.112  1.00  0.00     0.048 A 
ENDBRANCH  13  15
ENDBRANCH   4  13
BRANCH   1  22
HETATM   22  N1  UNL     1      26.771   3.257  51.271  1.00  0.00    -0.364 N 
HETATM   23  H4  UNL     1      27.376   3.794  51.928  1.00  0.00     0.165 HD
BRANCH  22  24
HETATM   24  C2  UNL     1      26.744   3.729  49.940  1.00  0.00     0.078 C 
HETATM   25  C1  UNL     1      25.831   4.529  49.383  1.00  0.00     0.029 C 
ENDBRANCH  22  24
ENDBRANCH   1  22
BRANCH  12  26
HETATM   26  O1  UNL     1      28.407   1.466  52.703  1.00  0.00    -0.354 OA
HETATM   27  C19 UNL     1      29.160   1.072  53.834  1.00  0.00     0.210 C 
ENDBRANCH  12  26
TORSDOF 5
ENDMDL
MODEL 6
REMARK VINA RESULT:      -7.6      3.243      6.864
REMARK  5 active torsions:
REMARK  status: ('A' for Active; 'I' for Inactive)
REMARK    1  A    between atoms: C2_2  and  N1_3 
REMARK    2  A    between atoms: N1_3  and  C3_4 
REMARK    3  A    between atoms: C6_7  and  N2_8 
REMARK    4  A    between atoms: N2_8  and  C7_9 
REMARK    5  A    between atoms: C18_23  and  O1_24 
ROOT
HETATM    1  C3  UNL     1      25.800  -0.128  53.700  1.00  0.00     0.066 A 
HETATM    2  C4  UNL     1      24.884   0.808  53.222  1.00  0.00     0.048 A 
HETATM    3  C5  UNL     1      25.328   1.741  52.307  1.00  0.00     0.023 A 
HETATM    4  C6  UNL     1      24.419   2.682  51.821  1.00  0.00     0.067 A 
HETATM    5  C13 UNL     1      24.863   3.618  50.905  1.00  0.00     0.089 A 
HETATM    6  C14 UNL     1      23.919   4.584  50.408  1.00  0.00     0.103 C 
HETATM    7  N3  UNL     1      23.158   5.379  49.991  1.00  0.00    -0.191 NA
HETATM    8  C15 UNL     1      26.184   3.592  50.502  1.00  0.00     0.142 A 
HETATM    9  N4  UNL     1      27.061   2.668  50.985  1.00  0.00    -0.259 NA
HETATM   10  C16 UNL     1      26.648   1.736  51.888  1.00  0.00     0.071 A 
HETATM   11  C17 UNL     1      27.501   0.785  52.401  1.00  0.00     0.071 A 
HETATM   12  C18 UNL     1      27.135  -0.169  53.307  1.00  0.00     0.097 A 
ENDROOT
BRANCH   4  13
HETATM   13  N2  UNL     1      23.091   2.644  52.277  1.00  0.00    -0.354 N 
HETATM   14  H6  UNL     1      22.987   3.303  53.074  1.00  0.00     0.166 HD
BRANCH  13  15
HETATM   15  C7  UNL     1      22.044   1.861  51.773  1.00  0.00     0.033 A 
HETATM   16  C8  UNL     1      21.750   1.873  50.434  1.00  0.00     0.029 A 
HETATM   17  C9  UNL     1      20.706   1.093  49.932  1.00  0.00     0.004 A 
HETATM   18  C10 UNL     1      19.988   0.313  50.840  1.00  0.00     0.019 A 
HETATM   19  C11 UNL     1      20.292   0.306  52.195  1.00  0.00     0.013 A 
HETATM   20 BR1  UNL     1      19.300  -0.766  53.426  1.00  0.00    -0.051 Br
HETATM   21  C12 UNL     1      21.328   1.087  52.663  1.00  0.00     0.048 A 
ENDBRANCH  13  15
ENDBRANCH   4  13
BRANCH   1  22
HETATM   22  N1  UNL     1      25.315  -1.091  54.653  1.00  0.00    -0.364 N 
HETATM   23  H4  UNL     1      25.990  -1.885  54.613  1.00  0.00     0.165 HD
BRANCH  22  24
HETATM   24  C2  UNL     1      24.247  -1.243  55.565  1.00  0.00     0.078 C 
HETATM   25  C1  UNL     1      22.947  -1.342  55.280  1.00  0.00     0.029 C 
ENDBRANCH  22  24
ENDBRANCH   1  22
BRANCH  12  26
HETATM   26  O1  UNL     1      28.004  -1.122  53.816  1.00  0.00    -0.354 OA
HETATM   27  C19 UNL     1      29.391  -0.842  53.790  1.00  0.00     0.210 C 
ENDBRANCH  12  26
TORSDOF 5
ENDMDL
MODEL 7
REMARK VINA RESULT:      -7.5      2.174      3.001
REMARK  5 active torsions:
REMARK  status: ('A' for Active; 'I' for Inactive)
REMARK    1  A    between atoms: C2_2  and  N1_3 
REMARK    2  A    between atoms: N1_3  and  C3_4 
REMARK    3  A    between atoms: C6_7  and  N2_8 
REMARK    4  A    between atoms: N2_8  and  C7_9 
REMARK    5  A    between atoms: C18_23  and  O1_24 
ROOT
HETATM    1  C3  UNL     1      26.151   4.493  49.301  1.00  0.00     0.066 A 
HETATM    2  C4  UNL     1      26.103   3.338  50.080  1.00  0.00     0.048 A 
HETATM    3  C5  UNL     1      24.972   3.115  50.839  1.00  0.00     0.023 A 
HETATM    4  C6  UNL     1      24.913   1.962  51.622  1.00  0.00     0.067 A 
HETATM    5  C13 UNL     1      23.779   1.737  52.383  1.00  0.00     0.089 A 
HETATM    6  C14 UNL     1      23.726   0.545  53.188  1.00  0.00     0.103 C 
HETATM    7  N3  UNL     1      23.667  -0.427  53.849  1.00  0.00    -0.191 NA
HETATM    8  C15 UNL     1      22.748   2.655  52.343  1.00  0.00     0.142 A 
HETATM    9  N4  UNL     1      22.820   3.778  51.574  1.00  0.00    -0.259 NA
HETATM   10  C16 UNL     1      23.925   4.021  50.816  1.00  0.00     0.071 A 
HETATM   11  C17 UNL     1      24.038   5.142  50.024  1.00  0.00     0.071 A 
HETATM   12  C18 UNL     1      25.123   5.430  49.248  1.00  0.00     0.097 A 
ENDROOT
BRANCH   4  13
HETATM   13  N2  UNL     1      26.001   1.074  51.610  1.00  0.00    -0.354 N 
HETATM   14  H6  UNL     1      25.859   0.373  50.856  1.00  0.00     0.166 HD
BRANCH  13  15
HETATM   15  C7  UNL     1      27.117   1.091  52.457  1.00  0.00     0.033 A 
HETATM   16  C8  UNL     1      27.512   2.255  53.063  1.00  0.00     0.029 A 
HETATM   17  C9  UNL     1      28.625   2.271  53.907  1.00  0.00     0.004 A 
HETATM   18  C10 UNL     1      29.305   1.068  54.102  1.00  0.00     0.019 A 
HETATM   19  C11 UNL     1      28.899  -0.107  53.485  1.00  0.00     0.013 A 
HETATM   20 BR1  UNL     1      29.840  -1.746  53.761  1.00  0.00    -0.051 Br
HETATM   21  C12 UNL     1      27.797  -0.094  52.656  1.00  0.00     0.048 A 
ENDBRANCH  13  15
ENDBRANCH   4  13
BRANCH   1  22
HETATM   22  N1  UNL     1      27.341   4.705  48.518  1.00  0.00    -0.364 N 
HETATM   23  H4  UNL     1      27.273   4.033  47.723  1.00  0.00     0.165 HD
BRANCH  22  24
HETATM   24  C2  UNL     1      28.495   5.518  48.532  1.00  0.00     0.078 C 
HETATM   25  C1  UNL     1      28.730   6.603  47.790  1.00  0.00     0.029 C 
ENDBRANCH  22  24
ENDBRANCH   1  22
BRANCH  12  26
HETATM   26  O1  UNL     1      25.225   6.563  48.454  1.00  0.00    -0.354 OA
HETATM   27  C19 UNL     1      25.399   7.812  49.096  1.00  0.00     0.210 C 
ENDBRANCH  12  26
TORSDOF 5
ENDMDL
MODEL 8
REMARK VINA RESULT:      -7.2      2.895      5.370
REMARK  5 active torsions:
REMARK  status: ('A' for Active; 'I' for Inactive)
REMARK    1  A    between atoms: C2_2  and  N1_3 
REMARK    2  A    between atoms: N1_3  and  C3_4 
REMARK    3  A    between atoms: C6_7  and  N2_8 
REMARK    4  A    between atoms: N2_8  and  C7_9 
REMARK    5  A    between atoms: C18_23  and  O1_24 
ROOT
HETATM    1  C3  UNL     1      21.077   1.736  51.686  1.00  0.00     0.066 A 
HETATM    2  C4  UNL     1      22.321   2.297  51.970  1.00  0.00     0.048 A 
HETATM    3  C5  UNL     1      23.266   1.502  52.586  1.00  0.00     0.023 A 
HETATM    4  C6  UNL     1      24.515   2.054  52.874  1.00  0.00     0.067 A 
HETATM    5  C13 UNL     1      25.463   1.258  53.493  1.00  0.00     0.089 A 
HETATM    6  C14 UNL     1      26.749   1.834  53.785  1.00  0.00     0.103 C 
HETATM    7  N3  UNL     1      27.806   2.290  54.028  1.00  0.00    -0.191 NA
HETATM    8  C15 UNL     1      25.145  -0.050  53.803  1.00  0.00     0.142 A 
HETATM    9  N4  UNL     1      23.920  -0.576  53.517  1.00  0.00    -0.259 NA
HETATM   10  C16 UNL     1      22.971   0.188  52.908  1.00  0.00     0.071 A 
HETATM   11  C17 UNL     1      21.722  -0.304  52.601  1.00  0.00     0.071 A 
HETATM   12  C18 UNL     1      20.738   0.421  51.993  1.00  0.00     0.097 A 
ENDROOT
BRANCH   4  13
HETATM   13  N2  UNL     1      24.765   3.391  52.527  1.00  0.00    -0.354 N 
HETATM   14  H6  UNL     1      24.556   3.999  53.343  1.00  0.00     0.166 HD
BRANCH  13  15
HETATM   15  C7  UNL     1      25.222   3.875  51.293  1.00  0.00     0.033 A 
HETATM   16  C8  UNL     1      26.273   3.269  50.655  1.00  0.00     0.029 A 
HETATM   17  C9  UNL     1      26.728   3.751  49.426  1.00  0.00     0.004 A 
HETATM   18  C10 UNL     1      26.074   4.860  48.885  1.00  0.00     0.019 A 
HETATM   19  C11 UNL     1      25.010   5.468  49.537  1.00  0.00     0.013 A 
HETATM   20 BR1  UNL     1      24.125   6.984  48.785  1.00  0.00    -0.051 Br
HETATM   21  C12 UNL     1      24.582   4.971  50.750  1.00  0.00     0.048 A 
ENDBRANCH  13  15
ENDBRANCH   4  13
BRANCH   1  22
HETATM   22  N1  UNL     1      20.108   2.585  51.043  1.00  0.00    -0.364 N 
HETATM   23  H4  UNL     1      19.506   1.942  50.484  1.00  0.00     0.165 HD
BRANCH  22  24
HETATM   24  C2  UNL     1      19.774   3.954  50.969  1.00  0.00     0.078 C 
HETATM   25  C1  UNL     1      20.539   4.952  50.519  1.00  0.00     0.029 C 
ENDBRANCH  22  24
ENDBRANCH   1  22
BRANCH  12  26
HETATM   26  O1  UNL     1      19.483  -0.085  51.688  1.00  0.00    -0.354 OA
HETATM   27  C19 UNL     1      18.677  -0.553  52.753  1.00  0.00     0.210 C 
ENDBRANCH  12  26
TORSDOF 5
ENDMDL
MODEL 9
REMARK VINA RESULT:      -7.1      6.516     10.035
REMARK  5 active torsions:
REMARK  status: ('A' for Active; 'I' for Inactive)
REMARK    1  A    between atoms: C2_2  and  N1_3 
REMARK    2  A    between atoms: N1_3  and  C3_4 
REMARK    3  A    between atoms: C6_7  and  N2_8 
REMARK    4  A    between atoms: N2_8  and  C7_9 
REMARK    5  A    between atoms: C18_23  and  O1_24 
ROOT
HETATM    1  C3  UNL     1      31.897   5.700  47.312  1.00  0.00     0.066 A 
HETATM    2  C4  UNL     1      30.612   6.197  47.526  1.00  0.00     0.048 A 
HETATM    3  C5  UNL     1      30.482   7.373  48.237  1.00  0.00     0.023 A 
HETATM    4  C6  UNL     1      29.200   7.879  48.457  1.00  0.00     0.067 A 
HETATM    5  C13 UNL     1      29.068   9.058  49.170  1.00  0.00     0.089 A 
HETATM    6  C14 UNL     1      27.743   9.574  49.392  1.00  0.00     0.103 C 
HETATM    7  N3  UNL     1      26.666  10.009  49.578  1.00  0.00    -0.191 NA
HETATM    8  C15 UNL     1      30.202   9.692  49.638  1.00  0.00     0.142 A 
HETATM    9  N4  UNL     1      31.448   9.185  49.417  1.00  0.00    -0.259 NA
HETATM   10  C16 UNL     1      31.603   8.027  48.717  1.00  0.00     0.071 A 
HETATM   11  C17 UNL     1      32.844   7.482  48.471  1.00  0.00     0.071 A 
HETATM   12  C18 UNL     1      33.051   6.324  47.777  1.00  0.00     0.097 A 
ENDROOT
BRANCH   4  13
HETATM   13  N2  UNL     1      28.094   7.178  47.949  1.00  0.00    -0.354 N 
HETATM   14  H6  UNL     1      27.917   7.485  46.972  1.00  0.00     0.166 HD
BRANCH  13  15
HETATM   15  C7  UNL     1      27.324   6.214  48.613  1.00  0.00     0.033 A 
HETATM   16  C8  UNL     1      27.696   4.894  48.594  1.00  0.00     0.029 A 
HETATM   17  C9  UNL     1      26.928   3.934  49.256  1.00  0.00     0.004 A 
HETATM   18  C10 UNL     1      25.784   4.371  49.927  1.00  0.00     0.019 A 
HETATM   19  C11 UNL     1      25.414   5.709  49.941  1.00  0.00     0.013 A 
HETATM   20 BR1  UNL     1      23.846   6.293  50.863  1.00  0.00    -0.051 Br
HETATM   21  C12 UNL     1      26.191   6.636  49.278  1.00  0.00     0.048 A 
ENDBRANCH  13  15
ENDBRANCH   4  13
BRANCH   1  22
HETATM   22  N1  UNL     1      32.008   4.473  46.568  1.00  0.00    -0.364 N 
HETATM   23  H4  UNL     1      31.856   4.738  45.571  1.00  0.00     0.165 HD
BRANCH  22  24
HETATM   24  C2  UNL     1      32.250   3.102  46.804  1.00  0.00     0.078 C 
HETATM   25  C1  UNL     1      33.037   2.569  47.743  1.00  0.00     0.029 C 
ENDBRANCH  22  24
ENDBRANCH   1  22
BRANCH  12  26
HETATM   26  O1  UNL     1      34.305   5.784  47.535  1.00  0.00    -0.354 OA
HETATM   27  C19 UNL     1      35.127   5.483  48.647  1.00  0.00     0.210 C 
ENDBRANCH  12  26
TORSDOF 5
ENDMDL
