MODEL 1
REMARK VINA RESULT:      -8.3      0.000      0.000
REMARK  8 active torsions:
REMARK  status: ('A' for Active; 'I' for Inactive)
REMARK    1  A    between atoms: C4_6  and  N3_7 
REMARK    2  A    between atoms: C7_11  and  O1_12 
REMARK    3  A    between atoms: O1_12  and  C8_13 
REMARK    4  A    between atoms: C12_18  and  C13_19 
REMARK    5  A    between atoms: C14_20  and  C15_21 
REMARK    6  A    between atoms: C18_24  and  C19_25 
REMARK    7  A    between atoms: C19_25  and  N5_26 
REMARK    8  A    between atoms: N5_26  and  C20_27 
ROOT
HETATM    1  C8  UNL     1      27.991   0.883  54.408  1.00  0.00     0.299 C 
HETATM    2  C9  UNL     1      28.675   1.953  53.684  1.00  0.00     0.085 C 
HETATM    3  N4  UNL     1      29.205   2.791  53.118  1.00  0.00    -0.195 NA
ENDROOT
BRANCH   1   4
HETATM    4  O1  UNL     1      26.671   1.299  54.742  1.00  0.00    -0.336 OA
BRANCH   4   5
HETATM    5  C7  UNL     1      25.695   1.458  53.768  1.00  0.00     0.090 A 
HETATM    6  C6  UNL     1      25.283   0.381  52.856  1.00  0.00     0.082 A 
HETATM    7  C5  UNL     1      24.344   0.590  51.944  1.00  0.00     0.119 A 
HETATM    8 CL1  UNL     1      26.088  -1.161  53.044  1.00  0.00    -0.080 Cl
HETATM    9  N3  UNL     1      23.692   1.866  51.803  1.00  0.00    -0.335 N 
HETATM   10  C11 UNL     1      24.031   2.975  52.653  1.00  0.00     0.160 A 
HETATM   11  C10 UNL     1      25.090   2.609  53.625  1.00  0.00     0.032 A 
BRANCH   9  12
HETATM   12  C4  UNL     1      22.730   1.851  50.763  1.00  0.00     0.152 A 
HETATM   13  N2  UNL     1      21.679   1.047  51.012  1.00  0.00    -0.223 NA
HETATM   14  C3  UNL     1      20.679   0.927  50.109  1.00  0.00     0.235 A 
HETATM   15  N1  UNL     1      20.695   1.605  48.929  1.00  0.00    -0.245 NA
HETATM   16  C2  UNL     1      21.732   2.414  48.654  1.00  0.00     0.054 A 
HETATM   17  C1  UNL     1      21.778   3.163  47.384  1.00  0.00     0.072 C 
HETATM   18  C12 UNL     1      22.735   2.532  49.566  1.00  0.00     0.088 A 
BRANCH  18  19
HETATM   19  C13 UNL     1      23.872   3.379  49.346  1.00  0.00    -0.055 C 
HETATM   20  C14 UNL     1      24.821   4.112  49.158  1.00  0.00    -0.061 C 
BRANCH  20  21
HETATM   21  C15 UNL     1      25.952   4.971  48.933  1.00  0.00     0.018 A 
HETATM   22  C16 UNL     1      27.220   4.402  48.816  1.00  0.00     0.021 A 
HETATM   23  C17 UNL     1      28.353   5.164  48.598  1.00  0.00     0.010 A 
HETATM   24  C18 UNL     1      28.268   6.537  48.489  1.00  0.00    -0.041 A 
HETATM   25  C23 UNL     1      26.988   7.097  48.608  1.00  0.00     0.010 A 
HETATM   26  C24 UNL     1      25.852   6.343  48.826  1.00  0.00     0.021 A 
BRANCH  24  27
HETATM   27  C19 UNL     1      29.362   7.511  48.255  1.00  0.00     0.153 C 
BRANCH  27  28
HETATM   28  N5  UNL     1      29.616   8.374  49.348  1.00  0.00    -0.414 N 
HETATM   29  H15 UNL     1      30.029   7.952  50.180  1.00  0.00     0.153 HD
BRANCH  28  30
HETATM   30  C20 UNL     1      30.051   9.701  49.027  1.00  0.00     0.068 C 
HETATM   31  C21 UNL     1      28.945  10.701  48.968  1.00  0.00     0.031 C 
HETATM   32  C22 UNL     1      30.801   9.732  47.712  1.00  0.00     0.031 C 
ENDBRANCH  28  30
ENDBRANCH  27  28
ENDBRANCH  24  27
ENDBRANCH  20  21
ENDBRANCH  18  19
ENDBRANCH   9  12
ENDBRANCH   4   5
ENDBRANCH   1   4
TORSDOF 8
ENDMDL
MODEL 2
REMARK VINA RESULT:      -8.2      1.676      2.243
REMARK  8 active torsions:
REMARK  status: ('A' for Active; 'I' for Inactive)
REMARK    1  A    between atoms: C4_6  and  N3_7 
REMARK    2  A    between atoms: C7_11  and  O1_12 
REMARK    3  A    between atoms: O1_12  and  C8_13 
REMARK    4  A    between atoms: C12_18  and  C13_19 
REMARK    5  A    between atoms: C14_20  and  C15_21 
REMARK    6  A    between atoms: C18_24  and  C19_25 
REMARK    7  A    between atoms: C19_25  and  N5_26 
REMARK    8  A    between atoms: N5_26  and  C20_27 
ROOT
HETATM    1  C8  UNL     1      27.782   0.214  54.971  1.00  0.00     0.299 C 
HETATM    2  C9  UNL     1      29.015   0.197  54.186  1.00  0.00     0.085 C 
HETATM    3  N4  UNL     1      29.977   0.182  53.571  1.00  0.00    -0.195 NA
ENDROOT
BRANCH   1   4
HETATM    4  O1  UNL     1      26.850  -0.710  54.418  1.00  0.00    -0.336 OA
BRANCH   4   5
HETATM    5  C7  UNL     1      25.718  -0.277  53.741  1.00  0.00     0.090 A 
HETATM    6  C6  UNL     1      24.350  -0.548  54.205  1.00  0.00     0.082 A 
HETATM    7  C5  UNL     1      23.304  -0.110  53.518  1.00  0.00     0.119 A 
HETATM    8 CL1  UNL     1      24.187  -1.462  55.688  1.00  0.00    -0.080 Cl
HETATM    9  N3  UNL     1      23.457   0.641  52.298  1.00  0.00    -0.335 N 
HETATM   10  C11 UNL     1      24.758   0.952  51.772  1.00  0.00     0.160 A 
HETATM   11  C10 UNL     1      25.835   0.407  52.632  1.00  0.00     0.032 A 
BRANCH   9  12
HETATM   12  C4  UNL     1      22.203   0.997  51.743  1.00  0.00     0.152 A 
HETATM   13  N2  UNL     1      21.179   0.252  52.199  1.00  0.00    -0.223 NA
HETATM   14  C3  UNL     1      19.919   0.475  51.756  1.00  0.00     0.235 A 
HETATM   15  N1  UNL     1      19.642   1.447  50.845  1.00  0.00    -0.245 NA
HETATM   16  C2  UNL     1      20.645   2.205  50.373  1.00  0.00     0.054 A 
HETATM   17  C1  UNL     1      20.376   3.268  49.385  1.00  0.00     0.072 C 
HETATM   18  C12 UNL     1      21.910   1.978  50.821  1.00  0.00     0.088 A 
BRANCH  18  19
HETATM   19  C13 UNL     1      23.032   2.749  50.367  1.00  0.00    -0.055 C 
HETATM   20  C14 UNL     1      23.981   3.390  49.965  1.00  0.00    -0.061 C 
BRANCH  20  21
HETATM   21  C15 UNL     1      25.108   4.152  49.499  1.00  0.00     0.018 A 
HETATM   22  C16 UNL     1      24.912   5.478  49.110  1.00  0.00     0.021 A 
HETATM   23  C17 UNL     1      25.946   6.273  48.652  1.00  0.00     0.010 A 
HETATM   24  C18 UNL     1      27.230   5.774  48.561  1.00  0.00    -0.041 A 
HETATM   25  C23 UNL     1      27.413   4.442  48.954  1.00  0.00     0.010 A 
HETATM   26  C24 UNL     1      26.386   3.641  49.412  1.00  0.00     0.021 A 
BRANCH  24  27
HETATM   27  C19 UNL     1      28.456   6.471  48.100  1.00  0.00     0.153 C 
BRANCH  27  28
HETATM   28  N5  UNL     1      29.612   6.177  48.862  1.00  0.00    -0.414 N 
HETATM   29  H15 UNL     1      29.815   5.191  49.026  1.00  0.00     0.153 HD
BRANCH  28  30
HETATM   30  C20 UNL     1      30.743   7.034  48.662  1.00  0.00     0.068 C 
HETATM   31  C21 UNL     1      31.933   6.665  49.483  1.00  0.00     0.031 C 
HETATM   32  C22 UNL     1      30.394   8.481  48.938  1.00  0.00     0.031 C 
ENDBRANCH  28  30
ENDBRANCH  27  28
ENDBRANCH  24  27
ENDBRANCH  20  21
ENDBRANCH  18  19
ENDBRANCH   9  12
ENDBRANCH   4   5
ENDBRANCH   1   4
TORSDOF 8
ENDMDL
MODEL 3
REMARK VINA RESULT:      -8.1      4.438      7.648
REMARK  8 active torsions:
REMARK  status: ('A' for Active; 'I' for Inactive)
REMARK    1  A    between atoms: C4_6  and  N3_7 
REMARK    2  A    between atoms: C7_11  and  O1_12 
REMARK    3  A    between atoms: O1_12  and  C8_13 
REMARK    4  A    between atoms: C12_18  and  C13_19 
REMARK    5  A    between atoms: C14_20  and  C15_21 
REMARK    6  A    between atoms: C18_24  and  C19_25 
REMARK    7  A    between atoms: C19_25  and  N5_26 
REMARK    8  A    between atoms: N5_26  and  C20_27 
ROOT
HETATM    1  C8  UNL     1      23.474   4.725  48.699  1.00  0.00     0.299 C 
HETATM    2  C9  UNL     1      23.601   5.328  50.024  1.00  0.00     0.085 C 
HETATM    3  N4  UNL     1      23.697   5.799  51.059  1.00  0.00    -0.195 NA
ENDROOT
BRANCH   1   4
HETATM    4  O1  UNL     1      22.098   4.646  48.339  1.00  0.00    -0.336 OA
BRANCH   4   5
HETATM    5  C7  UNL     1      21.260   3.686  48.889  1.00  0.00     0.090 A 
HETATM    6  C6  UNL     1      20.098   4.015  49.727  1.00  0.00     0.082 A 
HETATM    7  C5  UNL     1      19.332   3.056  50.226  1.00  0.00     0.119 A 
HETATM    8 CL1  UNL     1      19.793   5.713  50.017  1.00  0.00    -0.080 Cl
HETATM    9  N3  UNL     1      19.598   1.663  49.976  1.00  0.00    -0.335 N 
HETATM   10  C11 UNL     1      20.713   1.250  49.167  1.00  0.00     0.160 A 
HETATM   11  C10 UNL     1      21.485   2.415  48.673  1.00  0.00     0.032 A 
BRANCH   9  12
HETATM   12  C4  UNL     1      18.649   0.826  50.614  1.00  0.00     0.152 A 
HETATM   13  N2  UNL     1      17.420   0.891  50.069  1.00  0.00    -0.223 NA
HETATM   14  C3  UNL     1      16.407   0.148  50.573  1.00  0.00     0.235 A 
HETATM   15  N1  UNL     1      16.588  -0.682  51.636  1.00  0.00    -0.245 NA
HETATM   16  C2  UNL     1      17.805  -0.767  52.199  1.00  0.00     0.054 A 
HETATM   17  C1  UNL     1      18.033  -1.659  53.352  1.00  0.00     0.072 C 
HETATM   18  C12 UNL     1      18.820  -0.019  51.688  1.00  0.00     0.088 A 
BRANCH  18  19
HETATM   19  C13 UNL     1      20.147  -0.058  52.233  1.00  0.00    -0.055 C 
HETATM   20  C14 UNL     1      21.277  -0.098  52.675  1.00  0.00    -0.061 C 
BRANCH  20  21
HETATM   21  C15 UNL     1      22.612  -0.144  53.208  1.00  0.00     0.018 A 
HETATM   22  C16 UNL     1      23.611   0.614  52.596  1.00  0.00     0.021 A 
HETATM   23  C17 UNL     1      24.916   0.620  53.053  1.00  0.00     0.010 A 
HETATM   24  C18 UNL     1      25.282  -0.136  54.147  1.00  0.00    -0.041 A 
HETATM   25  C23 UNL     1      24.270  -0.893  54.753  1.00  0.00     0.010 A 
HETATM   26  C24 UNL     1      22.964  -0.905  54.304  1.00  0.00     0.021 A 
BRANCH  24  27
HETATM   27  C19 UNL     1      26.620  -0.253  54.778  1.00  0.00     0.153 C 
BRANCH  27  28
HETATM   28  N5  UNL     1      27.258   0.986  55.022  1.00  0.00    -0.414 N 
HETATM   29  H15 UNL     1      27.195   1.357  55.970  1.00  0.00     0.153 HD
BRANCH  28  30
HETATM   30  C20 UNL     1      28.493   1.215  54.332  1.00  0.00     0.068 C 
HETATM   31  C21 UNL     1      28.393   2.217  53.230  1.00  0.00     0.031 C 
HETATM   32  C22 UNL     1      29.055  -0.072  53.764  1.00  0.00     0.031 C 
ENDBRANCH  28  30
ENDBRANCH  27  28
ENDBRANCH  24  27
ENDBRANCH  20  21
ENDBRANCH  18  19
ENDBRANCH   9  12
ENDBRANCH   4   5
ENDBRANCH   1   4
TORSDOF 8
ENDMDL
MODEL 4
REMARK VINA RESULT:      -8.0      4.660      7.999
REMARK  8 active torsions:
REMARK  status: ('A' for Active; 'I' for Inactive)
REMARK    1  A    between atoms: C4_6  and  N3_7 
REMARK    2  A    between atoms: C7_11  and  O1_12 
REMARK    3  A    between atoms: O1_12  and  C8_13 
REMARK    4  A    between atoms: C12_18  and  C13_19 
REMARK    5  A    between atoms: C14_20  and  C15_21 
REMARK    6  A    between atoms: C18_24  and  C19_25 
REMARK    7  A    between atoms: C19_25  and  N5_26 
REMARK    8  A    between atoms: N5_26  and  C20_27 
ROOT
HETATM    1  C8  UNL     1      22.591   4.998  50.126  1.00  0.00     0.299 C 
HETATM    2  C9  UNL     1      22.660   6.458  50.127  1.00  0.00     0.085 C 
HETATM    3  N4  UNL     1      22.709   7.599  50.127  1.00  0.00    -0.195 NA
ENDROOT
BRANCH   1   4
HETATM    4  O1  UNL     1      21.398   4.575  49.474  1.00  0.00    -0.336 OA
BRANCH   4   5
HETATM    5  C7  UNL     1      20.559   3.627  50.045  1.00  0.00     0.090 A 
HETATM    6  C6  UNL     1      20.461   2.243  49.561  1.00  0.00     0.082 A 
HETATM    7  C5  UNL     1      19.642   1.380  50.144  1.00  0.00     0.119 A 
HETATM    8 CL1  UNL     1      21.470   1.811  48.197  1.00  0.00    -0.080 Cl
HETATM    9  N3  UNL     1      18.818   1.752  51.265  1.00  0.00    -0.335 N 
HETATM   10  C11 UNL     1      18.851   3.084  51.805  1.00  0.00     0.160 A 
HETATM   11  C10 UNL     1      19.804   3.945  51.064  1.00  0.00     0.032 A 
BRANCH   9  12
HETATM   12  C4  UNL     1      18.027   0.667  51.717  1.00  0.00     0.152 A 
HETATM   13  N2  UNL     1      16.745   0.728  51.310  1.00  0.00    -0.223 NA
HETATM   14  C3  UNL     1      15.867  -0.239  51.665  1.00  0.00     0.235 A 
HETATM   15  N1  UNL     1      16.240  -1.296  52.438  1.00  0.00    -0.245 NA
HETATM   16  C2  UNL     1      17.513  -1.381  52.858  1.00  0.00     0.054 A 
HETATM   17  C1  UNL     1      17.948  -2.515  53.696  1.00  0.00     0.072 C 
HETATM   18  C12 UNL     1      18.392  -0.407  52.498  1.00  0.00     0.088 A 
BRANCH  18  19
HETATM   19  C13 UNL     1      19.768  -0.431  52.904  1.00  0.00    -0.055 C 
HETATM   20  C14 UNL     1      20.926  -0.446  53.267  1.00  0.00    -0.061 C 
BRANCH  20  21
HETATM   21  C15 UNL     1      22.302  -0.463  53.687  1.00  0.00     0.018 A 
HETATM   22  C16 UNL     1      22.645  -1.153  54.850  1.00  0.00     0.021 A 
HETATM   23  C17 UNL     1      23.945  -1.214  55.315  1.00  0.00     0.010 A 
HETATM   24  C18 UNL     1      24.966  -0.583  54.634  1.00  0.00    -0.041 A 
HETATM   25  C23 UNL     1      24.609   0.107  53.468  1.00  0.00     0.010 A 
HETATM   26  C24 UNL     1      23.313   0.173  52.996  1.00  0.00     0.021 A 
BRANCH  24  27
HETATM   27  C19 UNL     1      26.410  -0.540  54.975  1.00  0.00     0.153 C 
BRANCH  27  28
HETATM   28  N5  UNL     1      27.003   0.737  54.833  1.00  0.00    -0.414 N 
HETATM   29  H15 UNL     1      26.607   1.492  55.394  1.00  0.00     0.153 HD
BRANCH  28  30
HETATM   30  C20 UNL     1      28.423   0.764  54.644  1.00  0.00     0.068 C 
HETATM   31  C21 UNL     1      28.911   1.966  53.906  1.00  0.00     0.031 C 
HETATM   32  C22 UNL     1      28.907  -0.476  53.922  1.00  0.00     0.031 C 
ENDBRANCH  28  30
ENDBRANCH  27  28
ENDBRANCH  24  27
ENDBRANCH  20  21
ENDBRANCH  18  19
ENDBRANCH   9  12
ENDBRANCH   4   5
ENDBRANCH   1   4
TORSDOF 8
ENDMDL
MODEL 5
REMARK VINA RESULT:      -7.8      3.298      5.770
REMARK  8 active torsions:
REMARK  status: ('A' for Active; 'I' for Inactive)
REMARK    1  A    between atoms: C4_6  and  N3_7 
REMARK    2  A    between atoms: C7_11  and  O1_12 
REMARK    3  A    between atoms: O1_12  and  C8_13 
REMARK    4  A    between atoms: C12_18  and  C13_19 
REMARK    5  A    between atoms: C14_20  and  C15_21 
REMARK    6  A    between atoms: C18_24  and  C19_25 
REMARK    7  A    between atoms: C19_25  and  N5_26 
REMARK    8  A    between atoms: N5_26  and  C20_27 
ROOT
HETATM    1  C8  UNL     1      19.411   4.020  47.246  1.00  0.00     0.299 C 
HETATM    2  C9  UNL     1      20.089   5.207  47.764  1.00  0.00     0.085 C 
HETATM    3  N4  UNL     1      20.619   6.133  48.172  1.00  0.00    -0.195 NA
ENDROOT
BRANCH   1   4
HETATM    4  O1  UNL     1      18.841   3.286  48.325  1.00  0.00    -0.336 OA
BRANCH   4   5
HETATM    5  C7  UNL     1      19.635   2.580  49.219  1.00  0.00     0.090 A 
HETATM    6  C6  UNL     1      19.564   2.761  50.676  1.00  0.00     0.082 A 
HETATM    7  C5  UNL     1      20.347   2.060  51.483  1.00  0.00     0.119 A 
HETATM    8 CL1  UNL     1      18.408   3.934  51.269  1.00  0.00    -0.080 Cl
HETATM    9  N3  UNL     1      21.293   1.099  50.977  1.00  0.00    -0.335 N 
HETATM   10  C11 UNL     1      21.428   0.856  49.566  1.00  0.00     0.160 A 
HETATM   11  C10 UNL     1      20.499   1.703  48.780  1.00  0.00     0.032 A 
BRANCH   9  12
HETATM   12  C4  UNL     1      22.017   0.476  52.024  1.00  0.00     0.152 A 
HETATM   13  N2  UNL     1      21.310  -0.456  52.689  1.00  0.00    -0.223 NA
HETATM   14  C3  UNL     1      21.869  -1.135  53.718  1.00  0.00     0.235 A 
HETATM   15  N1  UNL     1      23.150  -0.906  54.115  1.00  0.00    -0.245 NA
HETATM   16  C2  UNL     1      23.879   0.019  53.468  1.00  0.00     0.054 A 
HETATM   17  C1  UNL     1      25.272   0.289  53.874  1.00  0.00     0.072 C 
HETATM   18  C12 UNL     1      23.313   0.698  52.434  1.00  0.00     0.088 A 
BRANCH  18  19
HETATM   19  C13 UNL     1      24.029   1.697  51.693  1.00  0.00    -0.055 C 
HETATM   20  C14 UNL     1      24.648   2.544  51.082  1.00  0.00    -0.061 C 
BRANCH  20  21
HETATM   21  C15 UNL     1      25.373   3.548  50.351  1.00  0.00     0.018 A 
HETATM   22  C16 UNL     1      24.866   4.847  50.305  1.00  0.00     0.021 A 
HETATM   23  C17 UNL     1      25.508   5.865  49.623  1.00  0.00     0.010 A 
HETATM   24  C18 UNL     1      26.690   5.628  48.954  1.00  0.00    -0.041 A 
HETATM   25  C23 UNL     1      27.189   4.319  49.008  1.00  0.00     0.010 A 
HETATM   26  C24 UNL     1      26.555   3.297  49.686  1.00  0.00     0.021 A 
BRANCH  24  27
HETATM   27  C19 UNL     1      27.516   6.585  48.177  1.00  0.00     0.153 C 
BRANCH  27  28
HETATM   28  N5  UNL     1      28.698   7.000  48.836  1.00  0.00    -0.414 N 
HETATM   29  H15 UNL     1      28.815   6.698  49.803  1.00  0.00     0.153 HD
BRANCH  28  30
HETATM   30  C20 UNL     1      29.888   7.053  48.038  1.00  0.00     0.068 C 
HETATM   31  C21 UNL     1      29.673   7.606  46.669  1.00  0.00     0.031 C 
HETATM   32  C22 UNL     1      30.529   5.687  47.913  1.00  0.00     0.031 C 
ENDBRANCH  28  30
ENDBRANCH  27  28
ENDBRANCH  24  27
ENDBRANCH  20  21
ENDBRANCH  18  19
ENDBRANCH   9  12
ENDBRANCH   4   5
ENDBRANCH   1   4
TORSDOF 8
ENDMDL
MODEL 6
REMARK VINA RESULT:      -7.7      4.257     10.246
REMARK  8 active torsions:
REMARK  status: ('A' for Active; 'I' for Inactive)
REMARK    1  A    between atoms: C4_6  and  N3_7 
REMARK    2  A    between atoms: C7_11  and  O1_12 
REMARK    3  A    between atoms: O1_12  and  C8_13 
REMARK    4  A    between atoms: C12_18  and  C13_19 
REMARK    5  A    between atoms: C14_20  and  C15_21 
REMARK    6  A    between atoms: C18_24  and  C19_25 
REMARK    7  A    between atoms: C19_25  and  N5_26 
REMARK    8  A    between atoms: N5_26  and  C20_27 
ROOT
HETATM    1  C8  UNL     1      28.060  13.241  48.713  1.00  0.00     0.299 C 
HETATM    2  C9  UNL     1      28.625  14.098  47.672  1.00  0.00     0.085 C 
HETATM    3  N4  UNL     1      29.065  14.765  46.855  1.00  0.00    -0.195 NA
ENDROOT
BRANCH   1   4
HETATM    4  O1  UNL     1      27.664  11.997  48.146  1.00  0.00    -0.336 OA
BRANCH   4   5
HETATM    5  C7  UNL     1      28.562  10.947  48.006  1.00  0.00     0.090 A 
HETATM    6  C6  UNL     1      29.007  10.436  46.702  1.00  0.00     0.082 A 
HETATM    7  C5  UNL     1      29.867   9.431  46.628  1.00  0.00     0.119 A 
HETATM    8 CL1  UNL     1      28.350  11.221  45.282  1.00  0.00    -0.080 Cl
HETATM    9  N3  UNL     1      30.398   8.796  47.807  1.00  0.00    -0.335 N 
HETATM   10  C11 UNL     1      30.018   9.232  49.123  1.00  0.00     0.160 A 
HETATM   11  C10 UNL     1      29.056  10.359  49.064  1.00  0.00     0.032 A 
BRANCH   9  12
HETATM   12  C4  UNL     1      31.293   7.747  47.480  1.00  0.00     0.152 A 
HETATM   13  N2  UNL     1      32.509   8.176  47.095  1.00  0.00    -0.223 NA
HETATM   14  C3  UNL     1      33.471   7.289  46.749  1.00  0.00     0.235 A 
HETATM   15  N1  UNL     1      33.248   5.946  46.775  1.00  0.00    -0.245 NA
HETATM   16  C2  UNL     1      32.043   5.491  47.155  1.00  0.00     0.054 A 
HETATM   17  C1  UNL     1      31.772   4.041  47.194  1.00  0.00     0.072 C 
HETATM   18  C12 UNL     1      31.080   6.387  47.502  1.00  0.00     0.088 A 
BRANCH  18  19
HETATM   19  C13 UNL     1      29.770   5.977  47.922  1.00  0.00    -0.055 C 
HETATM   20  C14 UNL     1      28.668   5.610  48.274  1.00  0.00    -0.061 C 
BRANCH  20  21
HETATM   21  C15 UNL     1      27.359   5.185  48.690  1.00  0.00     0.018 A 
HETATM   22  C16 UNL     1      26.290   6.074  48.569  1.00  0.00     0.021 A 
HETATM   23  C17 UNL     1      25.004   5.737  48.947  1.00  0.00     0.010 A 
HETATM   24  C18 UNL     1      24.727   4.489  49.467  1.00  0.00    -0.041 A 
HETATM   25  C23 UNL     1      25.809   3.606  49.583  1.00  0.00     0.010 A 
HETATM   26  C24 UNL     1      27.096   3.934  49.209  1.00  0.00     0.021 A 
BRANCH  24  27
HETATM   27  C19 UNL     1      23.421   3.951  49.921  1.00  0.00     0.153 C 
BRANCH  27  28
HETATM   28  N5  UNL     1      23.494   2.662  50.500  1.00  0.00    -0.414 N 
HETATM   29  H15 UNL     1      24.284   2.079  50.227  1.00  0.00     0.153 HD
BRANCH  28  30
HETATM   30  C20 UNL     1      23.063   2.550  51.863  1.00  0.00     0.068 C 
HETATM   31  C21 UNL     1      24.037   3.101  52.851  1.00  0.00     0.031 C 
HETATM   32  C22 UNL     1      22.763   1.112  52.230  1.00  0.00     0.031 C 
ENDBRANCH  28  30
ENDBRANCH  27  28
ENDBRANCH  24  27
ENDBRANCH  20  21
ENDBRANCH  18  19
ENDBRANCH   9  12
ENDBRANCH   4   5
ENDBRANCH   1   4
TORSDOF 8
ENDMDL
MODEL 7
REMARK VINA RESULT:      -7.7      4.980     10.257
REMARK  8 active torsions:
REMARK  status: ('A' for Active; 'I' for Inactive)
REMARK    1  A    between atoms: C4_6  and  N3_7 
REMARK    2  A    between atoms: C7_11  and  O1_12 
REMARK    3  A    between atoms: O1_12  and  C8_13 
REMARK    4  A    between atoms: C12_18  and  C13_19 
REMARK    5  A    between atoms: C14_20  and  C15_21 
REMARK    6  A    between atoms: C18_24  and  C19_25 
REMARK    7  A    between atoms: C19_25  and  N5_26 
REMARK    8  A    between atoms: N5_26  and  C20_27 
ROOT
HETATM    1  C8  UNL     1      29.744  12.524  47.745  1.00  0.00     0.299 C 
HETATM    2  C9  UNL     1      28.685  12.976  48.645  1.00  0.00     0.085 C 
HETATM    3  N4  UNL     1      27.860  13.328  49.351  1.00  0.00    -0.195 NA
ENDROOT
BRANCH   1   4
HETATM    4  O1  UNL     1      30.819  11.982  48.505  1.00  0.00    -0.336 OA
BRANCH   4   5
HETATM    5  C7  UNL     1      31.254  10.678  48.315  1.00  0.00     0.090 A 
HETATM    6  C6  UNL     1      32.118  10.271  47.196  1.00  0.00     0.082 A 
HETATM    7  C5  UNL     1      32.503   9.010  47.064  1.00  0.00     0.119 A 
HETATM    8 CL1  UNL     1      32.597  11.526  46.075  1.00  0.00    -0.080 Cl
HETATM    9  N3  UNL     1      32.098   7.990  47.997  1.00  0.00    -0.335 N 
HETATM   10  C11 UNL     1      31.256   8.298  49.121  1.00  0.00     0.160 A 
HETATM   11  C10 UNL     1      30.899   9.737  49.151  1.00  0.00     0.032 A 
BRANCH   9  12
HETATM   12  C4  UNL     1      32.630   6.723  47.650  1.00  0.00     0.152 A 
HETATM   13  N2  UNL     1      33.948   6.745  47.380  1.00  0.00    -0.223 NA
HETATM   14  C3  UNL     1      34.596   5.610  47.031  1.00  0.00     0.235 A 
HETATM   15  N1  UNL     1      33.949   4.416  46.941  1.00  0.00    -0.245 NA
HETATM   16  C2  UNL     1      32.633   4.364  47.205  1.00  0.00     0.054 A 
HETATM   17  C1  UNL     1      31.903   3.084  47.117  1.00  0.00     0.072 C 
HETATM   18  C12 UNL     1      31.986   5.508  47.556  1.00  0.00     0.088 A 
BRANCH  18  19
HETATM   19  C13 UNL     1      30.583   5.532  47.857  1.00  0.00    -0.055 C 
HETATM   20  C14 UNL     1      29.393   5.541  48.094  1.00  0.00    -0.061 C 
BRANCH  20  21
HETATM   21  C15 UNL     1      27.984   5.559  48.382  1.00  0.00     0.018 A 
HETATM   22  C16 UNL     1      27.257   6.722  48.126  1.00  0.00     0.021 A 
HETATM   23  C17 UNL     1      25.901   6.815  48.376  1.00  0.00     0.010 A 
HETATM   24  C18 UNL     1      25.206   5.742  48.898  1.00  0.00    -0.041 A 
HETATM   25  C23 UNL     1      25.948   4.580  49.150  1.00  0.00     0.010 A 
HETATM   26  C24 UNL     1      27.302   4.479  48.904  1.00  0.00     0.021 A 
BRANCH  24  27
HETATM   27  C19 UNL     1      23.763   5.653  49.227  1.00  0.00     0.153 C 
BRANCH  27  28
HETATM   28  N5  UNL     1      23.291   4.334  49.423  1.00  0.00    -0.414 N 
HETATM   29  H15 UNL     1      23.176   4.026  50.389  1.00  0.00     0.153 HD
BRANCH  28  30
HETATM   30  C20 UNL     1      22.320   3.856  48.484  1.00  0.00     0.068 C 
HETATM   31  C21 UNL     1      22.586   2.474  47.989  1.00  0.00     0.031 C 
HETATM   32  C22 UNL     1      22.204   4.783  47.292  1.00  0.00     0.031 C 
ENDBRANCH  28  30
ENDBRANCH  27  28
ENDBRANCH  24  27
ENDBRANCH  20  21
ENDBRANCH  18  19
ENDBRANCH   9  12
ENDBRANCH   4   5
ENDBRANCH   1   4
TORSDOF 8
ENDMDL
MODEL 8
REMARK VINA RESULT:      -7.5      4.347     10.194
REMARK  8 active torsions:
REMARK  status: ('A' for Active; 'I' for Inactive)
REMARK    1  A    between atoms: C4_6  and  N3_7 
REMARK    2  A    between atoms: C7_11  and  O1_12 
REMARK    3  A    between atoms: O1_12  and  C8_13 
REMARK    4  A    between atoms: C12_18  and  C13_19 
REMARK    5  A    between atoms: C14_20  and  C15_21 
REMARK    6  A    between atoms: C18_24  and  C19_25 
REMARK    7  A    between atoms: C19_25  and  N5_26 
REMARK    8  A    between atoms: N5_26  and  C20_27 
ROOT
HETATM    1  C8  UNL     1      21.166   6.489  50.801  1.00  0.00     0.299 C 
HETATM    2  C9  UNL     1      20.685   5.553  49.787  1.00  0.00     0.085 C 
HETATM    3  N4  UNL     1      20.314   4.820  48.994  1.00  0.00    -0.195 NA
ENDROOT
BRANCH   1   4
HETATM    4  O1  UNL     1      22.590   6.515  50.792  1.00  0.00    -0.336 OA
BRANCH   4   5
HETATM    5  C7  UNL     1      23.336   5.428  51.227  1.00  0.00     0.090 A 
HETATM    6  C6  UNL     1      24.203   4.639  50.340  1.00  0.00     0.082 A 
HETATM    7  C5  UNL     1      24.893   3.611  50.810  1.00  0.00     0.119 A 
HETATM    8 CL1  UNL     1      24.269   5.131  48.662  1.00  0.00    -0.080 Cl
HETATM    9  N3  UNL     1      24.827   3.219  52.195  1.00  0.00    -0.335 N 
HETATM   10  C11 UNL     1      24.006   3.935  53.133  1.00  0.00     0.160 A 
HETATM   11  C10 UNL     1      23.290   5.058  52.480  1.00  0.00     0.032 A 
BRANCH   9  12
HETATM   12  C4  UNL     1      25.646   2.094  52.461  1.00  0.00     0.152 A 
HETATM   13  N2  UNL     1      26.960   2.382  52.512  1.00  0.00    -0.223 NA
HETATM   14  C3  UNL     1      27.866   1.408  52.756  1.00  0.00     0.235 A 
HETATM   15  N1  UNL     1      27.491   0.115  52.956  1.00  0.00    -0.245 NA
HETATM   16  C2  UNL     1      26.186  -0.201  52.911  1.00  0.00     0.054 A 
HETATM   17  C1  UNL     1      25.748  -1.593  53.126  1.00  0.00     0.072 C 
HETATM   18  C12 UNL     1      25.278   0.783  52.666  1.00  0.00     0.088 A 
BRANCH  18  19
HETATM   19  C13 UNL     1      23.868   0.524  52.607  1.00  0.00    -0.055 C 
HETATM   20  C14 UNL     1      22.677   0.301  52.536  1.00  0.00    -0.061 C 
BRANCH  20  21
HETATM   21  C15 UNL     1      21.264   0.042  52.461  1.00  0.00     0.018 A 
HETATM   22  C16 UNL     1      20.633  -0.576  53.541  1.00  0.00     0.021 A 
HETATM   23  C17 UNL     1      19.280  -0.857  53.542  1.00  0.00     0.010 A 
HETATM   24  C18 UNL     1      18.492  -0.531  52.457  1.00  0.00    -0.041 A 
HETATM   25  C23 UNL     1      19.138   0.090  51.379  1.00  0.00     0.010 A 
HETATM   26  C24 UNL     1      20.489   0.373  51.369  1.00  0.00     0.021 A 
BRANCH  24  27
HETATM   27  C19 UNL     1      17.036  -0.749  52.279  1.00  0.00     0.153 C 
BRANCH  27  28
HETATM   28  N5  UNL     1      16.501  -1.786  53.080  1.00  0.00    -0.414 N 
HETATM   29  H15 UNL     1      16.245  -1.542  54.037  1.00  0.00     0.153 HD
BRANCH  28  30
HETATM   30  C20 UNL     1      15.653  -2.732  52.417  1.00  0.00     0.068 C 
HETATM   31  C21 UNL     1      14.198  -2.411  52.514  1.00  0.00     0.031 C 
HETATM   32  C22 UNL     1      15.874  -4.134  52.943  1.00  0.00     0.031 C 
ENDBRANCH  28  30
ENDBRANCH  27  28
ENDBRANCH  24  27
ENDBRANCH  20  21
ENDBRANCH  18  19
ENDBRANCH   9  12
ENDBRANCH   4   5
ENDBRANCH   1   4
TORSDOF 8
ENDMDL
MODEL 9
REMARK VINA RESULT:      -7.4      4.124      9.549
REMARK  8 active torsions:
REMARK  status: ('A' for Active; 'I' for Inactive)
REMARK    1  A    between atoms: C4_6  and  N3_7 
REMARK    2  A    between atoms: C7_11  and  O1_12 
REMARK    3  A    between atoms: O1_12  and  C8_13 
REMARK    4  A    between atoms: C12_18  and  C13_19 
REMARK    5  A    between atoms: C14_20  and  C15_21 
REMARK    6  A    between atoms: C18_24  and  C19_25 
REMARK    7  A    between atoms: C19_25  and  N5_26 
REMARK    8  A    between atoms: N5_26  and  C20_27 
ROOT
HETATM    1  C8  UNL     1      23.040   4.877  48.216  1.00  0.00     0.299 C 
HETATM    2  C9  UNL     1      21.672   4.628  48.666  1.00  0.00     0.085 C 
HETATM    3  N4  UNL     1      20.604   4.436  49.022  1.00  0.00    -0.195 NA
ENDROOT
BRANCH   1   4
HETATM    4  O1  UNL     1      23.843   5.277  49.322  1.00  0.00    -0.336 OA
BRANCH   4   5
HETATM    5  C7  UNL     1      24.372   4.347  50.206  1.00  0.00     0.090 A 
HETATM    6  C6  UNL     1      23.887   4.179  51.584  1.00  0.00     0.082 A 
HETATM    7  C5  UNL     1      24.429   3.273  52.385  1.00  0.00     0.119 A 
HETATM    8 CL1  UNL     1      22.577   5.223  52.090  1.00  0.00    -0.080 Cl
HETATM    9  N3  UNL     1      25.507   2.422  51.951  1.00  0.00    -0.335 N 
HETATM   10  C11 UNL     1      26.042   2.517  50.620  1.00  0.00     0.160 A 
HETATM   11  C10 UNL     1      25.350   3.564  49.831  1.00  0.00     0.032 A 
BRANCH   9  12
HETATM   12  C4  UNL     1      25.923   1.539  52.978  1.00  0.00     0.152 A 
HETATM   13  N2  UNL     1      27.209   1.701  53.342  1.00  0.00    -0.223 NA
HETATM   14  C3  UNL     1      27.749   0.927  54.311  1.00  0.00     0.235 A 
HETATM   15  N1  UNL     1      27.025  -0.034  54.946  1.00  0.00    -0.245 NA
HETATM   16  C2  UNL     1      25.740  -0.218  54.603  1.00  0.00     0.054 A 
HETATM   17  C1  UNL     1      24.928  -1.251  55.275  1.00  0.00     0.072 C 
HETATM   18  C12 UNL     1      25.200   0.564  53.629  1.00  0.00     0.088 A 
BRANCH  18  19
HETATM   19  C13 UNL     1      23.834   0.429  53.210  1.00  0.00    -0.055 C 
HETATM   20  C14 UNL     1      22.681   0.332  52.843  1.00  0.00    -0.061 C 
BRANCH  20  21
HETATM   21  C15 UNL     1      21.313   0.211  52.417  1.00  0.00     0.018 A 
HETATM   22  C16 UNL     1      20.386  -0.375  53.280  1.00  0.00     0.021 A 
HETATM   23  C17 UNL     1      19.055  -0.525  52.940  1.00  0.00     0.010 A 
HETATM   24  C18 UNL     1      18.588  -0.095  51.715  1.00  0.00    -0.041 A 
HETATM   25  C23 UNL     1      19.529   0.492  50.858  1.00  0.00     0.010 A 
HETATM   26  C24 UNL     1      20.860   0.646  51.189  1.00  0.00     0.021 A 
BRANCH  24  27
HETATM   27  C19 UNL     1      17.206  -0.168  51.180  1.00  0.00     0.153 C 
BRANCH  27  28
HETATM   28  N5  UNL     1      16.202   0.184  52.113  1.00  0.00    -0.414 N 
HETATM   29  H15 UNL     1      16.284  -0.216  53.048  1.00  0.00     0.153 HD
BRANCH  28  30
HETATM   30  C20 UNL     1      15.700   1.524  52.037  1.00  0.00     0.068 C 
HETATM   31  C21 UNL     1      14.424   1.734  52.781  1.00  0.00     0.031 C 
HETATM   32  C22 UNL     1      15.500   1.957  50.600  1.00  0.00     0.031 C 
ENDBRANCH  28  30
ENDBRANCH  27  28
ENDBRANCH  24  27
ENDBRANCH  20  21
ENDBRANCH  18  19
ENDBRANCH   9  12
ENDBRANCH   4   5
ENDBRANCH   1   4
TORSDOF 8
ENDMDL
