MODEL 1
REMARK VINA RESULT:      -8.9      0.000      0.000
REMARK  3 active torsions:
REMARK  status: ('A' for Active; 'I' for Inactive)
REMARK    1  A    between atoms: O1_2  and  C2_3 
REMARK    2  A    between atoms: C10_12  and  N2_13 
REMARK    3  A    between atoms: N2_13  and  C11_14 
ROOT
HETATM    1  C2  UNL     1      20.093   0.599  50.778  1.00  0.00     0.078 A 
HETATM    2  C3  UNL     1      18.769   0.167  50.848  1.00  0.00     0.037 A 
HETATM    3  C4  UNL     1      18.242  -0.383  51.997  1.00  0.00     0.005 A 
HETATM    4  C5  UNL     1      19.043  -0.512  53.112  1.00  0.00     0.038 A 
HETATM    5  C6  UNL     1      20.348  -0.078  53.019  1.00  0.00     0.088 A 
HETATM    6  C7  UNL     1      20.924   0.476  51.899  1.00  0.00     0.027 A 
HETATM    7  C8  UNL     1      22.218   1.010  51.499  1.00  0.00     0.164 C 
HETATM    8  N1  UNL     1      23.306   0.775  52.420  1.00  0.00    -0.379 N 
HETATM    9  C9  UNL     1      23.381  -0.036  53.558  1.00  0.00     0.129 A 
HETATM   10  C10 UNL     1      24.708  -0.330  53.794  1.00  0.00     0.160 A 
HETATM   11  N3  UNL     1      24.994  -1.104  54.856  1.00  0.00    -0.222 NA
HETATM   12  C16 UNL     1      24.029  -1.579  55.663  1.00  0.00     0.238 A 
HETATM   13  N4  UNL     1      22.750  -1.282  55.417  1.00  0.00    -0.215 NA
HETATM   14  C17 UNL     1      22.403  -0.516  54.375  1.00  0.00     0.202 A 
HETATM   15  O2  UNL     1      21.024  -0.275  54.221  1.00  0.00    -0.289 OA
HETATM   16  H9  UNL     1      24.175   1.298  52.193  1.00  0.00     0.160 HD
ENDROOT
BRANCH  10  17
HETATM   17  N2  UNL     1      25.820   0.090  53.038  1.00  0.00    -0.341 N 
HETATM   18  H10 UNL     1      26.056   0.584  52.158  1.00  0.00     0.167 HD
BRANCH  17  19
HETATM   19  C11 UNL     1      27.189  -0.141  53.433  1.00  0.00     0.029 A 
HETATM   20  C12 UNL     1      27.789  -1.215  52.915  1.00  0.00     0.026 A 
HETATM   21  C13 UNL     1      29.174  -1.342  53.389  1.00  0.00    -0.001 A 
HETATM   22  C14 UNL     1      29.349  -0.310  54.194  1.00  0.00    -0.005 A 
HETATM   23  C15 UNL     1      28.161   0.568  54.333  1.00  0.00     0.130 A 
HETATM   24 BR1  UNL     1      28.636   2.310  53.660  1.00  0.00    -0.080 Br
ENDBRANCH  17  19
ENDBRANCH  10  17
BRANCH   1  25
HETATM   25  O1  UNL     1      20.532   1.139  49.577  1.00  0.00    -0.355 OA
HETATM   26  C1  UNL     1      19.849   2.201  48.935  1.00  0.00     0.210 C 
ENDBRANCH   1  25
TORSDOF 3
ENDMDL
MODEL 2
REMARK VINA RESULT:      -8.2      1.564      3.256
REMARK  3 active torsions:
REMARK  status: ('A' for Active; 'I' for Inactive)
REMARK    1  A    between atoms: O1_2  and  C2_3 
REMARK    2  A    between atoms: C10_12  and  N2_13 
REMARK    3  A    between atoms: N2_13  and  C11_14 
ROOT
HETATM    1  C2  UNL     1      19.615  -0.142  52.315  1.00  0.00     0.078 A 
HETATM    2  C3  UNL     1      18.496   0.290  51.604  1.00  0.00     0.037 A 
HETATM    3  C4  UNL     1      18.607   1.081  50.480  1.00  0.00     0.005 A 
HETATM    4  C5  UNL     1      19.860   1.458  50.042  1.00  0.00     0.038 A 
HETATM    5  C6  UNL     1      20.951   1.019  50.761  1.00  0.00     0.088 A 
HETATM    6  C7  UNL     1      20.896   0.231  51.887  1.00  0.00     0.027 A 
HETATM    7  C8  UNL     1      21.825  -0.374  52.832  1.00  0.00     0.164 C 
HETATM    8  N1  UNL     1      23.198   0.065  52.730  1.00  0.00    -0.379 N 
HETATM    9  C9  UNL     1      23.772   1.110  51.997  1.00  0.00     0.129 A 
HETATM   10  C10 UNL     1      24.966   1.453  52.595  1.00  0.00     0.160 A 
HETATM   11  N3  UNL     1      25.679   2.446  52.034  1.00  0.00    -0.222 NA
HETATM   12  C16 UNL     1      25.251   3.086  50.931  1.00  0.00     0.238 A 
HETATM   13  N4  UNL     1      24.091   2.737  50.367  1.00  0.00    -0.215 NA
HETATM   14  C17 UNL     1      23.338   1.756  50.880  1.00  0.00     0.202 A 
HETATM   15  O2  UNL     1      22.137   1.482  50.196  1.00  0.00    -0.289 OA
HETATM   16  H9  UNL     1      23.865  -0.493  53.300  1.00  0.00     0.160 HD
ENDROOT
BRANCH  10  17
HETATM   17  N2  UNL     1      25.537   0.880  53.748  1.00  0.00    -0.341 N 
HETATM   18  H10 UNL     1      25.322   0.689  54.744  1.00  0.00     0.167 HD
BRANCH  17  19
HETATM   19  C11 UNL     1      26.859   0.300  53.783  1.00  0.00     0.029 A 
HETATM   20  C12 UNL     1      27.040  -0.818  53.076  1.00  0.00     0.026 A 
HETATM   21  C13 UNL     1      28.420  -1.311  53.190  1.00  0.00    -0.001 A 
HETATM   22  C14 UNL     1      29.023  -0.443  53.982  1.00  0.00    -0.005 A 
HETATM   23  C15 UNL     1      28.152   0.662  54.454  1.00  0.00     0.130 A 
HETATM   24 BR1  UNL     1      28.882   2.313  53.780  1.00  0.00    -0.080 Br
ENDBRANCH  17  19
ENDBRANCH  10  17
BRANCH   1  25
HETATM   25  O1  UNL     1      19.401  -0.935  53.434  1.00  0.00    -0.355 OA
HETATM   26  C1  UNL     1      18.240  -1.734  53.579  1.00  0.00     0.210 C 
ENDBRANCH   1  25
TORSDOF 3
ENDMDL
MODEL 3
REMARK VINA RESULT:      -8.2      4.097      4.941
REMARK  3 active torsions:
REMARK  status: ('A' for Active; 'I' for Inactive)
REMARK    1  A    between atoms: O1_2  and  C2_3 
REMARK    2  A    between atoms: C10_12  and  N2_13 
REMARK    3  A    between atoms: N2_13  and  C11_14 
ROOT
HETATM    1  C2  UNL     1      20.986   0.690  51.412  1.00  0.00     0.078 A 
HETATM    2  C3  UNL     1      20.316  -0.122  52.327  1.00  0.00     0.037 A 
HETATM    3  C4  UNL     1      20.810  -0.356  53.592  1.00  0.00     0.005 A 
HETATM    4  C5  UNL     1      22.000   0.229  53.971  1.00  0.00     0.038 A 
HETATM    5  C6  UNL     1      22.645   1.028  53.050  1.00  0.00     0.088 A 
HETATM    6  C7  UNL     1      22.197   1.293  51.776  1.00  0.00     0.027 A 
HETATM    7  C8  UNL     1      22.627   2.060  50.615  1.00  0.00     0.164 C 
HETATM    8  N1  UNL     1      23.972   2.582  50.672  1.00  0.00    -0.379 N 
HETATM    9  C9  UNL     1      25.013   2.333  51.574  1.00  0.00     0.129 A 
HETATM   10  C10 UNL     1      26.207   2.636  50.953  1.00  0.00     0.160 A 
HETATM   11  N3  UNL     1      27.337   2.464  51.662  1.00  0.00    -0.222 NA
HETATM   12  C16 UNL     1      27.313   2.015  52.929  1.00  0.00     0.238 A 
HETATM   13  N4  UNL     1      26.146   1.727  53.512  1.00  0.00    -0.215 NA
HETATM   14  C17 UNL     1      24.988   1.878  52.857  1.00  0.00     0.202 A 
HETATM   15  O2  UNL     1      23.826   1.542  53.579  1.00  0.00    -0.289 OA
HETATM   16  H9  UNL     1      24.199   3.255  49.912  1.00  0.00     0.160 HD
ENDROOT
BRANCH  10  17
HETATM   17  N2  UNL     1      26.386   3.109  49.639  1.00  0.00    -0.341 N 
HETATM   18  H10 UNL     1      26.445   2.768  48.661  1.00  0.00     0.167 HD
BRANCH  17  19
HETATM   19  C11 UNL     1      26.570   4.502  49.307  1.00  0.00     0.029 A 
HETATM   20  C12 UNL     1      27.669   4.812  48.616  1.00  0.00     0.026 A 
HETATM   21  C13 UNL     1      27.745   6.254  48.340  1.00  0.00    -0.001 A 
HETATM   22  C14 UNL     1      26.657   6.759  48.893  1.00  0.00    -0.005 A 
HETATM   23  C15 UNL     1      25.788   5.759  49.561  1.00  0.00     0.130 A 
HETATM   24 BR1  UNL     1      24.091   5.754  48.648  1.00  0.00    -0.080 Br
ENDBRANCH  17  19
ENDBRANCH  10  17
BRANCH   1  25
HETATM   25  O1  UNL     1      20.409   0.864  50.162  1.00  0.00    -0.355 OA
HETATM   26  C1  UNL     1      19.016   1.063  49.997  1.00  0.00     0.210 C 
ENDBRANCH   1  25
TORSDOF 3
ENDMDL
MODEL 4
REMARK VINA RESULT:      -8.0      4.856      6.821
REMARK  3 active torsions:
REMARK  status: ('A' for Active; 'I' for Inactive)
REMARK    1  A    between atoms: O1_2  and  C2_3 
REMARK    2  A    between atoms: C10_12  and  N2_13 
REMARK    3  A    between atoms: N2_13  and  C11_14 
ROOT
HETATM    1  C2  UNL     1      24.782   0.554  53.315  1.00  0.00     0.078 A 
HETATM    2  C3  UNL     1      23.994  -0.489  53.800  1.00  0.00     0.037 A 
HETATM    3  C4  UNL     1      22.647  -0.576  53.520  1.00  0.00     0.005 A 
HETATM    4  C5  UNL     1      22.057   0.394  52.737  1.00  0.00     0.038 A 
HETATM    5  C6  UNL     1      22.856   1.416  52.268  1.00  0.00     0.088 A 
HETATM    6  C7  UNL     1      24.202   1.550  52.519  1.00  0.00     0.027 A 
HETATM    7  C8  UNL     1      25.279   2.473  52.185  1.00  0.00     0.164 C 
HETATM    8  N1  UNL     1      24.873   3.711  51.562  1.00  0.00    -0.379 N 
HETATM    9  C9  UNL     1      23.602   4.269  51.379  1.00  0.00     0.129 A 
HETATM   10  C10 UNL     1      23.747   5.631  51.216  1.00  0.00     0.160 A 
HETATM   11  N3  UNL     1      22.631   6.356  51.022  1.00  0.00    -0.222 NA
HETATM   12  C16 UNL     1      21.415   5.782  50.987  1.00  0.00     0.238 A 
HETATM   13  N4  UNL     1      21.297   4.461  51.147  1.00  0.00    -0.215 NA
HETATM   14  C17 UNL     1      22.372   3.687  51.343  1.00  0.00     0.202 A 
HETATM   15  O2  UNL     1      22.118   2.310  51.498  1.00  0.00    -0.289 OA
HETATM   16  H9  UNL     1      25.662   4.278  51.190  1.00  0.00     0.160 HD
ENDROOT
BRANCH  10  17
HETATM   17  N2  UNL     1      24.947   6.367  51.233  1.00  0.00    -0.341 N 
HETATM   18  H10 UNL     1      25.624   6.791  51.895  1.00  0.00     0.167 HD
BRANCH  17  19
HETATM   19  C11 UNL     1      25.648   6.784  50.041  1.00  0.00     0.029 A 
HETATM   20  C12 UNL     1      26.144   8.023  50.041  1.00  0.00     0.026 A 
HETATM   21  C13 UNL     1      26.832   8.329  48.778  1.00  0.00    -0.001 A 
HETATM   22  C14 UNL     1      26.716   7.229  48.057  1.00  0.00    -0.005 A 
HETATM   23  C15 UNL     1      25.976   6.132  48.728  1.00  0.00     0.130 A 
HETATM   24 BR1  UNL     1      27.189   4.649  48.937  1.00  0.00    -0.080 Br
ENDBRANCH  17  19
ENDBRANCH  10  17
BRANCH   1  25
HETATM   25  O1  UNL     1      26.129   0.554  53.653  1.00  0.00    -0.355 OA
HETATM   26  C1  UNL     1      26.578   0.228  54.955  1.00  0.00     0.210 C 
ENDBRANCH   1  25
TORSDOF 3
ENDMDL
MODEL 5
REMARK VINA RESULT:      -8.0      5.187      7.492
REMARK  3 active torsions:
REMARK  status: ('A' for Active; 'I' for Inactive)
REMARK    1  A    between atoms: O1_2  and  C2_3 
REMARK    2  A    between atoms: C10_12  and  N2_13 
REMARK    3  A    between atoms: N2_13  and  C11_14 
ROOT
HETATM    1  C2  UNL     1      25.540   6.654  48.439  1.00  0.00     0.078 A 
HETATM    2  C3  UNL     1      26.688   7.220  47.885  1.00  0.00     0.037 A 
HETATM    3  C4  UNL     1      27.910   6.584  47.930  1.00  0.00     0.005 A 
HETATM    4  C5  UNL     1      28.005   5.350  48.539  1.00  0.00     0.038 A 
HETATM    5  C6  UNL     1      26.858   4.809  49.079  1.00  0.00     0.088 A 
HETATM    6  C7  UNL     1      25.616   5.402  49.063  1.00  0.00     0.027 A 
HETATM    7  C8  UNL     1      24.268   5.103  49.526  1.00  0.00     0.164 C 
HETATM    8  N1  UNL     1      24.145   3.966  50.407  1.00  0.00    -0.379 N 
HETATM    9  C9  UNL     1      25.123   3.194  51.047  1.00  0.00     0.129 A 
HETATM   10  C10 UNL     1      24.546   2.585  52.142  1.00  0.00     0.160 A 
HETATM   11  N3  UNL     1      25.328   1.791  52.895  1.00  0.00    -0.222 NA
HETATM   12  C16 UNL     1      26.625   1.593  52.598  1.00  0.00     0.238 A 
HETATM   13  N4  UNL     1      27.164   2.192  51.533  1.00  0.00    -0.215 NA
HETATM   14  C17 UNL     1      26.435   2.994  50.746  1.00  0.00     0.202 A 
HETATM   15  O2  UNL     1      27.117   3.568  49.655  1.00  0.00    -0.289 OA
HETATM   16  H9  UNL     1      23.164   3.677  50.594  1.00  0.00     0.160 HD
ENDROOT
BRANCH  10  17
HETATM   17  N2  UNL     1      23.211   2.701  52.575  1.00  0.00    -0.341 N 
HETATM   18  H10 UNL     1      22.576   3.361  53.062  1.00  0.00     0.167 HD
BRANCH  17  19
HETATM   19  C11 UNL     1      22.215   1.673  52.383  1.00  0.00     0.029 A 
HETATM   20  C12 UNL     1      21.769   1.498  51.137  1.00  0.00     0.026 A 
HETATM   21  C13 UNL     1      20.763   0.429  51.069  1.00  0.00    -0.001 A 
HETATM   22  C14 UNL     1      20.646  -0.002  52.312  1.00  0.00    -0.005 A 
HETATM   23  C15 UNL     1      21.516   0.699  53.287  1.00  0.00     0.130 A 
HETATM   24 BR1  UNL     1      22.731  -0.601  54.029  1.00  0.00    -0.080 Br
ENDBRANCH  17  19
ENDBRANCH  10  17
BRANCH   1  25
HETATM   25  O1  UNL     1      24.356   7.372  48.343  1.00  0.00    -0.355 OA
HETATM   26  C1  UNL     1      24.231   8.687  48.854  1.00  0.00     0.210 C 
ENDBRANCH   1  25
TORSDOF 3
ENDMDL
MODEL 6
REMARK VINA RESULT:      -7.8      1.908      2.442
REMARK  3 active torsions:
REMARK  status: ('A' for Active; 'I' for Inactive)
REMARK    1  A    between atoms: O1_2  and  C2_3 
REMARK    2  A    between atoms: C10_12  and  N2_13 
REMARK    3  A    between atoms: N2_13  and  C11_14 
ROOT
HETATM    1  C2  UNL     1      17.914   0.113  50.854  1.00  0.00     0.078 A 
HETATM    2  C3  UNL     1      16.751  -0.629  51.055  1.00  0.00     0.037 A 
HETATM    3  C4  UNL     1      16.543  -1.362  52.203  1.00  0.00     0.005 A 
HETATM    4  C5  UNL     1      17.510  -1.364  53.187  1.00  0.00     0.038 A 
HETATM    5  C6  UNL     1      18.652  -0.622  52.967  1.00  0.00     0.088 A 
HETATM    6  C7  UNL     1      18.909   0.124  51.841  1.00  0.00     0.027 A 
HETATM    7  C8  UNL     1      19.972   0.979  51.329  1.00  0.00     0.164 C 
HETATM    8  N1  UNL     1      21.209   0.956  52.072  1.00  0.00    -0.379 N 
HETATM    9  C9  UNL     1      21.639   0.117  53.107  1.00  0.00     0.129 A 
HETATM   10  C10 UNL     1      23.017   0.138  53.138  1.00  0.00     0.160 A 
HETATM   11  N3  UNL     1      23.630  -0.610  54.073  1.00  0.00    -0.222 NA
HETATM   12  C16 UNL     1      22.932  -1.354  54.949  1.00  0.00     0.238 A 
HETATM   13  N4  UNL     1      21.597  -1.360  54.902  1.00  0.00    -0.215 NA
HETATM   14  C17 UNL     1      20.931  -0.636  53.994  1.00  0.00     0.202 A 
HETATM   15  O2  UNL     1      19.527  -0.726  54.046  1.00  0.00    -0.289 OA
HETATM   16  H9  UNL     1      21.891   1.687  51.786  1.00  0.00     0.160 HD
ENDROOT
BRANCH  10  17
HETATM   17  N2  UNL     1      23.877   0.861  52.288  1.00  0.00    -0.341 N 
HETATM   18  H10 UNL     1      23.871   1.387  51.394  1.00  0.00     0.167 HD
BRANCH  17  19
HETATM   19  C11 UNL     1      25.281   1.064  52.554  1.00  0.00     0.029 A 
HETATM   20  C12 UNL     1      25.591   2.026  53.427  1.00  0.00     0.026 A 
HETATM   21  C13 UNL     1      27.045   2.138  53.614  1.00  0.00    -0.001 A 
HETATM   22  C14 UNL     1      27.557   1.212  52.824  1.00  0.00    -0.005 A 
HETATM   23  C15 UNL     1      26.551   0.428  52.066  1.00  0.00     0.130 A 
HETATM   24 BR1  UNL     1      26.701  -1.412  52.622  1.00  0.00    -0.080 Br
ENDBRANCH  17  19
ENDBRANCH  10  17
BRANCH   1  25
HETATM   25  O1  UNL     1      18.032   0.818  49.665  1.00  0.00    -0.355 OA
HETATM   26  C1  UNL     1      16.988   1.636  49.168  1.00  0.00     0.210 C 
ENDBRANCH   1  25
TORSDOF 3
ENDMDL
MODEL 7
REMARK VINA RESULT:      -7.8      3.715      5.241
REMARK  3 active torsions:
REMARK  status: ('A' for Active; 'I' for Inactive)
REMARK    1  A    between atoms: O1_2  and  C2_3 
REMARK    2  A    between atoms: C10_12  and  N2_13 
REMARK    3  A    between atoms: N2_13  and  C11_14 
ROOT
HETATM    1  C2  UNL     1      20.608   0.168  53.065  1.00  0.00     0.078 A 
HETATM    2  C3  UNL     1      20.443  -0.998  53.811  1.00  0.00     0.037 A 
HETATM    3  C4  UNL     1      21.494  -1.594  54.474  1.00  0.00     0.005 A 
HETATM    4  C5  UNL     1      22.748  -1.024  54.400  1.00  0.00     0.038 A 
HETATM    5  C6  UNL     1      22.887   0.129  53.656  1.00  0.00     0.088 A 
HETATM    6  C7  UNL     1      21.873   0.763  52.976  1.00  0.00     0.027 A 
HETATM    7  C8  UNL     1      21.704   1.942  52.137  1.00  0.00     0.164 C 
HETATM    8  N1  UNL     1      22.923   2.589  51.711  1.00  0.00    -0.379 N 
HETATM    9  C9  UNL     1      24.258   2.182  51.813  1.00  0.00     0.129 A 
HETATM   10  C10 UNL     1      24.987   2.844  50.848  1.00  0.00     0.160 A 
HETATM   11  N3  UNL     1      26.306   2.590  50.782  1.00  0.00    -0.222 NA
HETATM   12  C16 UNL     1      26.900   1.723  51.621  1.00  0.00     0.238 A 
HETATM   13  N4  UNL     1      26.175   1.092  52.549  1.00  0.00    -0.215 NA
HETATM   14  C17 UNL     1      24.858   1.304  52.664  1.00  0.00     0.202 A 
HETATM   15  O2  UNL     1      24.205   0.579  53.679  1.00  0.00    -0.289 OA
HETATM   16  H9  UNL     1      22.776   3.511  51.253  1.00  0.00     0.160 HD
ENDROOT
BRANCH  10  17
HETATM   17  N2  UNL     1      24.505   3.770  49.903  1.00  0.00    -0.341 N 
HETATM   18  H10 UNL     1      23.793   3.862  49.154  1.00  0.00     0.167 HD
BRANCH  17  19
HETATM   19  C11 UNL     1      25.034   5.105  49.748  1.00  0.00     0.029 A 
HETATM   20  C12 UNL     1      24.728   5.984  50.705  1.00  0.00     0.026 A 
HETATM   21  C13 UNL     1      25.321   7.302  50.437  1.00  0.00    -0.001 A 
HETATM   22  C14 UNL     1      25.975   7.151  49.300  1.00  0.00    -0.005 A 
HETATM   23  C15 UNL     1      25.890   5.788  48.720  1.00  0.00     0.130 A 
HETATM   24 BR1  UNL     1      27.675   5.062  48.665  1.00  0.00    -0.080 Br
ENDBRANCH  17  19
ENDBRANCH  10  17
BRANCH   1  25
HETATM   25  O1  UNL     1      19.488   0.692  52.433  1.00  0.00    -0.355 OA
HETATM   26  C1  UNL     1      18.529  -0.132  51.795  1.00  0.00     0.210 C 
ENDBRANCH   1  25
TORSDOF 3
ENDMDL
MODEL 8
REMARK VINA RESULT:      -7.6      3.857      5.153
REMARK  3 active torsions:
REMARK  status: ('A' for Active; 'I' for Inactive)
REMARK    1  A    between atoms: O1_2  and  C2_3 
REMARK    2  A    between atoms: C10_12  and  N2_13 
REMARK    3  A    between atoms: N2_13  and  C11_14 
ROOT
HETATM    1  C2  UNL     1      20.435   0.323  52.892  1.00  0.00     0.078 A 
HETATM    2  C3  UNL     1      20.163  -0.824  53.637  1.00  0.00     0.037 A 
HETATM    3  C4  UNL     1      21.142  -1.474  54.357  1.00  0.00     0.005 A 
HETATM    4  C5  UNL     1      22.429  -0.979  54.346  1.00  0.00     0.038 A 
HETATM    5  C6  UNL     1      22.674   0.156  53.603  1.00  0.00     0.088 A 
HETATM    6  C7  UNL     1      21.736   0.841  52.866  1.00  0.00     0.027 A 
HETATM    7  C8  UNL     1      21.680   2.020  52.012  1.00  0.00     0.164 C 
HETATM    8  N1  UNL     1      22.955   2.590  51.646  1.00  0.00    -0.379 N 
HETATM    9  C9  UNL     1      24.257   2.107  51.819  1.00  0.00     0.129 A 
HETATM   10  C10 UNL     1      25.073   2.716  50.890  1.00  0.00     0.160 A 
HETATM   11  N3  UNL     1      26.377   2.385  50.894  1.00  0.00    -0.222 NA
HETATM   12  C16 UNL     1      26.874   1.493  51.769  1.00  0.00     0.238 A 
HETATM   13  N4  UNL     1      26.066   0.914  52.662  1.00  0.00    -0.215 NA
HETATM   14  C17 UNL     1      24.760   1.204  52.706  1.00  0.00     0.202 A 
HETATM   15  O2  UNL     1      24.013   0.529  53.691  1.00  0.00    -0.289 OA
HETATM   16  H9  UNL     1      22.887   3.515  51.174  1.00  0.00     0.160 HD
ENDROOT
BRANCH  10  17
HETATM   17  N2  UNL     1      24.696   3.660  49.915  1.00  0.00    -0.341 N 
HETATM   18  H10 UNL     1      24.124   3.745  49.054  1.00  0.00     0.167 HD
BRANCH  17  19
HETATM   19  C11 UNL     1      25.137   5.035  49.918  1.00  0.00     0.029 A 
HETATM   20  C12 UNL     1      26.028   5.380  48.986  1.00  0.00     0.026 A 
HETATM   21  C13 UNL     1      26.399   6.798  49.091  1.00  0.00    -0.001 A 
HETATM   22  C14 UNL     1      25.694   7.255  50.110  1.00  0.00    -0.005 A 
HETATM   23  C15 UNL     1      24.826   6.241  50.758  1.00  0.00     0.130 A 
HETATM   24 BR1  UNL     1      22.998   6.816  50.551  1.00  0.00    -0.080 Br
ENDBRANCH  17  19
ENDBRANCH  10  17
BRANCH   1  25
HETATM   25  O1  UNL     1      19.382   0.905  52.199  1.00  0.00    -0.355 OA
HETATM   26  C1  UNL     1      18.490   0.143  51.407  1.00  0.00     0.210 C 
ENDBRANCH   1  25
TORSDOF 3
ENDMDL
MODEL 9
REMARK VINA RESULT:      -7.4      4.080      7.671
REMARK  3 active torsions:
REMARK  status: ('A' for Active; 'I' for Inactive)
REMARK    1  A    between atoms: O1_2  and  C2_3 
REMARK    2  A    between atoms: C10_12  and  N2_13 
REMARK    3  A    between atoms: N2_13  and  C11_14 
ROOT
HETATM    1  C2  UNL     1      24.571   0.160  53.060  1.00  0.00     0.078 A 
HETATM    2  C3  UNL     1      25.408  -0.942  53.226  1.00  0.00     0.037 A 
HETATM    3  C4  UNL     1      26.725  -0.925  52.821  1.00  0.00     0.005 A 
HETATM    4  C5  UNL     1      27.236   0.215  52.234  1.00  0.00     0.038 A 
HETATM    5  C6  UNL     1      26.389   1.292  52.080  1.00  0.00     0.088 A 
HETATM    6  C7  UNL     1      25.069   1.327  52.465  1.00  0.00     0.027 A 
HETATM    7  C8  UNL     1      23.959   2.269  52.442  1.00  0.00     0.164 C 
HETATM    8  N1  UNL     1      24.168   3.466  51.660  1.00  0.00    -0.379 N 
HETATM    9  C9  UNL     1      25.190   3.807  50.766  1.00  0.00     0.129 A 
HETATM   10  C10 UNL     1      24.711   4.778  49.911  1.00  0.00     0.160 A 
HETATM   11  N3  UNL     1      25.550   5.246  48.970  1.00  0.00    -0.222 NA
HETATM   12  C16 UNL     1      26.810   4.790  48.859  1.00  0.00     0.238 A 
HETATM   13  N4  UNL     1      27.254   3.849  49.697  1.00  0.00    -0.215 NA
HETATM   14  C17 UNL     1      26.466   3.345  50.655  1.00  0.00     0.202 A 
HETATM   15  O2  UNL     1      27.049   2.359  51.475  1.00  0.00    -0.289 OA
HETATM   16  H9  UNL     1      23.433   4.191  51.788  1.00  0.00     0.160 HD
ENDROOT
BRANCH  10  17
HETATM   17  N2  UNL     1      23.422   5.345  49.905  1.00  0.00    -0.341 N 
HETATM   18  H10 UNL     1      22.856   6.066  50.391  1.00  0.00     0.167 HD
BRANCH  17  19
HETATM   19  C11 UNL     1      22.373   4.940  48.999  1.00  0.00     0.029 A 
HETATM   20  C12 UNL     1      22.112   5.761  47.980  1.00  0.00     0.026 A 
HETATM   21  C13 UNL     1      21.029   5.243  47.132  1.00  0.00    -0.001 A 
HETATM   22  C14 UNL     1      20.679   4.101  47.695  1.00  0.00    -0.005 A 
HETATM   23  C15 UNL     1      21.451   3.757  48.915  1.00  0.00     0.130 A 
HETATM   24 BR1  UNL     1      22.404   2.119  48.564  1.00  0.00    -0.080 Br
ENDBRANCH  17  19
ENDBRANCH  10  17
BRANCH   1  25
HETATM   25  O1  UNL     1      23.259   0.045  53.500  1.00  0.00    -0.355 OA
HETATM   26  C1  UNL     1      22.430  -1.038  53.119  1.00  0.00     0.210 C 
ENDBRANCH   1  25
TORSDOF 3
ENDMDL
