MODEL 1
REMARK VINA RESULT:      -8.5      0.000      0.000
REMARK  4 active torsions:
REMARK  status: ('A' for Active; 'I' for Inactive)
REMARK    1  A    between atoms: C4_6  and  C5_7 
REMARK    2  A    between atoms: C5_7  and  C6_8 
REMARK    3  A    between atoms: C16_19  and  C17_20 
REMARK    4  A    between atoms: C18_21  and  O2_22 
ROOT
HETATM    1  O1  UNL     1      19.713   0.604  50.742  1.00  0.00    -0.268 OA
HETATM    2  C1  UNL     1      20.371   0.389  51.792  1.00  0.00     0.251 A 
HETATM    3  N1  UNL     1      21.266   1.100  50.939  1.00  0.00    -0.357 N 
HETATM    4  C2  UNL     1      22.063   1.815  49.991  1.00  0.00     0.127 A 
HETATM    5  C3  UNL     1      23.437   2.219  50.305  1.00  0.00     0.054 A 
HETATM    6  C4  UNL     1      23.992   1.840  51.615  1.00  0.00    -0.074 A 
HETATM    7  C12 UNL     1      23.818   1.235  52.821  1.00  0.00     0.003 A 
HETATM    8  C13 UNL     1      22.914   0.490  53.728  1.00  0.00     0.001 A 
HETATM    9  C14 UNL     1      21.694   0.014  53.767  1.00  0.00     0.017 A 
HETATM   10  C15 UNL     1      20.409  -0.186  53.133  1.00  0.00     0.032 A 
HETATM   11  C16 UNL     1      19.234  -0.676  53.245  1.00  0.00     0.019 C 
HETATM   12  H1  UNL     1      21.967   1.052  51.665  1.00  0.00     0.162 HD
ENDROOT
BRANCH   6  13
HETATM   13  C5  UNL     1      25.406   2.385  51.508  1.00  0.00     0.072 C 
BRANCH  13  14
HETATM   14  C6  UNL     1      26.382   1.402  52.042  1.00  0.00    -0.054 A 
HETATM   15  C7  UNL     1      27.411   2.067  52.698  1.00  0.00     0.009 A 
HETATM   16  C8  UNL     1      28.454   1.366  53.310  1.00  0.00     0.024 A 
HETATM   17  C9  UNL     1      28.475  -0.008  53.269  1.00  0.00     0.034 A 
HETATM   18 CL1  UNL     1      29.724  -1.003  53.994  1.00  0.00    -0.084 Cl
HETATM   19  C10 UNL     1      27.454  -0.662  52.618  1.00  0.00     0.024 A 
HETATM   20  C11 UNL     1      26.427   0.011  52.016  1.00  0.00     0.009 A 
ENDBRANCH  13  14
ENDBRANCH   6  13
BRANCH  11  21
HETATM   21  C17 UNL     1      18.307  -0.548  52.160  1.00  0.00     0.025 C 
HETATM   22  C18 UNL     1      17.114  -0.931  52.636  1.00  0.00     0.131 C 
BRANCH  22  23
HETATM   23  O2  UNL     1      17.238  -1.303  53.989  1.00  0.00    -0.373 OA
HETATM   24  H18 UNL     1      16.840  -0.725  54.733  1.00  0.00     0.216 HD
ENDBRANCH  22  23
ENDBRANCH  11  21
TORSDOF 4
ENDMDL
MODEL 2
REMARK VINA RESULT:      -8.3      4.450      6.970
REMARK  4 active torsions:
REMARK  status: ('A' for Active; 'I' for Inactive)
REMARK    1  A    between atoms: C4_6  and  C5_7 
REMARK    2  A    between atoms: C5_7  and  C6_8 
REMARK    3  A    between atoms: C16_19  and  C17_20 
REMARK    4  A    between atoms: C18_21  and  O2_22 
ROOT
HETATM    1  O1  UNL     1      24.192   6.911  51.038  1.00  0.00    -0.268 OA
HETATM    2  C1  UNL     1      24.953   6.118  50.427  1.00  0.00     0.251 A 
HETATM    3  N1  UNL     1      24.333   5.325  51.437  1.00  0.00    -0.357 N 
HETATM    4  C2  UNL     1      23.644   4.642  52.489  1.00  0.00     0.127 A 
HETATM    5  C3  UNL     1      23.846   3.210  52.724  1.00  0.00     0.054 A 
HETATM    6  C4  UNL     1      24.806   2.492  51.869  1.00  0.00    -0.074 A 
HETATM    7  C12 UNL     1      25.690   2.520  50.835  1.00  0.00     0.003 A 
HETATM    8  C13 UNL     1      26.356   3.318  49.779  1.00  0.00     0.001 A 
HETATM    9  C14 UNL     1      26.387   4.540  49.309  1.00  0.00     0.017 A 
HETATM   10  C15 UNL     1      25.926   5.911  49.359  1.00  0.00     0.032 A 
HETATM   11  C16 UNL     1      26.009   7.079  48.846  1.00  0.00     0.019 C 
HETATM   12  H1  UNL     1      24.851   4.525  51.102  1.00  0.00     0.162 HD
ENDROOT
BRANCH   6  13
HETATM   13  C5  UNL     1      24.754   1.097  52.469  1.00  0.00     0.072 C 
BRANCH  13  14
HETATM   14  C6  UNL     1      26.105   0.678  52.921  1.00  0.00    -0.054 A 
HETATM   15  C7  UNL     1      26.378  -0.606  52.465  1.00  0.00     0.009 A 
HETATM   16  C8  UNL     1      27.598  -1.231  52.740  1.00  0.00     0.024 A 
HETATM   17  C9  UNL     1      28.555  -0.572  53.475  1.00  0.00     0.034 A 
HETATM   18 CL1  UNL     1      30.123  -1.241  53.888  1.00  0.00    -0.084 Cl
HETATM   19  C10 UNL     1      28.281   0.699  53.924  1.00  0.00     0.024 A 
HETATM   20  C11 UNL     1      27.092   1.322  53.662  1.00  0.00     0.009 A 
ENDBRANCH  13  14
ENDBRANCH   6  13
BRANCH  11  21
HETATM   21  C17 UNL     1      25.224   8.148  49.388  1.00  0.00     0.025 C 
HETATM   22  C18 UNL     1      25.723   9.281  48.876  1.00  0.00     0.131 C 
BRANCH  22  23
HETATM   23  O2  UNL     1      26.804   8.981  48.022  1.00  0.00    -0.373 OA
HETATM   24  H18 UNL     1      27.558   8.361  48.325  1.00  0.00     0.216 HD
ENDBRANCH  22  23
ENDBRANCH  11  21
TORSDOF 4
ENDMDL
MODEL 3
REMARK VINA RESULT:      -8.1      4.101      5.418
REMARK  4 active torsions:
REMARK  status: ('A' for Active; 'I' for Inactive)
REMARK    1  A    between atoms: C4_6  and  C5_7 
REMARK    2  A    between atoms: C5_7  and  C6_8 
REMARK    3  A    between atoms: C16_19  and  C17_20 
REMARK    4  A    between atoms: C18_21  and  O2_22 
ROOT
HETATM    1  O1  UNL     1      22.011   0.988  51.781  1.00  0.00    -0.268 OA
HETATM    2  C1  UNL     1      23.195   0.891  52.191  1.00  0.00     0.251 A 
HETATM    3  N1  UNL     1      23.267   1.768  51.069  1.00  0.00    -0.357 N 
HETATM    4  C2  UNL     1      23.204   2.633  49.931  1.00  0.00     0.127 A 
HETATM    5  C3  UNL     1      24.406   3.288  49.407  1.00  0.00     0.054 A 
HETATM    6  C4  UNL     1      25.694   3.007  50.063  1.00  0.00    -0.074 A 
HETATM    7  C12 UNL     1      26.384   2.367  51.047  1.00  0.00     0.003 A 
HETATM    8  C13 UNL     1      26.343   1.454  52.212  1.00  0.00     0.001 A 
HETATM    9  C14 UNL     1      25.487   0.754  52.914  1.00  0.00     0.017 A 
HETATM   10  C15 UNL     1      24.128   0.320  53.157  1.00  0.00     0.032 A 
HETATM   11  C16 UNL     1      23.353  -0.387  53.889  1.00  0.00     0.019 C 
HETATM   12  H1  UNL     1      24.263   1.848  51.217  1.00  0.00     0.162 HD
ENDROOT
BRANCH   6  13
HETATM   13  C5  UNL     1      26.650   3.813  49.200  1.00  0.00     0.072 C 
BRANCH  13  14
HETATM   14  C6  UNL     1      26.407   5.267  49.378  1.00  0.00    -0.054 A 
HETATM   15  C7  UNL     1      27.248   5.992  48.542  1.00  0.00     0.009 A 
HETATM   16  C8  UNL     1      27.206   7.388  48.503  1.00  0.00     0.024 A 
HETATM   17  C9  UNL     1      26.320   8.070  49.303  1.00  0.00     0.034 A 
HETATM   18 CL1  UNL     1      26.167   9.817  49.350  1.00  0.00    -0.084 Cl
HETATM   19  C10 UNL     1      25.489   7.349  50.129  1.00  0.00     0.024 A 
HETATM   20  C11 UNL     1      25.519   5.982  50.177  1.00  0.00     0.009 A 
ENDBRANCH  13  14
ENDBRANCH   6  13
BRANCH  11  21
HETATM   21  C17 UNL     1      21.950  -0.426  53.601  1.00  0.00     0.025 C 
HETATM   22  C18 UNL     1      21.396  -1.215  54.532  1.00  0.00     0.131 C 
BRANCH  22  23
HETATM   23  O2  UNL     1      22.392  -1.687  55.410  1.00  0.00    -0.373 OA
HETATM   24  H18 UNL     1      22.368  -2.646  55.766  1.00  0.00     0.216 HD
ENDBRANCH  22  23
ENDBRANCH  11  21
TORSDOF 4
ENDMDL
MODEL 4
REMARK VINA RESULT:      -8.1      6.754      9.875
REMARK  4 active torsions:
REMARK  status: ('A' for Active; 'I' for Inactive)
REMARK    1  A    between atoms: C4_6  and  C5_7 
REMARK    2  A    between atoms: C5_7  and  C6_8 
REMARK    3  A    between atoms: C16_19  and  C17_20 
REMARK    4  A    between atoms: C18_21  and  O2_22 
ROOT
HETATM    1  O1  UNL     1      27.665   9.294  49.914  1.00  0.00    -0.268 OA
HETATM    2  C1  UNL     1      28.249   8.349  49.326  1.00  0.00     0.251 A 
HETATM    3  N1  UNL     1      27.018   7.791  49.781  1.00  0.00    -0.357 N 
HETATM    4  C2  UNL     1      25.755   7.354  50.289  1.00  0.00     0.127 A 
HETATM    5  C3  UNL     1      25.284   5.982  50.080  1.00  0.00     0.054 A 
HETATM    6  C4  UNL     1      26.164   5.047  49.358  1.00  0.00    -0.074 A 
HETATM    7  C12 UNL     1      27.335   4.822  48.703  1.00  0.00     0.003 A 
HETATM    8  C13 UNL     1      28.625   5.371  48.223  1.00  0.00     0.001 A 
HETATM    9  C14 UNL     1      29.306   6.489  48.221  1.00  0.00     0.017 A 
HETATM   10  C15 UNL     1      29.420   7.884  48.588  1.00  0.00     0.032 A 
HETATM   11  C16 UNL     1      30.142   8.939  48.545  1.00  0.00     0.019 C 
HETATM   12  H1  UNL     1      27.285   6.909  49.366  1.00  0.00     0.162 HD
ENDROOT
BRANCH   6  13
HETATM   13  C5  UNL     1      25.347   3.768  49.412  1.00  0.00     0.072 C 
BRANCH  13  14
HETATM   14  C6  UNL     1      25.683   2.991  50.632  1.00  0.00    -0.054 A 
HETATM   15  C7  UNL     1      24.525   2.454  51.184  1.00  0.00     0.009 A 
HETATM   16  C8  UNL     1      24.569   1.661  52.334  1.00  0.00     0.024 A 
HETATM   17  C9  UNL     1      25.774   1.398  52.941  1.00  0.00     0.034 A 
HETATM   18 CL1  UNL     1      25.967   0.421  54.384  1.00  0.00    -0.084 Cl
HETATM   19  C10 UNL     1      26.918   1.931  52.391  1.00  0.00     0.024 A 
HETATM   20  C11 UNL     1      26.890   2.708  51.266  1.00  0.00     0.009 A 
ENDBRANCH  13  14
ENDBRANCH   6  13
BRANCH  11  21
HETATM   21  C17 UNL     1      29.669  10.145  49.157  1.00  0.00     0.025 C 
HETATM   22  C18 UNL     1      30.563  11.097  48.853  1.00  0.00     0.131 C 
BRANCH  22  23
HETATM   23  O2  UNL     1      31.596  10.547  48.068  1.00  0.00    -0.373 OA
HETATM   24  H18 UNL     1      32.575  10.631  48.352  1.00  0.00     0.216 HD
ENDBRANCH  22  23
ENDBRANCH  11  21
TORSDOF 4
ENDMDL
MODEL 5
REMARK VINA RESULT:      -8.1      4.333      7.976
REMARK  4 active torsions:
REMARK  status: ('A' for Active; 'I' for Inactive)
REMARK    1  A    between atoms: C4_6  and  C5_7 
REMARK    2  A    between atoms: C5_7  and  C6_8 
REMARK    3  A    between atoms: C16_19  and  C17_20 
REMARK    4  A    between atoms: C18_21  and  O2_22 
ROOT
HETATM    1  O1  UNL     1      26.295  -0.880  54.926  1.00  0.00    -0.268 OA
HETATM    2  C1  UNL     1      25.882  -0.222  53.937  1.00  0.00     0.251 A 
HETATM    3  N1  UNL     1      24.701  -0.716  54.567  1.00  0.00    -0.357 N 
HETATM    4  C2  UNL     1      23.599  -1.270  55.291  1.00  0.00     0.127 A 
HETATM    5  C3  UNL     1      22.216  -1.026  54.872  1.00  0.00     0.054 A 
HETATM    6  C4  UNL     1      21.986  -0.219  53.662  1.00  0.00    -0.074 A 
HETATM    7  C12 UNL     1      22.502   0.506  52.632  1.00  0.00     0.003 A 
HETATM    8  C13 UNL     1      23.710   1.028  51.951  1.00  0.00     0.001 A 
HETATM    9  C14 UNL     1      25.014   1.017  52.064  1.00  0.00     0.017 A 
HETATM   10  C15 UNL     1      26.204   0.596  52.772  1.00  0.00     0.032 A 
HETATM   11  C16 UNL     1      27.482   0.630  52.817  1.00  0.00     0.019 C 
HETATM   12  H1  UNL     1      24.151  -0.250  53.860  1.00  0.00     0.162 HD
ENDROOT
BRANCH   6  13
HETATM   13  C5  UNL     1      20.471  -0.260  53.559  1.00  0.00     0.072 C 
BRANCH  13  14
HETATM   14  C6  UNL     1      19.989   0.777  52.613  1.00  0.00    -0.054 A 
HETATM   15  C7  UNL     1      19.358   0.172  51.532  1.00  0.00     0.009 A 
HETATM   16  C8  UNL     1      18.796   0.932  50.502  1.00  0.00     0.024 A 
HETATM   17  C9  UNL     1      18.860   2.305  50.547  1.00  0.00     0.034 A 
HETATM   18 CL1  UNL     1      18.197   3.370  49.323  1.00  0.00    -0.084 Cl
HETATM   19  C10 UNL     1      19.485   2.899  51.620  1.00  0.00     0.024 A 
HETATM   20  C11 UNL     1      20.039   2.168  52.635  1.00  0.00     0.009 A 
ENDBRANCH  13  14
ENDBRANCH   6  13
BRANCH  11  21
HETATM   21  C17 UNL     1      28.171  -0.058  53.869  1.00  0.00     0.025 C 
HETATM   22  C18 UNL     1      29.331   0.590  54.045  1.00  0.00     0.131 C 
BRANCH  22  23
HETATM   23  O2  UNL     1      29.415   1.671  53.144  1.00  0.00    -0.373 OA
HETATM   24  H18 UNL     1      29.224   1.542  52.148  1.00  0.00     0.216 HD
ENDBRANCH  22  23
ENDBRANCH  11  21
TORSDOF 4
ENDMDL
MODEL 6
REMARK VINA RESULT:      -7.9      4.981      7.393
REMARK  4 active torsions:
REMARK  status: ('A' for Active; 'I' for Inactive)
REMARK    1  A    between atoms: C4_6  and  C5_7 
REMARK    2  A    between atoms: C5_7  and  C6_8 
REMARK    3  A    between atoms: C16_19  and  C17_20 
REMARK    4  A    between atoms: C18_21  and  O2_22 
ROOT
HETATM    1  O1  UNL     1      28.165   0.913  52.235  1.00  0.00    -0.268 OA
HETATM    2  C1  UNL     1      27.070   0.383  52.550  1.00  0.00     0.251 A 
HETATM    3  N1  UNL     1      26.713   1.611  51.918  1.00  0.00    -0.357 N 
HETATM    4  C2  UNL     1      26.489   2.866  51.268  1.00  0.00     0.127 A 
HETATM    5  C3  UNL     1      25.133   3.365  51.026  1.00  0.00     0.054 A 
HETATM    6  C4  UNL     1      23.998   2.555  51.502  1.00  0.00    -0.074 A 
HETATM    7  C12 UNL     1      23.551   1.427  52.118  1.00  0.00     0.003 A 
HETATM    8  C13 UNL     1      23.889   0.148  52.784  1.00  0.00     0.001 A 
HETATM    9  C14 UNL     1      24.933  -0.566  53.124  1.00  0.00     0.017 A 
HETATM   10  C15 UNL     1      26.368  -0.741  53.163  1.00  0.00     0.032 A 
HETATM   11  C16 UNL     1      27.338  -1.492  53.525  1.00  0.00     0.019 C 
HETATM   12  H1  UNL     1      25.740   1.383  52.063  1.00  0.00     0.162 HD
ENDROOT
BRANCH   6  13
HETATM   13  C5  UNL     1      22.822   3.434  51.112  1.00  0.00     0.072 C 
BRANCH  13  14
HETATM   14  C6  UNL     1      22.552   3.322  49.657  1.00  0.00    -0.054 A 
HETATM   15  C7  UNL     1      22.364   4.588  49.113  1.00  0.00     0.009 A 
HETATM   16  C8  UNL     1      22.111   4.761  47.749  1.00  0.00     0.024 A 
HETATM   17  C9  UNL     1      22.045   3.668  46.918  1.00  0.00     0.034 A 
HETATM   18 CL1  UNL     1      21.735   3.748  45.194  1.00  0.00    -0.084 Cl
HETATM   19  C10 UNL     1      22.231   2.417  47.461  1.00  0.00     0.024 A 
HETATM   20  C11 UNL     1      22.480   2.232  48.793  1.00  0.00     0.009 A 
ENDBRANCH  13  14
ENDBRANCH   6  13
BRANCH  11  21
HETATM   21  C17 UNL     1      28.686  -1.083  53.264  1.00  0.00     0.025 C 
HETATM   22  C18 UNL     1      29.421  -2.203  53.234  1.00  0.00     0.131 C 
BRANCH  22  23
HETATM   23  O2  UNL     1      28.596  -3.321  53.466  1.00  0.00    -0.373 OA
HETATM   24  H18 UNL     1      28.713  -4.183  52.928  1.00  0.00     0.216 HD
ENDBRANCH  22  23
ENDBRANCH  11  21
TORSDOF 4
ENDMDL
MODEL 7
REMARK VINA RESULT:      -7.9      5.301      7.130
REMARK  4 active torsions:
REMARK  status: ('A' for Active; 'I' for Inactive)
REMARK    1  A    between atoms: C4_6  and  C5_7 
REMARK    2  A    between atoms: C5_7  and  C6_8 
REMARK    3  A    between atoms: C16_19  and  C17_20 
REMARK    4  A    between atoms: C18_21  and  O2_22 
ROOT
HETATM    1  O1  UNL     1      24.107   2.740  53.188  1.00  0.00    -0.268 OA
HETATM    2  C1  UNL     1      24.952   2.582  52.271  1.00  0.00     0.251 A 
HETATM    3  N1  UNL     1      24.375   3.862  52.020  1.00  0.00    -0.357 N 
HETATM    4  C2  UNL     1      23.718   5.124  51.878  1.00  0.00     0.127 A 
HETATM    5  C3  UNL     1      24.070   6.047  50.796  1.00  0.00     0.054 A 
HETATM    6  C4  UNL     1      25.101   5.627  49.831  1.00  0.00    -0.074 A 
HETATM    7  C12 UNL     1      25.998   4.690  49.421  1.00  0.00     0.003 A 
HETATM    8  C13 UNL     1      26.613   3.362  49.652  1.00  0.00     0.001 A 
HETATM    9  C14 UNL     1      26.549   2.353  50.484  1.00  0.00     0.017 A 
HETATM   10  C15 UNL     1      25.972   1.736  51.658  1.00  0.00     0.032 A 
HETATM   11  C16 UNL     1      25.967   0.715  52.429  1.00  0.00     0.019 C 
HETATM   12  H1  UNL     1      24.981   3.958  51.218  1.00  0.00     0.162 HD
ENDROOT
BRANCH   6  13
HETATM   13  C5  UNL     1      25.116   6.810  48.878  1.00  0.00     0.072 C 
BRANCH  13  14
HETATM   14  C6  UNL     1      26.451   7.460  48.881  1.00  0.00    -0.054 A 
HETATM   15  C7  UNL     1      26.488   8.457  49.849  1.00  0.00     0.009 A 
HETATM   16  C8  UNL     1      27.644   9.212  50.069  1.00  0.00     0.024 A 
HETATM   17  C9  UNL     1      28.772   8.974  49.319  1.00  0.00     0.034 A 
HETATM   18 CL1  UNL     1      30.283   9.848  49.495  1.00  0.00    -0.084 Cl
HETATM   19  C10 UNL     1      28.730   7.986  48.362  1.00  0.00     0.024 A 
HETATM   20  C11 UNL     1      27.607   7.239  48.137  1.00  0.00     0.009 A 
ENDBRANCH  13  14
ENDBRANCH   6  13
BRANCH  11  21
HETATM   21  C17 UNL     1      25.073   0.678  53.549  1.00  0.00     0.025 C 
HETATM   22  C18 UNL     1      25.433  -0.384  54.283  1.00  0.00     0.131 C 
BRANCH  22  23
HETATM   23  O2  UNL     1      26.526  -1.034  53.676  1.00  0.00    -0.373 OA
HETATM   24  H18 UNL     1      26.427  -1.495  52.768  1.00  0.00     0.216 HD
ENDBRANCH  22  23
ENDBRANCH  11  21
TORSDOF 4
ENDMDL
MODEL 8
REMARK VINA RESULT:      -7.8      4.194      7.627
REMARK  4 active torsions:
REMARK  status: ('A' for Active; 'I' for Inactive)
REMARK    1  A    between atoms: C4_6  and  C5_7 
REMARK    2  A    between atoms: C5_7  and  C6_8 
REMARK    3  A    between atoms: C16_19  and  C17_20 
REMARK    4  A    between atoms: C18_21  and  O2_22 
ROOT
HETATM    1  O1  UNL     1      26.226  -1.113  53.779  1.00  0.00    -0.268 OA
HETATM    2  C1  UNL     1      26.337  -0.022  53.165  1.00  0.00     0.251 A 
HETATM    3  N1  UNL     1      24.937  -0.295  53.175  1.00  0.00    -0.357 N 
HETATM    4  C2  UNL     1      23.562  -0.684  53.253  1.00  0.00     0.127 A 
HETATM    5  C3  UNL     1      22.502   0.155  52.687  1.00  0.00     0.054 A 
HETATM    6  C4  UNL     1      22.890   1.399  52.002  1.00  0.00    -0.074 A 
HETATM    7  C12 UNL     1      23.875   2.252  51.606  1.00  0.00     0.003 A 
HETATM    8  C13 UNL     1      25.323   2.560  51.574  1.00  0.00     0.001 A 
HETATM    9  C14 UNL     1      26.468   2.067  51.976  1.00  0.00     0.017 A 
HETATM   10  C15 UNL     1      27.212   1.029  52.654  1.00  0.00     0.032 A 
HETATM   11  C16 UNL     1      28.366   0.611  53.015  1.00  0.00     0.019 C 
HETATM   12  H1  UNL     1      24.783   0.567  52.672  1.00  0.00     0.162 HD
ENDROOT
BRANCH   6  13
HETATM   13  C5  UNL     1      21.540   1.914  51.533  1.00  0.00     0.072 C 
BRANCH  13  14
HETATM   14  C6  UNL     1      21.651   2.488  50.168  1.00  0.00    -0.054 A 
HETATM   15  C7  UNL     1      21.884   1.473  49.247  1.00  0.00     0.009 A 
HETATM   16  C8  UNL     1      22.010   1.747  47.882  1.00  0.00     0.024 A 
HETATM   17  C9  UNL     1      21.904   3.041  47.429  1.00  0.00     0.034 A 
HETATM   18 CL1  UNL     1      22.042   3.517  45.747  1.00  0.00    -0.084 Cl
HETATM   19  C10 UNL     1      21.673   4.042  48.344  1.00  0.00     0.024 A 
HETATM   20  C11 UNL     1      21.546   3.789  49.682  1.00  0.00     0.009 A 
ENDBRANCH  13  14
ENDBRANCH   6  13
BRANCH  11  21
HETATM   21  C17 UNL     1      28.478  -0.624  53.734  1.00  0.00     0.025 C 
HETATM   22  C18 UNL     1      29.788  -0.828  53.930  1.00  0.00     0.131 C 
BRANCH  22  23
HETATM   23  O2  UNL     1      30.525   0.230  53.362  1.00  0.00    -0.373 OA
HETATM   24  H18 UNL     1      30.333   1.202  53.617  1.00  0.00     0.216 HD
ENDBRANCH  22  23
ENDBRANCH  11  21
TORSDOF 4
ENDMDL
MODEL 9
REMARK VINA RESULT:      -7.7      4.089      5.472
REMARK  4 active torsions:
REMARK  status: ('A' for Active; 'I' for Inactive)
REMARK    1  A    between atoms: C4_6  and  C5_7 
REMARK    2  A    between atoms: C5_7  and  C6_8 
REMARK    3  A    between atoms: C16_19  and  C17_20 
REMARK    4  A    between atoms: C18_21  and  O2_22 
ROOT
HETATM    1  O1  UNL     1      24.383   0.282  53.693  1.00  0.00    -0.268 OA
HETATM    2  C1  UNL     1      23.666   0.727  52.762  1.00  0.00     0.251 A 
HETATM    3  N1  UNL     1      24.979   1.203  52.472  1.00  0.00    -0.357 N 
HETATM    4  C2  UNL     1      26.337   1.616  52.294  1.00  0.00     0.127 A 
HETATM    5  C3  UNL     1      26.741   2.424  51.140  1.00  0.00     0.054 A 
HETATM    6  C4  UNL     1      25.703   2.832  50.178  1.00  0.00    -0.074 A 
HETATM    7  C12 UNL     1      24.398   2.804  49.794  1.00  0.00     0.003 A 
HETATM    8  C13 UNL     1      23.022   2.330  50.071  1.00  0.00     0.001 A 
HETATM    9  C14 UNL     1      22.359   1.619  50.947  1.00  0.00     0.017 A 
HETATM   10  C15 UNL     1      22.340   0.827  52.158  1.00  0.00     0.032 A 
HETATM   11  C16 UNL     1      21.627   0.144  52.971  1.00  0.00     0.019 C 
HETATM   12  H1  UNL     1      24.615   1.651  51.643  1.00  0.00     0.162 HD
ENDROOT
BRANCH   6  13
HETATM   13  C5  UNL     1      26.512   3.672  49.205  1.00  0.00     0.072 C 
BRANCH  13  14
HETATM   14  C6  UNL     1      26.260   5.117  49.436  1.00  0.00    -0.054 A 
HETATM   15  C7  UNL     1      27.094   5.877  48.624  1.00  0.00     0.009 A 
HETATM   16  C8  UNL     1      27.043   7.274  48.636  1.00  0.00     0.024 A 
HETATM   17  C9  UNL     1      26.154   7.921  49.462  1.00  0.00     0.034 A 
HETATM   18 CL1  UNL     1      25.990   9.663  49.573  1.00  0.00    -0.084 Cl
HETATM   19  C10 UNL     1      25.331   7.164  50.264  1.00  0.00     0.024 A 
HETATM   20  C11 UNL     1      25.370   5.797  50.263  1.00  0.00     0.009 A 
ENDBRANCH  13  14
ENDBRANCH   6  13
BRANCH  11  21
HETATM   21  C17 UNL     1      22.242  -0.461  54.116  1.00  0.00     0.025 C 
HETATM   22  C18 UNL     1      21.295  -1.206  54.702  1.00  0.00     0.131 C 
BRANCH  22  23
HETATM   23  O2  UNL     1      20.090  -1.102  53.978  1.00  0.00    -0.373 OA
HETATM   24  H18 UNL     1      19.252  -0.703  54.406  1.00  0.00     0.216 HD
ENDBRANCH  22  23
ENDBRANCH  11  21
TORSDOF 4
ENDMDL
