MODEL 1
REMARK VINA RESULT:      -8.1      0.000      0.000
REMARK  7 active torsions:
REMARK  status: ('A' for Active; 'I' for Inactive)
REMARK    1  A    between atoms: O1_2  and  C2_3 
REMARK    2  A    between atoms: C6_7  and  N1_8 
REMARK    3  A    between atoms: N1_8  and  C7_9 
REMARK    4  A    between atoms: C10_12  and  N2_13 
REMARK       I    between atoms: N2_13  and  C11_14 
REMARK    5  A    between atoms: C11_14  and  C12_16 
REMARK    6  A    between atoms: C13_17  and  C14_18 
REMARK    7  A    between atoms: C14_18  and  N3_19 
ROOT
HETATM    1  C2  UNL     1      27.016  -0.395  53.646  1.00  0.00     0.070 A 
HETATM    2  C3  UNL     1      27.292   0.588  52.688  1.00  0.00     0.038 A 
HETATM    3  C4  UNL     1      26.277   1.181  52.006  1.00  0.00     0.019 A 
HETATM    4  C5  UNL     1      24.977   0.814  52.259  1.00  0.00     0.021 A 
HETATM    5  C6  UNL     1      24.016   1.463  51.516  1.00  0.00     0.067 A 
HETATM    6  C19 UNL     1      22.706   1.090  51.758  1.00  0.00     0.089 A 
HETATM    7  C20 UNL     1      21.566   1.647  51.085  1.00  0.00     0.103 C 
HETATM    8  N4  UNL     1      20.658   2.107  50.547  1.00  0.00    -0.191 NA
HETATM    9  C21 UNL     1      22.418   0.113  52.708  1.00  0.00     0.142 A 
HETATM   10  N5  UNL     1      23.394  -0.482  53.400  1.00  0.00    -0.259 NA
HETATM   11  C22 UNL     1      24.679  -0.146  53.191  1.00  0.00     0.071 A 
HETATM   12  C23 UNL     1      25.703  -0.751  53.885  1.00  0.00     0.069 A 
ENDROOT
BRANCH   5  13
HETATM   13  N1  UNL     1      24.156   2.473  50.556  1.00  0.00    -0.353 N 
HETATM   14  H6  UNL     1      23.664   1.953  49.778  1.00  0.00     0.166 HD
BRANCH  13  15
HETATM   15  C7  UNL     1      24.686   3.764  50.388  1.00  0.00     0.050 A 
HETATM   16  C8  UNL     1      25.813   3.630  49.561  1.00  0.00     0.033 A 
HETATM   17  C9  UNL     1      26.571   4.739  49.191  1.00  0.00     0.032 A 
HETATM   18  C10 UNL     1      26.200   5.980  49.651  1.00  0.00     0.036 A 
HETATM   19  C17 UNL     1      25.094   6.108  50.463  1.00  0.00     0.051 A 
HETATM   20  C18 UNL     1      24.351   5.024  50.824  1.00  0.00     0.039 A 
HETATM   21 BR1  UNL     1      22.819   5.072  51.914  1.00  0.00    -0.049 Br
BRANCH  18  22
HETATM   22  N2  UNL     1      26.815   7.243  49.409  1.00  0.00    -0.316 N 
HETATM   23  C11 UNL     1      26.329   7.928  48.270  1.00  0.00     0.301 C 
HETATM   24  O2  UNL     1      25.415   7.494  47.490  1.00  0.00    -0.258 OA
HETATM   25  H9  UNL     1      27.567   7.660  49.999  1.00  0.00     0.170 HD
BRANCH  23  26
HETATM   26  C12 UNL     1      26.854   9.232  47.889  1.00  0.00    -0.004 C 
HETATM   27  C13 UNL     1      27.303  10.318  47.585  1.00  0.00    -0.066 C 
BRANCH  27  28
HETATM   28  C14 UNL     1      27.860  11.628  47.237  1.00  0.00     0.365 C 
BRANCH  28  29
HETATM   29  N3  UNL     1      28.153  12.281  48.501  1.00  0.00     0.090 N 
HETATM   30  C15 UNL     1      27.864  13.698  48.337  1.00  0.00     0.310 C 
HETATM   31  C16 UNL     1      29.558  12.071  48.803  1.00  0.00     0.310 C 
ENDBRANCH  28  29
ENDBRANCH  27  28
ENDBRANCH  23  26
ENDBRANCH  18  22
ENDBRANCH  13  15
ENDBRANCH   5  13
BRANCH   1  32
HETATM   32  O1  UNL     1      28.127  -0.932  54.280  1.00  0.00    -0.356 OA
HETATM   33  C1  UNL     1      29.463  -0.669  53.919  1.00  0.00     0.210 C 
ENDBRANCH   1  32
TORSDOF 7
ENDMDL
MODEL 2
REMARK VINA RESULT:      -8.0      2.330      2.520
REMARK  7 active torsions:
REMARK  status: ('A' for Active; 'I' for Inactive)
REMARK    1  A    between atoms: O1_2  and  C2_3 
REMARK    2  A    between atoms: C6_7  and  N1_8 
REMARK    3  A    between atoms: N1_8  and  C7_9 
REMARK    4  A    between atoms: C10_12  and  N2_13 
REMARK       I    between atoms: N2_13  and  C11_14 
REMARK    5  A    between atoms: C11_14  and  C12_16 
REMARK    6  A    between atoms: C13_17  and  C14_18 
REMARK    7  A    between atoms: C14_18  and  N3_19 
ROOT
HETATM    1  C2  UNL     1      26.134  -0.123  54.502  1.00  0.00     0.070 A 
HETATM    2  C3  UNL     1      26.184   0.962  53.619  1.00  0.00     0.038 A 
HETATM    3  C4  UNL     1      25.073   1.332  52.928  1.00  0.00     0.019 A 
HETATM    4  C5  UNL     1      23.899   0.637  53.099  1.00  0.00     0.021 A 
HETATM    5  C6  UNL     1      22.829   1.078  52.353  1.00  0.00     0.067 A 
HETATM    6  C19 UNL     1      21.647   0.377  52.513  1.00  0.00     0.089 A 
HETATM    7  C20 UNL     1      20.424   0.681  51.823  1.00  0.00     0.103 C 
HETATM    8  N4  UNL     1      19.446   0.938  51.273  1.00  0.00    -0.191 NA
HETATM    9  C21 UNL     1      21.585  -0.705  53.387  1.00  0.00     0.142 A 
HETATM   10  N5  UNL     1      22.658  -1.086  54.086  1.00  0.00    -0.259 NA
HETATM   11  C22 UNL     1      23.823  -0.429  53.956  1.00  0.00     0.071 A 
HETATM   12  C23 UNL     1      24.945  -0.809  54.659  1.00  0.00     0.069 A 
ENDROOT
BRANCH   5  13
HETATM   13  N1  UNL     1      22.740   2.157  51.464  1.00  0.00    -0.353 N 
HETATM   14  H6  UNL     1      21.736   1.981  51.180  1.00  0.00     0.166 HD
BRANCH  13  15
HETATM   15  C7  UNL     1      23.500   3.217  50.943  1.00  0.00     0.050 A 
HETATM   16  C8  UNL     1      23.855   2.852  49.634  1.00  0.00     0.033 A 
HETATM   17  C9  UNL     1      24.615   3.699  48.830  1.00  0.00     0.032 A 
HETATM   18  C10 UNL     1      25.018   4.911  49.338  1.00  0.00     0.036 A 
HETATM   19  C17 UNL     1      24.669   5.267  50.623  1.00  0.00     0.051 A 
HETATM   20  C18 UNL     1      23.925   4.439  51.410  1.00  0.00     0.039 A 
HETATM   21 BR1  UNL     1      23.377   4.816  53.168  1.00  0.00    -0.049 Br
BRANCH  18  22
HETATM   22  N2  UNL     1      25.792   5.930  48.710  1.00  0.00    -0.316 N 
HETATM   23  C11 UNL     1      27.170   5.633  48.585  1.00  0.00     0.301 C 
HETATM   24  O2  UNL     1      27.725   4.554  48.985  1.00  0.00    -0.258 OA
HETATM   25  H9  UNL     1      25.410   6.835  48.361  1.00  0.00     0.170 HD
BRANCH  23  26
HETATM   26  C12 UNL     1      28.094   6.571  47.964  1.00  0.00    -0.004 C 
HETATM   27  C13 UNL     1      28.860   7.347  47.429  1.00  0.00    -0.066 C 
BRANCH  27  28
HETATM   28  C14 UNL     1      29.777   8.276  46.763  1.00  0.00     0.365 C 
BRANCH  28  29
HETATM   29  N3  UNL     1      31.073   8.066  47.386  1.00  0.00     0.090 N 
HETATM   30  C15 UNL     1      31.202   9.040  48.460  1.00  0.00     0.310 C 
HETATM   31  C16 UNL     1      32.098   8.268  46.377  1.00  0.00     0.310 C 
ENDBRANCH  28  29
ENDBRANCH  27  28
ENDBRANCH  23  26
ENDBRANCH  18  22
ENDBRANCH  13  15
ENDBRANCH   5  13
BRANCH   1  32
HETATM   32  O1  UNL     1      27.325  -0.411  55.153  1.00  0.00    -0.356 OA
HETATM   33  C1  UNL     1      28.579   0.135  54.814  1.00  0.00     0.210 C 
ENDBRANCH   1  32
TORSDOF 7
ENDMDL
MODEL 3
REMARK VINA RESULT:      -7.9      4.184      5.505
REMARK  7 active torsions:
REMARK  status: ('A' for Active; 'I' for Inactive)
REMARK    1  A    between atoms: O1_2  and  C2_3 
REMARK    2  A    between atoms: C6_7  and  N1_8 
REMARK    3  A    between atoms: N1_8  and  C7_9 
REMARK    4  A    between atoms: C10_12  and  N2_13 
REMARK       I    between atoms: N2_13  and  C11_14 
REMARK    5  A    between atoms: C11_14  and  C12_16 
REMARK    6  A    between atoms: C13_17  and  C14_18 
REMARK    7  A    between atoms: C14_18  and  N3_19 
ROOT
HETATM    1  C2  UNL     1      21.538  -1.195  53.921  1.00  0.00     0.070 A 
HETATM    2  C3  UNL     1      21.618  -0.230  52.910  1.00  0.00     0.038 A 
HETATM    3  C4  UNL     1      22.774   0.455  52.709  1.00  0.00     0.019 A 
HETATM    4  C5  UNL     1      23.868   0.199  53.503  1.00  0.00     0.021 A 
HETATM    5  C6  UNL     1      24.992   0.946  53.232  1.00  0.00     0.067 A 
HETATM    6  C19 UNL     1      26.092   0.700  54.034  1.00  0.00     0.089 A 
HETATM    7  C20 UNL     1      27.354   1.376  53.911  1.00  0.00     0.103 C 
HETATM    8  N4  UNL     1      28.364   1.917  53.798  1.00  0.00    -0.191 NA
HETATM    9  C21 UNL     1      26.025  -0.256  55.045  1.00  0.00     0.142 A 
HETATM   10  N5  UNL     1      24.905  -0.951  55.260  1.00  0.00    -0.259 NA
HETATM   11  C22 UNL     1      23.816  -0.739  54.500  1.00  0.00     0.071 A 
HETATM   12  C23 UNL     1      22.647  -1.437  54.709  1.00  0.00     0.069 A 
ENDROOT
BRANCH   5  13
HETATM   13  N1  UNL     1      25.209   1.912  52.242  1.00  0.00    -0.353 N 
HETATM   14  H6  UNL     1      25.983   1.389  51.747  1.00  0.00     0.166 HD
BRANCH  13  15
HETATM   15  C7  UNL     1      24.750   3.169  51.814  1.00  0.00     0.050 A 
HETATM   16  C8  UNL     1      23.785   3.583  52.747  1.00  0.00     0.033 A 
HETATM   17  C9  UNL     1      23.132   4.807  52.615  1.00  0.00     0.032 A 
HETATM   18  C10 UNL     1      23.446   5.614  51.548  1.00  0.00     0.036 A 
HETATM   19  C17 UNL     1      24.393   5.206  50.634  1.00  0.00     0.051 A 
HETATM   20  C18 UNL     1      25.033   4.010  50.763  1.00  0.00     0.039 A 
HETATM   21 BR1  UNL     1      26.348   3.350  49.592  1.00  0.00    -0.049 Br
BRANCH  18  22
HETATM   22  N2  UNL     1      22.916   6.894  51.210  1.00  0.00    -0.316 N 
HETATM   23  C11 UNL     1      21.660   6.860  50.559  1.00  0.00     0.301 C 
HETATM   24  O2  UNL     1      21.013   5.796  50.274  1.00  0.00    -0.258 OA
HETATM   25  H9  UNL     1      23.388   7.803  51.407  1.00  0.00     0.170 HD
BRANCH  23  26
HETATM   26  C12 UNL     1      20.986   8.083  50.149  1.00  0.00    -0.004 C 
HETATM   27  C13 UNL     1      20.414   9.094  49.794  1.00  0.00    -0.066 C 
BRANCH  27  28
HETATM   28  C14 UNL     1      19.715  10.303  49.348  1.00  0.00     0.365 C 
BRANCH  28  29
HETATM   29  N3  UNL     1      20.739  11.168  48.790  1.00  0.00     0.090 N 
HETATM   30  C15 UNL     1      20.475  12.518  49.266  1.00  0.00     0.310 C 
HETATM   31  C16 UNL     1      20.647  11.101  47.342  1.00  0.00     0.310 C 
ENDBRANCH  28  29
ENDBRANCH  27  28
ENDBRANCH  23  26
ENDBRANCH  18  22
ENDBRANCH  13  15
ENDBRANCH   5  13
BRANCH   1  32
HETATM   32  O1  UNL     1      20.311  -1.832  54.036  1.00  0.00    -0.356 OA
HETATM   33  C1  UNL     1      19.094  -1.328  53.536  1.00  0.00     0.210 C 
ENDBRANCH   1  32
TORSDOF 7
ENDMDL
MODEL 4
REMARK VINA RESULT:      -7.9      3.233      5.237
REMARK  7 active torsions:
REMARK  status: ('A' for Active; 'I' for Inactive)
REMARK    1  A    between atoms: O1_2  and  C2_3 
REMARK    2  A    between atoms: C6_7  and  N1_8 
REMARK    3  A    between atoms: N1_8  and  C7_9 
REMARK    4  A    between atoms: C10_12  and  N2_13 
REMARK       I    between atoms: N2_13  and  C11_14 
REMARK    5  A    between atoms: C11_14  and  C12_16 
REMARK    6  A    between atoms: C13_17  and  C14_18 
REMARK    7  A    between atoms: C14_18  and  N3_19 
ROOT
HETATM    1  C2  UNL     1      19.214  -0.166  52.146  1.00  0.00     0.070 A 
HETATM    2  C3  UNL     1      20.195   0.296  51.261  1.00  0.00     0.038 A 
HETATM    3  C4  UNL     1      21.506   0.265  51.619  1.00  0.00     0.019 A 
HETATM    4  C5  UNL     1      21.867  -0.222  52.854  1.00  0.00     0.021 A 
HETATM    5  C6  UNL     1      23.216  -0.209  53.132  1.00  0.00     0.067 A 
HETATM    6  C19 UNL     1      23.583  -0.688  54.377  1.00  0.00     0.089 A 
HETATM    7  C20 UNL     1      24.937  -0.753  54.853  1.00  0.00     0.103 C 
HETATM    8  N4  UNL     1      26.026  -0.810  55.222  1.00  0.00    -0.191 NA
HETATM    9  C21 UNL     1      22.616  -1.148  55.266  1.00  0.00     0.142 A 
HETATM   10  N5  UNL     1      21.320  -1.138  54.939  1.00  0.00    -0.259 NA
HETATM   11  C22 UNL     1      20.926  -0.679  53.739  1.00  0.00     0.071 A 
HETATM   12  C23 UNL     1      19.596  -0.650  53.382  1.00  0.00     0.069 A 
ENDROOT
BRANCH   5  13
HETATM   13  N1  UNL     1      24.292   0.197  52.332  1.00  0.00    -0.353 N 
HETATM   14  H6  UNL     1      24.645  -0.778  52.125  1.00  0.00     0.166 HD
BRANCH  13  15
HETATM   15  C7  UNL     1      24.912   1.352  51.827  1.00  0.00     0.050 A 
HETATM   16  C8  UNL     1      23.895   2.136  51.258  1.00  0.00     0.033 A 
HETATM   17  C9  UNL     1      24.177   3.367  50.669  1.00  0.00     0.032 A 
HETATM   18  C10 UNL     1      25.478   3.810  50.650  1.00  0.00     0.036 A 
HETATM   19  C17 UNL     1      26.474   3.039  51.209  1.00  0.00     0.051 A 
HETATM   20  C18 UNL     1      26.198   1.835  51.786  1.00  0.00     0.039 A 
HETATM   21 BR1  UNL     1      27.464   0.700  52.589  1.00  0.00    -0.049 Br
BRANCH  18  22
HETATM   22  N2  UNL     1      26.002   5.021  50.110  1.00  0.00    -0.316 N 
HETATM   23  C11 UNL     1      26.999   4.845  49.121  1.00  0.00     0.301 C 
HETATM   24  O2  UNL     1      27.429   3.715  48.711  1.00  0.00    -0.258 OA
HETATM   25  H9  UNL     1      25.702   5.978  50.398  1.00  0.00     0.170 HD
BRANCH  23  26
HETATM   26  C12 UNL     1      27.631   5.984  48.472  1.00  0.00    -0.004 C 
HETATM   27  C13 UNL     1      28.173   6.922  47.924  1.00  0.00    -0.066 C 
BRANCH  27  28
HETATM   28  C14 UNL     1      28.844   8.041  47.256  1.00  0.00     0.365 C 
BRANCH  28  29
HETATM   29  N3  UNL     1      29.588   8.733  48.294  1.00  0.00     0.090 N 
HETATM   30  C15 UNL     1      30.568   7.797  48.825  1.00  0.00     0.310 C 
HETATM   31  C16 UNL     1      28.650   9.142  49.326  1.00  0.00     0.310 C 
ENDBRANCH  28  29
ENDBRANCH  27  28
ENDBRANCH  23  26
ENDBRANCH  18  22
ENDBRANCH  13  15
ENDBRANCH   5  13
BRANCH   1  32
HETATM   32  O1  UNL     1      17.910  -0.087  51.677  1.00  0.00    -0.356 OA
HETATM   33  C1  UNL     1      16.781  -0.588  52.353  1.00  0.00     0.210 C 
ENDBRANCH   1  32
TORSDOF 7
ENDMDL
MODEL 5
REMARK VINA RESULT:      -7.7      1.850      2.138
REMARK  7 active torsions:
REMARK  status: ('A' for Active; 'I' for Inactive)
REMARK    1  A    between atoms: O1_2  and  C2_3 
REMARK    2  A    between atoms: C6_7  and  N1_8 
REMARK    3  A    between atoms: N1_8  and  C7_9 
REMARK    4  A    between atoms: C10_12  and  N2_13 
REMARK       I    between atoms: N2_13  and  C11_14 
REMARK    5  A    between atoms: C11_14  and  C12_16 
REMARK    6  A    between atoms: C13_17  and  C14_18 
REMARK    7  A    between atoms: C14_18  and  N3_19 
ROOT
HETATM    1  C2  UNL     1      26.301  -0.047  54.041  1.00  0.00     0.070 A 
HETATM    2  C3  UNL     1      26.290   1.259  53.537  1.00  0.00     0.038 A 
HETATM    3  C4  UNL     1      25.127   1.814  53.104  1.00  0.00     0.019 A 
HETATM    4  C5  UNL     1      23.960   1.090  53.161  1.00  0.00     0.021 A 
HETATM    5  C6  UNL     1      22.834   1.731  52.694  1.00  0.00     0.067 A 
HETATM    6  C19 UNL     1      21.658   1.003  52.740  1.00  0.00     0.089 A 
HETATM    7  C20 UNL     1      20.383   1.494  52.298  1.00  0.00     0.103 C 
HETATM    8  N4  UNL     1      19.363   1.900  51.950  1.00  0.00    -0.191 NA
HETATM    9  C21 UNL     1      21.656  -0.298  53.237  1.00  0.00     0.142 A 
HETATM   10  N5  UNL     1      22.782  -0.867  53.678  1.00  0.00    -0.259 NA
HETATM   11  C22 UNL     1      23.943  -0.191  53.649  1.00  0.00     0.071 A 
HETATM   12  C23 UNL     1      25.118  -0.759  54.089  1.00  0.00     0.069 A 
ENDROOT
BRANCH   5  13
HETATM   13  N1  UNL     1      22.685   3.031  52.196  1.00  0.00    -0.353 N 
HETATM   14  H6  UNL     1      21.999   3.352  52.934  1.00  0.00     0.166 HD
BRANCH  13  15
HETATM   15  C7  UNL     1      23.127   3.868  51.158  1.00  0.00     0.050 A 
HETATM   16  C8  UNL     1      23.657   5.017  51.767  1.00  0.00     0.033 A 
HETATM   17  C9  UNL     1      24.194   6.054  51.007  1.00  0.00     0.032 A 
HETATM   18  C10 UNL     1      24.198   5.939  49.637  1.00  0.00     0.036 A 
HETATM   19  C17 UNL     1      23.677   4.810  49.042  1.00  0.00     0.051 A 
HETATM   20  C18 UNL     1      23.153   3.795  49.785  1.00  0.00     0.039 A 
HETATM   21 BR1  UNL     1      22.426   2.206  49.092  1.00  0.00    -0.049 Br
BRANCH  18  22
HETATM   22  N2  UNL     1      24.688   6.859  48.665  1.00  0.00    -0.316 N 
HETATM   23  C11 UNL     1      26.072   6.751  48.393  1.00  0.00     0.301 C 
HETATM   24  O2  UNL     1      26.863   5.915  48.946  1.00  0.00    -0.258 OA
HETATM   25  H9  UNL     1      24.103   7.571  48.174  1.00  0.00     0.170 HD
BRANCH  23  26
HETATM   26  C12 UNL     1      26.724   7.620  47.422  1.00  0.00    -0.004 C 
HETATM   27  C13 UNL     1      27.267   8.358  46.626  1.00  0.00    -0.066 C 
BRANCH  27  28
HETATM   28  C14 UNL     1      27.923   9.265  45.680  1.00  0.00     0.365 C 
BRANCH  28  29
HETATM   29  N3  UNL     1      28.540  10.301  46.491  1.00  0.00     0.090 N 
HETATM   30  C15 UNL     1      27.515  11.292  46.785  1.00  0.00     0.310 C 
HETATM   31  C16 UNL     1      29.625  10.889  45.724  1.00  0.00     0.310 C 
ENDBRANCH  28  29
ENDBRANCH  27  28
ENDBRANCH  23  26
ENDBRANCH  18  22
ENDBRANCH  13  15
ENDBRANCH   5  13
BRANCH   1  32
HETATM   32  O1  UNL     1      27.541  -0.511  54.453  1.00  0.00    -0.356 OA
HETATM   33  C1  UNL     1      28.635   0.309  54.791  1.00  0.00     0.210 C 
ENDBRANCH   1  32
TORSDOF 7
ENDMDL
MODEL 6
REMARK VINA RESULT:      -7.6      3.354      5.383
REMARK  7 active torsions:
REMARK  status: ('A' for Active; 'I' for Inactive)
REMARK    1  A    between atoms: O1_2  and  C2_3 
REMARK    2  A    between atoms: C6_7  and  N1_8 
REMARK    3  A    between atoms: N1_8  and  C7_9 
REMARK    4  A    between atoms: C10_12  and  N2_13 
REMARK       I    between atoms: N2_13  and  C11_14 
REMARK    5  A    between atoms: C11_14  and  C12_16 
REMARK    6  A    between atoms: C13_17  and  C14_18 
REMARK    7  A    between atoms: C14_18  and  N3_19 
ROOT
HETATM    1  C2  UNL     1      17.841  -0.678  52.444  1.00  0.00     0.070 A 
HETATM    2  C3  UNL     1      18.506   0.114  51.501  1.00  0.00     0.038 A 
HETATM    3  C4  UNL     1      19.851   0.293  51.587  1.00  0.00     0.019 A 
HETATM    4  C5  UNL     1      20.557  -0.305  52.603  1.00  0.00     0.021 A 
HETATM    5  C6  UNL     1      21.913  -0.062  52.615  1.00  0.00     0.067 A 
HETATM    6  C19 UNL     1      22.627  -0.653  53.641  1.00  0.00     0.089 A 
HETATM    7  C20 UNL     1      24.045  -0.517  53.826  1.00  0.00     0.103 C 
HETATM    8  N4  UNL     1      25.183  -0.410  53.960  1.00  0.00    -0.191 NA
HETATM    9  C21 UNL     1      21.976  -1.442  54.587  1.00  0.00     0.142 A 
HETATM   10  N5  UNL     1      20.657  -1.643  54.523  1.00  0.00    -0.259 NA
HETATM   11  C22 UNL     1      19.930  -1.084  53.540  1.00  0.00     0.071 A 
HETATM   12  C23 UNL     1      18.568  -1.269  53.459  1.00  0.00     0.069 A 
ENDROOT
BRANCH   5  13
HETATM   13  N1  UNL     1      22.698   0.680  51.723  1.00  0.00    -0.353 N 
HETATM   14  H6  UNL     1      23.209  -0.149  51.313  1.00  0.00     0.166 HD
BRANCH  13  15
HETATM   15  C7  UNL     1      22.939   2.001  51.309  1.00  0.00     0.050 A 
HETATM   16  C8  UNL     1      23.548   2.656  52.393  1.00  0.00     0.033 A 
HETATM   17  C9  UNL     1      23.927   3.994  52.306  1.00  0.00     0.032 A 
HETATM   18  C10 UNL     1      23.695   4.675  51.135  1.00  0.00     0.036 A 
HETATM   19  C17 UNL     1      23.097   4.030  50.074  1.00  0.00     0.051 A 
HETATM   20  C18 UNL     1      22.727   2.721  50.157  1.00  0.00     0.039 A 
HETATM   21 BR1  UNL     1      21.917   1.731  48.779  1.00  0.00    -0.049 Br
BRANCH  18  22
HETATM   22  N2  UNL     1      23.993   6.032  50.816  1.00  0.00    -0.316 N 
HETATM   23  C11 UNL     1      25.228   6.226  50.153  1.00  0.00     0.301 C 
HETATM   24  O2  UNL     1      26.046   5.296  49.843  1.00  0.00    -0.258 OA
HETATM   25  H9  UNL     1      23.376   6.843  51.041  1.00  0.00     0.170 HD
BRANCH  23  26
HETATM   26  C12 UNL     1      25.675   7.555  49.759  1.00  0.00    -0.004 C 
HETATM   27  C13 UNL     1      26.060   8.663  49.445  1.00  0.00    -0.066 C 
BRANCH  27  28
HETATM   28  C14 UNL     1      26.538  10.000  49.085  1.00  0.00     0.365 C 
BRANCH  28  29
HETATM   29  N3  UNL     1      27.961   9.856  48.832  1.00  0.00     0.090 N 
HETATM   30  C15 UNL     1      28.562  11.176  48.958  1.00  0.00     0.310 C 
HETATM   31  C16 UNL     1      28.130   9.335  47.486  1.00  0.00     0.310 C 
ENDBRANCH  28  29
ENDBRANCH  27  28
ENDBRANCH  23  26
ENDBRANCH  18  22
ENDBRANCH  13  15
ENDBRANCH   5  13
BRANCH   1  32
HETATM   32  O1  UNL     1      16.470  -0.790  52.259  1.00  0.00    -0.356 OA
HETATM   33  C1  UNL     1      15.544   0.252  52.458  1.00  0.00     0.210 C 
ENDBRANCH   1  32
TORSDOF 7
ENDMDL
MODEL 7
REMARK VINA RESULT:      -7.5      5.661     10.931
REMARK  7 active torsions:
REMARK  status: ('A' for Active; 'I' for Inactive)
REMARK    1  A    between atoms: O1_2  and  C2_3 
REMARK    2  A    between atoms: C6_7  and  N1_8 
REMARK    3  A    between atoms: N1_8  and  C7_9 
REMARK    4  A    between atoms: C10_12  and  N2_13 
REMARK       I    between atoms: N2_13  and  C11_14 
REMARK    5  A    between atoms: C11_14  and  C12_16 
REMARK    6  A    between atoms: C13_17  and  C14_18 
REMARK    7  A    between atoms: C14_18  and  N3_19 
ROOT
HETATM    1  C2  UNL     1      26.419   0.157  54.143  1.00  0.00     0.070 A 
HETATM    2  C3  UNL     1      25.446  -0.722  53.651  1.00  0.00     0.038 A 
HETATM    3  C4  UNL     1      24.316  -0.236  53.074  1.00  0.00     0.019 A 
HETATM    4  C5  UNL     1      24.128   1.123  52.975  1.00  0.00     0.021 A 
HETATM    5  C6  UNL     1      22.951   1.523  52.383  1.00  0.00     0.067 A 
HETATM    6  C19 UNL     1      22.752   2.889  52.290  1.00  0.00     0.089 A 
HETATM    7  C20 UNL     1      21.589   3.501  51.709  1.00  0.00     0.103 C 
HETATM    8  N4  UNL     1      20.658   3.983  51.233  1.00  0.00    -0.191 NA
HETATM    9  C21 UNL     1      23.710   3.773  52.777  1.00  0.00     0.142 A 
HETATM   10  N5  UNL     1      24.836   3.325  53.341  1.00  0.00    -0.259 NA
HETATM   11  C22 UNL     1      25.063   2.005  53.449  1.00  0.00     0.071 A 
HETATM   12  C23 UNL     1      26.211   1.519  54.035  1.00  0.00     0.069 A 
ENDROOT
BRANCH   5  13
HETATM   13  N1  UNL     1      21.919   0.754  51.830  1.00  0.00    -0.353 N 
HETATM   14  H6  UNL     1      22.397   0.582  50.902  1.00  0.00     0.166 HD
BRANCH  13  15
HETATM   15  C7  UNL     1      20.645   0.245  52.132  1.00  0.00     0.050 A 
HETATM   16  C8  UNL     1      19.857   0.430  50.984  1.00  0.00     0.033 A 
HETATM   17  C9  UNL     1      18.525   0.021  50.949  1.00  0.00     0.032 A 
HETATM   18  C10 UNL     1      17.985  -0.572  52.065  1.00  0.00     0.036 A 
HETATM   19  C17 UNL     1      18.760  -0.752  53.190  1.00  0.00     0.051 A 
HETATM   20  C18 UNL     1      20.063  -0.353  53.224  1.00  0.00     0.039 A 
HETATM   21 BR1  UNL     1      21.222  -0.555  54.691  1.00  0.00    -0.049 Br
BRANCH  18  22
HETATM   22  N2  UNL     1      16.662  -1.066  52.262  1.00  0.00    -0.316 N 
HETATM   23  C11 UNL     1      15.679  -0.065  52.450  1.00  0.00     0.301 C 
HETATM   24  O2  UNL     1      15.907   1.192  52.451  1.00  0.00    -0.258 OA
HETATM   25  H9  UNL     1      16.401  -2.076  52.276  1.00  0.00     0.170 HD
BRANCH  23  26
HETATM   26  C12 UNL     1      14.280  -0.407  52.662  1.00  0.00    -0.004 C 
HETATM   27  C13 UNL     1      13.114  -0.683  52.856  1.00  0.00    -0.066 C 
BRANCH  27  28
HETATM   28  C14 UNL     1      11.707  -1.005  53.110  1.00  0.00     0.365 C 
BRANCH  28  29
HETATM   29  N3  UNL     1      11.202   0.066  53.951  1.00  0.00     0.090 N 
HETATM   30  C15 UNL     1      11.334  -0.366  55.334  1.00  0.00     0.310 C 
HETATM   31  C16 UNL     1       9.808   0.291  53.608  1.00  0.00     0.310 C 
ENDBRANCH  28  29
ENDBRANCH  27  28
ENDBRANCH  23  26
ENDBRANCH  18  22
ENDBRANCH  13  15
ENDBRANCH   5  13
BRANCH   1  32
HETATM   32  O1  UNL     1      27.530  -0.449  54.710  1.00  0.00    -0.356 OA
HETATM   33  C1  UNL     1      28.865  -0.073  54.462  1.00  0.00     0.210 C 
ENDBRANCH   1  32
TORSDOF 7
ENDMDL
MODEL 8
REMARK VINA RESULT:      -7.5      4.178      4.846
REMARK  7 active torsions:
REMARK  status: ('A' for Active; 'I' for Inactive)
REMARK    1  A    between atoms: O1_2  and  C2_3 
REMARK    2  A    between atoms: C6_7  and  N1_8 
REMARK    3  A    between atoms: N1_8  and  C7_9 
REMARK    4  A    between atoms: C10_12  and  N2_13 
REMARK       I    between atoms: N2_13  and  C11_14 
REMARK    5  A    between atoms: C11_14  and  C12_16 
REMARK    6  A    between atoms: C13_17  and  C14_18 
REMARK    7  A    between atoms: C14_18  and  N3_19 
ROOT
HETATM    1  C2  UNL     1      25.925  -0.320  54.196  1.00  0.00     0.070 A 
HETATM    2  C3  UNL     1      25.621   0.396  53.032  1.00  0.00     0.038 A 
HETATM    3  C4  UNL     1      24.334   0.492  52.606  1.00  0.00     0.019 A 
HETATM    4  C5  UNL     1      23.330  -0.118  53.320  1.00  0.00     0.021 A 
HETATM    5  C6  UNL     1      22.059   0.027  52.810  1.00  0.00     0.067 A 
HETATM    6  C19 UNL     1      21.046  -0.593  53.519  1.00  0.00     0.089 A 
HETATM    7  C20 UNL     1      19.659  -0.561  53.147  1.00  0.00     0.103 C 
HETATM    8  N4  UNL     1      18.548  -0.521  52.846  1.00  0.00    -0.191 NA
HETATM    9  C21 UNL     1      21.335  -1.310  54.676  1.00  0.00     0.142 A 
HETATM   10  N5  UNL     1      22.590  -1.415  55.125  1.00  0.00    -0.259 NA
HETATM   11  C22 UNL     1      23.600  -0.826  54.462  1.00  0.00     0.071 A 
HETATM   12  C23 UNL     1      24.903  -0.927  54.899  1.00  0.00     0.069 A 
ENDROOT
BRANCH   5  13
HETATM   13  N1  UNL     1      21.621   0.733  51.682  1.00  0.00    -0.353 N 
HETATM   14  H6  UNL     1      21.219  -0.104  51.179  1.00  0.00     0.166 HD
BRANCH  13  15
HETATM   15  C7  UNL     1      21.586   2.031  51.144  1.00  0.00     0.050 A 
HETATM   16  C8  UNL     1      21.490   2.914  52.232  1.00  0.00     0.033 A 
HETATM   17  C9  UNL     1      21.441   4.293  52.040  1.00  0.00     0.032 A 
HETATM   18  C10 UNL     1      21.487   4.786  50.758  1.00  0.00     0.036 A 
HETATM   19  C17 UNL     1      21.580   3.917  49.692  1.00  0.00     0.051 A 
HETATM   20  C18 UNL     1      21.630   2.568  49.879  1.00  0.00     0.039 A 
HETATM   21 BR1  UNL     1      21.769   1.286  48.511  1.00  0.00    -0.049 Br
BRANCH  18  22
HETATM   22  N2  UNL     1      21.451   6.142  50.320  1.00  0.00    -0.316 N 
HETATM   23  C11 UNL     1      20.180   6.591  49.889  1.00  0.00     0.301 C 
HETATM   24  O2  UNL     1      19.120   5.879  49.873  1.00  0.00    -0.258 OA
HETATM   25  H9  UNL     1      22.275   6.781  50.302  1.00  0.00     0.170 HD
BRANCH  23  26
HETATM   26  C12 UNL     1      19.979   7.952  49.413  1.00  0.00    -0.004 C 
HETATM   27  C13 UNL     1      19.813   9.094  49.034  1.00  0.00    -0.066 C 
BRANCH  27  28
HETATM   28  C14 UNL     1      19.617  10.480  48.599  1.00  0.00     0.365 C 
BRANCH  28  29
HETATM   29  N3  UNL     1      20.842  11.179  48.943  1.00  0.00     0.090 N 
HETATM   30  C15 UNL     1      20.478  12.538  49.316  1.00  0.00     0.310 C 
HETATM   31  C16 UNL     1      21.709  11.176  47.778  1.00  0.00     0.310 C 
ENDBRANCH  28  29
ENDBRANCH  27  28
ENDBRANCH  23  26
ENDBRANCH  18  22
ENDBRANCH  13  15
ENDBRANCH   5  13
BRANCH   1  32
HETATM   32  O1  UNL     1      27.270  -0.352  54.536  1.00  0.00    -0.356 OA
HETATM   33  C1  UNL     1      28.160   0.731  54.397  1.00  0.00     0.210 C 
ENDBRANCH   1  32
TORSDOF 7
ENDMDL
MODEL 9
REMARK VINA RESULT:      -7.4      1.760      2.088
REMARK  7 active torsions:
REMARK  status: ('A' for Active; 'I' for Inactive)
REMARK    1  A    between atoms: O1_2  and  C2_3 
REMARK    2  A    between atoms: C6_7  and  N1_8 
REMARK    3  A    between atoms: N1_8  and  C7_9 
REMARK    4  A    between atoms: C10_12  and  N2_13 
REMARK       I    between atoms: N2_13  and  C11_14 
REMARK    5  A    between atoms: C11_14  and  C12_16 
REMARK    6  A    between atoms: C13_17  and  C14_18 
REMARK    7  A    between atoms: C14_18  and  N3_19 
ROOT
HETATM    1  C2  UNL     1      26.474   0.149  53.798  1.00  0.00     0.070 A 
HETATM    2  C3  UNL     1      26.851   1.490  53.659  1.00  0.00     0.038 A 
HETATM    3  C4  UNL     1      25.963   2.403  53.184  1.00  0.00     0.019 A 
HETATM    4  C5  UNL     1      24.692   2.006  52.839  1.00  0.00     0.021 A 
HETATM    5  C6  UNL     1      23.864   2.997  52.360  1.00  0.00     0.067 A 
HETATM    6  C19 UNL     1      22.588   2.602  52.003  1.00  0.00     0.089 A 
HETATM    7  C20 UNL     1      21.581   3.485  51.482  1.00  0.00     0.103 C 
HETATM    8  N4  UNL     1      20.778   4.202  51.074  1.00  0.00    -0.191 NA
HETATM    9  C21 UNL     1      22.202   1.271  52.135  1.00  0.00     0.142 A 
HETATM   10  N5  UNL     1      23.050   0.352  52.607  1.00  0.00    -0.259 NA
HETATM   11  C22 UNL     1      24.298   0.700  52.965  1.00  0.00     0.071 A 
HETATM   12  C23 UNL     1      25.193  -0.230  53.445  1.00  0.00     0.069 A 
ENDROOT
BRANCH   5  13
HETATM   13  N1  UNL     1      24.106   4.367  52.200  1.00  0.00    -0.353 N 
HETATM   14  H6  UNL     1      23.944   4.625  53.212  1.00  0.00     0.166 HD
BRANCH  13  15
HETATM   15  C7  UNL     1      24.446   5.316  51.220  1.00  0.00     0.050 A 
HETATM   16  C8  UNL     1      23.800   6.510  51.578  1.00  0.00     0.033 A 
HETATM   17  C9  UNL     1      23.937   7.664  50.808  1.00  0.00     0.032 A 
HETATM   18  C10 UNL     1      24.722   7.618  49.681  1.00  0.00     0.036 A 
HETATM   19  C17 UNL     1      25.355   6.445  49.332  1.00  0.00     0.051 A 
HETATM   20  C18 UNL     1      25.221   5.317  50.085  1.00  0.00     0.039 A 
HETATM   21 BR1  UNL     1      26.041   3.664  49.720  1.00  0.00    -0.049 Br
BRANCH  18  22
HETATM   22  N2  UNL     1      25.008   8.659  48.749  1.00  0.00    -0.316 N 
HETATM   23  C11 UNL     1      25.977   9.593  49.185  1.00  0.00     0.301 C 
HETATM   24  O2  UNL     1      26.576   9.553  50.313  1.00  0.00    -0.258 OA
HETATM   25  H9  UNL     1      24.558   8.757  47.813  1.00  0.00     0.170 HD
BRANCH  23  26
HETATM   26  C12 UNL     1      26.380  10.714  48.348  1.00  0.00    -0.004 C 
HETATM   27  C13 UNL     1      26.701  11.659  47.656  1.00  0.00    -0.066 C 
BRANCH  27  28
HETATM   28  C14 UNL     1      27.071  12.811  46.829  1.00  0.00     0.365 C 
BRANCH  28  29
HETATM   29  N3  UNL     1      27.623  13.793  47.745  1.00  0.00     0.090 N 
HETATM   30  C15 UNL     1      27.585  15.084  47.074  1.00  0.00     0.310 C 
HETATM   31  C16 UNL     1      28.990  13.408  48.051  1.00  0.00     0.310 C 
ENDBRANCH  28  29
ENDBRANCH  27  28
ENDBRANCH  23  26
ENDBRANCH  18  22
ENDBRANCH  13  15
ENDBRANCH   5  13
BRANCH   1  32
HETATM   32  O1  UNL     1      27.459  -0.693  54.292  1.00  0.00    -0.356 OA
HETATM   33  C1  UNL     1      28.844  -0.449  54.204  1.00  0.00     0.210 C 
ENDBRANCH   1  32
TORSDOF 7
ENDMDL
