MODEL 1
REMARK VINA RESULT:      -8.8      0.000      0.000
REMARK  6 active torsions:
REMARK  status: ('A' for Active; 'I' for Inactive)
REMARK    1  A    between atoms: C7_8  and  N1_9 
REMARK    2  A    between atoms: N1_9  and  C8_10 
REMARK    3  A    between atoms: C11_16  and  N4_17 
REMARK       I    between atoms: N4_17  and  C13_19 
REMARK    4  A    between atoms: C13_19  and  C14_21 
REMARK    5  A    between atoms: C15_22  and  C16_23 
REMARK    6  A    between atoms: C16_23  and  N5_24 
ROOT
HETATM    1  C8  UNL     1      25.035   1.094  52.795  1.00  0.00     0.154 C 
HETATM    2  N2  UNL     1      24.080   0.372  53.281  1.00  0.00    -0.238 NA
HETATM    3  C9  UNL     1      22.887   0.275  52.494  1.00  0.00     0.260 C 
HETATM    4  N3  UNL     1      21.708  -0.201  53.095  1.00  0.00    -0.351 N 
HETATM    5  C10 UNL     1      20.426   0.158  52.617  1.00  0.00     0.128 C 
HETATM    6 CL1  UNL     1      19.232  -0.820  53.388  1.00  0.00    -0.062 Cl
HETATM    7  C11 UNL     1      20.191   1.088  51.721  1.00  0.00     0.077 C 
HETATM    8  C19 UNL     1      21.404   1.678  51.201  1.00  0.00     0.062 C 
HETATM    9  C20 UNL     1      22.637   1.348  51.531  1.00  0.00     0.064 C 
HETATM   10  N6  UNL     1      23.761   2.079  51.033  1.00  0.00    -0.301 N 
HETATM   11  C21 UNL     1      23.912   2.930  50.003  1.00  0.00     0.214 A 
HETATM   12  N7  UNL     1      25.172   3.381  49.937  1.00  0.00    -0.253 NA
HETATM   13  C22 UNL     1      25.853   2.802  50.954  1.00  0.00     0.151 A 
HETATM   14  C23 UNL     1      24.982   1.988  51.644  1.00  0.00     0.104 A 
HETATM   15  H9  UNL     1      21.982  -0.815  53.890  1.00  0.00     0.163 HD
ENDROOT
BRANCH   1  16
HETATM   16  N1  UNL     1      26.223   1.167  53.573  1.00  0.00    -0.339 N 
HETATM   17  H7  UNL     1      26.239   1.931  54.316  1.00  0.00     0.167 HD
BRANCH  16  18
HETATM   18  C7  UNL     1      27.370   0.336  53.467  1.00  0.00     0.042 A 
HETATM   19  C2  UNL     1      28.639   0.918  53.593  1.00  0.00    -0.035 A 
HETATM   20  C1  UNL     1      28.743   2.396  53.835  1.00  0.00     0.050 C 
HETATM   21  C3  UNL     1      29.794   0.176  53.505  1.00  0.00     0.012 A 
HETATM   22  C4  UNL     1      29.765  -1.183  53.285  1.00  0.00     0.043 A 
HETATM   23  C5  UNL     1      28.526  -1.787  53.155  1.00  0.00     0.118 A 
HETATM   24  F1  UNL     1      28.473  -3.114  52.940  1.00  0.00    -0.206 F 
HETATM   25  C6  UNL     1      27.399  -0.999  53.252  1.00  0.00     0.072 A 
ENDBRANCH  16  18
ENDBRANCH   1  16
BRANCH   7  26
HETATM   26  N4  UNL     1      18.932   1.449  51.259  1.00  0.00    -0.316 N 
HETATM   27  C12 UNL     1      18.210   0.434  50.499  1.00  0.00     0.159 C 
HETATM   28  C13 UNL     1      18.114   2.589  51.413  1.00  0.00     0.247 C 
HETATM   29  O1  UNL     1      18.243   3.651  52.074  1.00  0.00    -0.268 OA
BRANCH  28  30
HETATM   30  C14 UNL     1      16.808   2.735  50.730  1.00  0.00     0.072 C 
HETATM   31  C15 UNL     1      15.499   3.087  50.823  1.00  0.00     0.008 C 
BRANCH  31  32
HETATM   32  C16 UNL     1      14.414   3.091  49.799  1.00  0.00     0.299 C 
BRANCH  32  33
HETATM   33  N5  UNL     1      13.143   3.106  50.480  1.00  0.00     0.083 N 
HETATM   34  C17 UNL     1      13.190   2.099  51.506  1.00  0.00     0.309 C 
HETATM   35  C18 UNL     1      12.885   4.381  51.093  1.00  0.00     0.309 C 
ENDBRANCH  32  33
ENDBRANCH  31  32
ENDBRANCH  28  30
ENDBRANCH   7  26
TORSDOF 6
ENDMDL
MODEL 2
REMARK VINA RESULT:      -8.7      2.214      3.468
REMARK  6 active torsions:
REMARK  status: ('A' for Active; 'I' for Inactive)
REMARK    1  A    between atoms: C7_8  and  N1_9 
REMARK    2  A    between atoms: N1_9  and  C8_10 
REMARK    3  A    between atoms: C11_16  and  N4_17 
REMARK       I    between atoms: N4_17  and  C13_19 
REMARK    4  A    between atoms: C13_19  and  C14_21 
REMARK    5  A    between atoms: C15_22  and  C16_23 
REMARK    6  A    between atoms: C16_23  and  N5_24 
ROOT
HETATM    1  C8  UNL     1      24.922  -0.216  53.409  1.00  0.00     0.154 C 
HETATM    2  N2  UNL     1      24.978   0.660  52.460  1.00  0.00    -0.238 NA
HETATM    3  C9  UNL     1      23.808   1.464  52.264  1.00  0.00     0.260 C 
HETATM    4  N3  UNL     1      23.668   2.186  51.065  1.00  0.00    -0.351 N 
HETATM    5  C10 UNL     1      22.401   2.543  50.548  1.00  0.00     0.128 C 
HETATM    6 CL1  UNL     1      22.604   3.656  49.245  1.00  0.00    -0.062 Cl
HETATM    7  C11 UNL     1      21.252   2.098  51.001  1.00  0.00     0.077 C 
HETATM    8  C19 UNL     1      21.405   1.240  52.154  1.00  0.00     0.062 C 
HETATM    9  C20 UNL     1      22.538   0.921  52.747  1.00  0.00     0.064 C 
HETATM   10  N6  UNL     1      22.578  -0.029  53.816  1.00  0.00    -0.301 N 
HETATM   11  C21 UNL     1      21.629  -0.526  54.629  1.00  0.00     0.214 A 
HETATM   12  N7  UNL     1      22.153  -1.416  55.484  1.00  0.00    -0.253 NA
HETATM   13  C22 UNL     1      23.477  -1.492  55.214  1.00  0.00     0.151 A 
HETATM   14  C23 UNL     1      23.753  -0.631  54.174  1.00  0.00     0.104 A 
HETATM   15  H9  UNL     1      24.623   2.372  50.692  1.00  0.00     0.163 HD
ENDROOT
BRANCH   1  16
HETATM   16  N1  UNL     1      26.095  -0.994  53.610  1.00  0.00    -0.339 N 
HETATM   17  H7  UNL     1      25.937  -2.043  53.718  1.00  0.00     0.167 HD
BRANCH  16  18
HETATM   18  C7  UNL     1      27.433  -0.526  53.679  1.00  0.00     0.042 A 
HETATM   19  C2  UNL     1      28.469  -1.379  53.276  1.00  0.00    -0.035 A 
HETATM   20  C1  UNL     1      28.130  -2.759  52.788  1.00  0.00     0.050 C 
HETATM   21  C3  UNL     1      29.789  -0.993  53.311  1.00  0.00     0.012 A 
HETATM   22  C4  UNL     1      30.165   0.257  53.747  1.00  0.00     0.043 A 
HETATM   23  C5  UNL     1      29.164   1.124  54.153  1.00  0.00     0.118 A 
HETATM   24  F1  UNL     1      29.507   2.352  54.583  1.00  0.00    -0.206 F 
HETATM   25  C6  UNL     1      27.857   0.688  54.098  1.00  0.00     0.072 A 
ENDBRANCH  16  18
ENDBRANCH   1  16
BRANCH   7  26
HETATM   26  N4  UNL     1      20.008   2.440  50.488  1.00  0.00    -0.316 N 
HETATM   27  C12 UNL     1      19.661   1.856  49.197  1.00  0.00     0.159 C 
HETATM   28  C13 UNL     1      18.917   3.197  50.968  1.00  0.00     0.247 C 
HETATM   29  O1  UNL     1      18.694   3.778  52.061  1.00  0.00    -0.268 OA
BRANCH  28  30
HETATM   30  C14 UNL     1      17.708   3.463  50.155  1.00  0.00     0.072 C 
HETATM   31  C15 UNL     1      16.959   4.374  49.480  1.00  0.00     0.008 C 
BRANCH  31  32
HETATM   32  C16 UNL     1      15.685   4.219  48.720  1.00  0.00     0.299 C 
BRANCH  32  33
HETATM   33  N5  UNL     1      14.587   4.524  49.603  1.00  0.00     0.083 N 
HETATM   34  C17 UNL     1      13.683   5.384  48.888  1.00  0.00     0.309 C 
HETATM   35  C18 UNL     1      13.880   3.337  50.002  1.00  0.00     0.309 C 
ENDBRANCH  32  33
ENDBRANCH  31  32
ENDBRANCH  28  30
ENDBRANCH   7  26
TORSDOF 6
ENDMDL
MODEL 3
REMARK VINA RESULT:      -8.7      2.118      3.255
REMARK  6 active torsions:
REMARK  status: ('A' for Active; 'I' for Inactive)
REMARK    1  A    between atoms: C7_8  and  N1_9 
REMARK    2  A    between atoms: N1_9  and  C8_10 
REMARK    3  A    between atoms: C11_16  and  N4_17 
REMARK       I    between atoms: N4_17  and  C13_19 
REMARK    4  A    between atoms: C13_19  and  C14_21 
REMARK    5  A    between atoms: C15_22  and  C16_23 
REMARK    6  A    between atoms: C16_23  and  N5_24 
ROOT
HETATM    1  C8  UNL     1      24.262   0.540  52.284  1.00  0.00     0.154 C 
HETATM    2  N2  UNL     1      23.781   1.398  51.446  1.00  0.00    -0.238 NA
HETATM    3  C9  UNL     1      22.498   1.951  51.764  1.00  0.00     0.260 C 
HETATM    4  N3  UNL     1      21.774   2.617  50.759  1.00  0.00    -0.351 N 
HETATM    5  C10 UNL     1      20.362   2.709  50.789  1.00  0.00     0.128 C 
HETATM    6 CL1  UNL     1      19.834   3.824  49.583  1.00  0.00    -0.062 Cl
HETATM    7  C11 UNL     1      19.583   2.051  51.615  1.00  0.00     0.077 C 
HETATM    8  C19 UNL     1      20.328   1.254  52.564  1.00  0.00     0.062 C 
HETATM    9  C20 UNL     1      21.640   1.173  52.657  1.00  0.00     0.064 C 
HETATM   10  N6  UNL     1      22.267   0.263  53.566  1.00  0.00    -0.301 N 
HETATM   11  C21 UNL     1      21.819  -0.402  54.645  1.00  0.00     0.214 A 
HETATM   12  N7  UNL     1      22.789  -1.160  55.175  1.00  0.00    -0.253 NA
HETATM   13  C22 UNL     1      23.894  -0.976  54.416  1.00  0.00     0.151 A 
HETATM   14  C23 UNL     1      23.580  -0.090  53.409  1.00  0.00     0.104 A 
HETATM   15  H9  UNL     1      22.456   2.984  50.064  1.00  0.00     0.163 HD
ENDROOT
BRANCH   1  16
HETATM   16  N1  UNL     1      25.545   0.012  51.972  1.00  0.00    -0.339 N 
HETATM   17  H7  UNL     1      25.573  -0.670  51.153  1.00  0.00     0.167 HD
BRANCH  16  18
HETATM   18  C7  UNL     1      26.772   0.297  52.627  1.00  0.00     0.042 A 
HETATM   19  C2  UNL     1      27.602  -0.769  52.999  1.00  0.00    -0.035 A 
HETATM   20  C1  UNL     1      27.166  -2.174  52.697  1.00  0.00     0.050 C 
HETATM   21  C3  UNL     1      28.806  -0.569  53.634  1.00  0.00     0.012 A 
HETATM   22  C4  UNL     1      29.262   0.693  53.939  1.00  0.00     0.043 A 
HETATM   23  C5  UNL     1      28.464   1.768  53.583  1.00  0.00     0.118 A 
HETATM   24  F1  UNL     1      28.889   3.012  53.870  1.00  0.00    -0.206 F 
HETATM   25  C6  UNL     1      27.266   1.514  52.949  1.00  0.00     0.072 A 
ENDBRANCH  16  18
ENDBRANCH   1  16
BRANCH   7  26
HETATM   26  N4  UNL     1      18.197   2.133  51.639  1.00  0.00    -0.316 N 
HETATM   27  C12 UNL     1      17.477   0.867  51.573  1.00  0.00     0.159 C 
HETATM   28  C13 UNL     1      17.274   3.191  51.788  1.00  0.00     0.247 C 
HETATM   29  O1  UNL     1      17.412   4.422  52.001  1.00  0.00    -0.268 OA
BRANCH  28  30
HETATM   30  C14 UNL     1      15.809   2.993  51.701  1.00  0.00     0.072 C 
HETATM   31  C15 UNL     1      14.607   3.039  52.332  1.00  0.00     0.008 C 
BRANCH  31  32
HETATM   32  C16 UNL     1      13.233   2.733  51.839  1.00  0.00     0.299 C 
BRANCH  32  33
HETATM   33  N5  UNL     1      12.281   3.215  52.808  1.00  0.00     0.083 N 
HETATM   34  C17 UNL     1      12.355   2.350  53.955  1.00  0.00     0.309 C 
HETATM   35  C18 UNL     1      12.579   4.559  53.222  1.00  0.00     0.309 C 
ENDBRANCH  32  33
ENDBRANCH  31  32
ENDBRANCH  28  30
ENDBRANCH   7  26
TORSDOF 6
ENDMDL
MODEL 4
REMARK VINA RESULT:      -8.4      6.256     10.093
REMARK  6 active torsions:
REMARK  status: ('A' for Active; 'I' for Inactive)
REMARK    1  A    between atoms: C7_8  and  N1_9 
REMARK    2  A    between atoms: N1_9  and  C8_10 
REMARK    3  A    between atoms: C11_16  and  N4_17 
REMARK       I    between atoms: N4_17  and  C13_19 
REMARK    4  A    between atoms: C13_19  and  C14_21 
REMARK    5  A    between atoms: C15_22  and  C16_23 
REMARK    6  A    between atoms: C16_23  and  N5_24 
ROOT
HETATM    1  C8  UNL     1      23.953   3.056  50.569  1.00  0.00     0.154 C 
HETATM    2  N2  UNL     1      25.156   3.055  50.099  1.00  0.00    -0.238 NA
HETATM    3  C9  UNL     1      25.854   4.307  50.124  1.00  0.00     0.260 C 
HETATM    4  N3  UNL     1      27.011   4.460  49.340  1.00  0.00    -0.351 N 
HETATM    5  C10 UNL     1      27.440   5.726  48.876  1.00  0.00     0.128 C 
HETATM    6 CL1  UNL     1      29.024   5.586  48.207  1.00  0.00    -0.062 Cl
HETATM    7  C11 UNL     1      26.737   6.832  48.953  1.00  0.00     0.077 C 
HETATM    8  C19 UNL     1      25.479   6.644  49.640  1.00  0.00     0.062 C 
HETATM    9  C20 UNL     1      25.039   5.521  50.171  1.00  0.00     0.064 C 
HETATM   10  N6  UNL     1      23.725   5.427  50.730  1.00  0.00    -0.301 N 
HETATM   11  C21 UNL     1      22.837   6.353  51.132  1.00  0.00     0.214 A 
HETATM   12  N7  UNL     1      21.715   5.773  51.582  1.00  0.00    -0.253 NA
HETATM   13  C22 UNL     1      21.887   4.436  51.467  1.00  0.00     0.151 A 
HETATM   14  C23 UNL     1      23.138   4.208  50.936  1.00  0.00     0.104 A 
HETATM   15  H9  UNL     1      27.429   3.516  49.201  1.00  0.00     0.163 HD
ENDROOT
BRANCH   1  16
HETATM   16  N1  UNL     1      23.276   1.805  50.559  1.00  0.00    -0.339 N 
HETATM   17  H7  UNL     1      22.890   1.500  49.614  1.00  0.00     0.167 HD
BRANCH  16  18
HETATM   18  C7  UNL     1      23.070   0.934  51.661  1.00  0.00     0.042 A 
HETATM   19  C2  UNL     1      21.812   0.339  51.825  1.00  0.00    -0.035 A 
HETATM   20  C1  UNL     1      20.726   0.643  50.832  1.00  0.00     0.050 C 
HETATM   21  C3  UNL     1      21.539  -0.518  52.866  1.00  0.00     0.012 A 
HETATM   22  C4  UNL     1      22.491  -0.837  53.808  1.00  0.00     0.043 A 
HETATM   23  C5  UNL     1      23.744  -0.265  53.673  1.00  0.00     0.118 A 
HETATM   24  F1  UNL     1      24.692  -0.562  54.582  1.00  0.00    -0.206 F 
HETATM   25  C6  UNL     1      23.966   0.587  52.612  1.00  0.00     0.072 A 
ENDBRANCH  16  18
ENDBRANCH   1  16
BRANCH   7  26
HETATM   26  N4  UNL     1      27.153   8.073  48.488  1.00  0.00    -0.316 N 
HETATM   27  C12 UNL     1      27.142   8.254  47.041  1.00  0.00     0.159 C 
HETATM   28  C13 UNL     1      27.535   9.281  49.110  1.00  0.00     0.247 C 
HETATM   29  O1  UNL     1      27.577   9.649  50.312  1.00  0.00    -0.268 OA
BRANCH  28  30
HETATM   30  C14 UNL     1      28.013  10.457  48.347  1.00  0.00     0.072 C 
HETATM   31  C15 UNL     1      28.656  11.654  48.370  1.00  0.00     0.008 C 
BRANCH  31  32
HETATM   32  C16 UNL     1      28.959  12.620  47.275  1.00  0.00     0.299 C 
BRANCH  32  33
HETATM   33  N5  UNL     1      28.647  13.949  47.738  1.00  0.00     0.083 N 
HETATM   34  C17 UNL     1      29.041  14.871  46.707  1.00  0.00     0.309 C 
HETATM   35  C18 UNL     1      27.240  14.107  47.989  1.00  0.00     0.309 C 
ENDBRANCH  32  33
ENDBRANCH  31  32
ENDBRANCH  28  30
ENDBRANCH   7  26
TORSDOF 6
ENDMDL
MODEL 5
REMARK VINA RESULT:      -8.3      1.994      3.165
REMARK  6 active torsions:
REMARK  status: ('A' for Active; 'I' for Inactive)
REMARK    1  A    between atoms: C7_8  and  N1_9 
REMARK    2  A    between atoms: N1_9  and  C8_10 
REMARK    3  A    between atoms: C11_16  and  N4_17 
REMARK       I    between atoms: N4_17  and  C13_19 
REMARK    4  A    between atoms: C13_19  and  C14_21 
REMARK    5  A    between atoms: C15_22  and  C16_23 
REMARK    6  A    between atoms: C16_23  and  N5_24 
ROOT
HETATM    1  C8  UNL     1      23.839   0.814  52.422  1.00  0.00     0.154 C 
HETATM    2  N2  UNL     1      23.363   1.706  51.616  1.00  0.00    -0.238 NA
HETATM    3  C9  UNL     1      22.048   2.194  51.908  1.00  0.00     0.260 C 
HETATM    4  N3  UNL     1      21.344   2.896  50.913  1.00  0.00    -0.351 N 
HETATM    5  C10 UNL     1      19.930   2.938  50.884  1.00  0.00     0.128 C 
HETATM    6 CL1  UNL     1      19.414   4.108  49.726  1.00  0.00    -0.062 Cl
HETATM    7  C11 UNL     1      19.141   2.202  51.632  1.00  0.00     0.077 C 
HETATM    8  C19 UNL     1      19.873   1.374  52.564  1.00  0.00     0.062 C 
HETATM    9  C20 UNL     1      21.181   1.332  52.712  1.00  0.00     0.064 C 
HETATM   10  N6  UNL     1      21.801   0.389  53.591  1.00  0.00    -0.301 N 
HETATM   11  C21 UNL     1      21.331  -0.358  54.605  1.00  0.00     0.214 A 
HETATM   12  N7  UNL     1      22.304  -1.113  55.132  1.00  0.00    -0.253 NA
HETATM   13  C22 UNL     1      23.434  -0.844  54.437  1.00  0.00     0.151 A 
HETATM   14  C23 UNL     1      23.132   0.092  53.473  1.00  0.00     0.104 A 
HETATM   15  H9  UNL     1      22.042   3.329  50.274  1.00  0.00     0.163 HD
ENDROOT
BRANCH   1  16
HETATM   16  N1  UNL     1      25.153   0.351  52.137  1.00  0.00    -0.339 N 
HETATM   17  H7  UNL     1      25.229  -0.350  51.337  1.00  0.00     0.167 HD
BRANCH  16  18
HETATM   18  C7  UNL     1      26.354   0.722  52.796  1.00  0.00     0.042 A 
HETATM   19  C2  UNL     1      27.074   1.825  52.318  1.00  0.00    -0.035 A 
HETATM   20  C1  UNL     1      26.553   2.575  51.126  1.00  0.00     0.050 C 
HETATM   21  C3  UNL     1      28.243   2.245  52.908  1.00  0.00     0.012 A 
HETATM   22  C4  UNL     1      28.773   1.601  54.003  1.00  0.00     0.043 A 
HETATM   23  C5  UNL     1      28.085   0.507  54.499  1.00  0.00     0.118 A 
HETATM   24  F1  UNL     1      28.582  -0.139  55.570  1.00  0.00    -0.206 F 
HETATM   25  C6  UNL     1      26.917   0.127  53.872  1.00  0.00     0.072 A 
ENDBRANCH  16  18
ENDBRANCH   1  16
BRANCH   7  26
HETATM   26  N4  UNL     1      17.753   2.235  51.597  1.00  0.00    -0.316 N 
HETATM   27  C12 UNL     1      17.088   0.983  51.255  1.00  0.00     0.159 C 
HETATM   28  C13 UNL     1      16.782   3.216  51.893  1.00  0.00     0.247 C 
HETATM   29  O1  UNL     1      16.859   4.388  52.342  1.00  0.00    -0.268 OA
BRANCH  28  30
HETATM   30  C14 UNL     1      15.332   2.993  51.692  1.00  0.00     0.072 C 
HETATM   31  C15 UNL     1      14.129   3.518  51.339  1.00  0.00     0.008 C 
BRANCH  31  32
HETATM   32  C16 UNL     1      12.777   2.893  51.259  1.00  0.00     0.299 C 
BRANCH  32  33
HETATM   33  N5  UNL     1      12.053   3.214  52.464  1.00  0.00     0.083 N 
HETATM   34  C17 UNL     1      12.322   2.175  53.421  1.00  0.00     0.309 C 
HETATM   35  C18 UNL     1      12.475   4.473  53.017  1.00  0.00     0.309 C 
ENDBRANCH  32  33
ENDBRANCH  31  32
ENDBRANCH  28  30
ENDBRANCH   7  26
TORSDOF 6
ENDMDL
MODEL 6
REMARK VINA RESULT:      -8.3      3.298      4.485
REMARK  6 active torsions:
REMARK  status: ('A' for Active; 'I' for Inactive)
REMARK    1  A    between atoms: C7_8  and  N1_9 
REMARK    2  A    between atoms: N1_9  and  C8_10 
REMARK    3  A    between atoms: C11_16  and  N4_17 
REMARK       I    between atoms: N4_17  and  C13_19 
REMARK    4  A    between atoms: C13_19  and  C14_21 
REMARK    5  A    between atoms: C15_22  and  C16_23 
REMARK    6  A    between atoms: C16_23  and  N5_24 
ROOT
HETATM    1  C8  UNL     1      24.604   0.049  53.727  1.00  0.00     0.154 C 
HETATM    2  N2  UNL     1      24.893   0.982  52.880  1.00  0.00    -0.238 NA
HETATM    3  C9  UNL     1      23.799   1.778  52.408  1.00  0.00     0.260 C 
HETATM    4  N3  UNL     1      23.975   2.569  51.259  1.00  0.00    -0.351 N 
HETATM    5  C10 UNL     1      22.890   2.936  50.428  1.00  0.00     0.128 C 
HETATM    6 CL1  UNL     1      23.411   4.129  49.296  1.00  0.00    -0.062 Cl
HETATM    7  C11 UNL     1      21.675   2.446  50.517  1.00  0.00     0.077 C 
HETATM    8  C19 UNL     1      21.529   1.522  51.620  1.00  0.00     0.062 C 
HETATM    9  C20 UNL     1      22.463   1.186  52.487  1.00  0.00     0.064 C 
HETATM   10  N6  UNL     1      22.234   0.174  53.472  1.00  0.00    -0.301 N 
HETATM   11  C21 UNL     1      21.114  -0.387  53.960  1.00  0.00     0.214 A 
HETATM   12  N7  UNL     1      21.408  -1.318  54.878  1.00  0.00    -0.253 NA
HETATM   13  C22 UNL     1      22.756  -1.357  54.985  1.00  0.00     0.151 A 
HETATM   14  C23 UNL     1      23.283  -0.430  54.112  1.00  0.00     0.104 A 
HETATM   15  H9  UNL     1      24.989   2.793  51.178  1.00  0.00     0.163 HD
ENDROOT
BRANCH   1  16
HETATM   16  N1  UNL     1      25.700  -0.721  54.206  1.00  0.00    -0.339 N 
HETATM   17  H7  UNL     1      25.439  -1.612  54.730  1.00  0.00     0.167 HD
BRANCH  16  18
HETATM   18  C7  UNL     1      27.081  -0.430  54.059  1.00  0.00     0.042 A 
HETATM   19  C2  UNL     1      27.859  -1.249  53.229  1.00  0.00    -0.035 A 
HETATM   20  C1  UNL     1      27.206  -2.405  52.527  1.00  0.00     0.050 C 
HETATM   21  C3  UNL     1      29.202  -1.027  53.036  1.00  0.00     0.012 A 
HETATM   22  C4  UNL     1      29.859   0.016  53.650  1.00  0.00     0.043 A 
HETATM   23  C5  UNL     1      29.118   0.843  54.477  1.00  0.00     0.118 A 
HETATM   24  F1  UNL     1      29.737   1.869  55.089  1.00  0.00    -0.206 F 
HETATM   25  C6  UNL     1      27.774   0.577  54.637  1.00  0.00     0.072 A 
ENDBRANCH  16  18
ENDBRANCH   1  16
BRANCH   7  26
HETATM   26  N4  UNL     1      20.612   2.798  49.697  1.00  0.00    -0.316 N 
HETATM   27  C12 UNL     1      19.438   3.346  50.365  1.00  0.00     0.159 C 
HETATM   28  C13 UNL     1      20.410   2.819  48.299  1.00  0.00     0.247 C 
HETATM   29  O1  UNL     1      21.161   2.567  47.323  1.00  0.00    -0.268 OA
BRANCH  28  30
HETATM   30  C14 UNL     1      19.114   3.185  47.684  1.00  0.00     0.072 C 
HETATM   31  C15 UNL     1      18.341   3.205  46.567  1.00  0.00     0.008 C 
BRANCH  31  32
HETATM   32  C16 UNL     1      16.954   3.710  46.349  1.00  0.00     0.299 C 
BRANCH  32  33
HETATM   33  N5  UNL     1      16.970   4.624  45.234  1.00  0.00     0.083 N 
HETATM   34  C17 UNL     1      17.350   5.916  45.739  1.00  0.00     0.309 C 
HETATM   35  C18 UNL     1      17.919   4.221  44.231  1.00  0.00     0.309 C 
ENDBRANCH  32  33
ENDBRANCH  31  32
ENDBRANCH  28  30
ENDBRANCH   7  26
TORSDOF 6
ENDMDL
MODEL 7
REMARK VINA RESULT:      -8.1      4.165      5.397
REMARK  6 active torsions:
REMARK  status: ('A' for Active; 'I' for Inactive)
REMARK    1  A    between atoms: C7_8  and  N1_9 
REMARK    2  A    between atoms: N1_9  and  C8_10 
REMARK    3  A    between atoms: C11_16  and  N4_17 
REMARK       I    between atoms: N4_17  and  C13_19 
REMARK    4  A    between atoms: C13_19  and  C14_21 
REMARK    5  A    between atoms: C15_22  and  C16_23 
REMARK    6  A    between atoms: C16_23  and  N5_24 
ROOT
HETATM    1  C8  UNL     1      24.641   0.801  53.250  1.00  0.00     0.154 C 
HETATM    2  N2  UNL     1      25.183   1.919  52.892  1.00  0.00    -0.238 NA
HETATM    3  C9  UNL     1      24.286   2.970  52.510  1.00  0.00     0.260 C 
HETATM    4  N3  UNL     1      24.791   4.074  51.801  1.00  0.00    -0.351 N 
HETATM    5  C10 UNL     1      23.977   4.849  50.941  1.00  0.00     0.128 C 
HETATM    6 CL1  UNL     1      24.830   6.274  50.473  1.00  0.00    -0.062 Cl
HETATM    7  C11 UNL     1      22.760   4.529  50.569  1.00  0.00     0.077 C 
HETATM    8  C19 UNL     1      22.290   3.312  51.193  1.00  0.00     0.062 C 
HETATM    9  C20 UNL     1      22.950   2.575  52.064  1.00  0.00     0.064 C 
HETATM   10  N6  UNL     1      22.427   1.328  52.532  1.00  0.00    -0.301 N 
HETATM   11  C21 UNL     1      21.193   0.793  52.514  1.00  0.00     0.214 A 
HETATM   12  N7  UNL     1      21.195  -0.427  53.069  1.00  0.00    -0.253 NA
HETATM   13  C22 UNL     1      22.467  -0.684  53.455  1.00  0.00     0.151 A 
HETATM   14  C23 UNL     1      23.244   0.405  53.125  1.00  0.00     0.104 A 
HETATM   15  H9  UNL     1      25.800   4.171  52.039  1.00  0.00     0.163 HD
ENDROOT
BRANCH   1  16
HETATM   16  N1  UNL     1      25.538  -0.229  53.648  1.00  0.00    -0.339 N 
HETATM   17  H7  UNL     1      25.082  -1.154  53.917  1.00  0.00     0.167 HD
BRANCH  16  18
HETATM   18  C7  UNL     1      26.953  -0.152  53.719  1.00  0.00     0.042 A 
HETATM   19  C2  UNL     1      27.715  -1.172  53.132  1.00  0.00    -0.035 A 
HETATM   20  C1  UNL     1      27.010  -2.309  52.451  1.00  0.00     0.050 C 
HETATM   21  C3  UNL     1      29.090  -1.163  53.159  1.00  0.00     0.012 A 
HETATM   22  C4  UNL     1      29.795  -0.149  53.767  1.00  0.00     0.043 A 
HETATM   23  C5  UNL     1      29.071   0.873  54.356  1.00  0.00     0.118 A 
HETATM   24  F1  UNL     1      29.738   1.876  54.956  1.00  0.00    -0.206 F 
HETATM   25  C6  UNL     1      27.694   0.817  54.302  1.00  0.00     0.072 A 
ENDBRANCH  16  18
ENDBRANCH   1  16
BRANCH   7  26
HETATM   26  N4  UNL     1      21.964   5.283  49.717  1.00  0.00    -0.316 N 
HETATM   27  C12 UNL     1      20.898   6.054  50.346  1.00  0.00     0.159 C 
HETATM   28  C13 UNL     1      21.981   5.550  48.330  1.00  0.00     0.247 C 
HETATM   29  O1  UNL     1      22.768   5.225  47.406  1.00  0.00    -0.268 OA
BRANCH  28  30
HETATM   30  C14 UNL     1      20.936   6.357  47.659  1.00  0.00     0.072 C 
HETATM   31  C15 UNL     1      20.630   7.479  46.956  1.00  0.00     0.008 C 
BRANCH  31  32
HETATM   32  C16 UNL     1      19.329   7.966  46.413  1.00  0.00     0.299 C 
BRANCH  32  33
HETATM   33  N5  UNL     1      19.099   9.301  46.906  1.00  0.00     0.083 N 
HETATM   34  C17 UNL     1      18.484   9.185  48.201  1.00  0.00     0.309 C 
HETATM   35  C18 UNL     1      20.327  10.037  47.040  1.00  0.00     0.309 C 
ENDBRANCH  32  33
ENDBRANCH  31  32
ENDBRANCH  28  30
ENDBRANCH   7  26
TORSDOF 6
ENDMDL
MODEL 8
REMARK VINA RESULT:      -8.0      5.018     10.057
REMARK  6 active torsions:
REMARK  status: ('A' for Active; 'I' for Inactive)
REMARK    1  A    between atoms: C7_8  and  N1_9 
REMARK    2  A    between atoms: N1_9  and  C8_10 
REMARK    3  A    between atoms: C11_16  and  N4_17 
REMARK       I    between atoms: N4_17  and  C13_19 
REMARK    4  A    between atoms: C13_19  and  C14_21 
REMARK    5  A    between atoms: C15_22  and  C16_23 
REMARK    6  A    between atoms: C16_23  and  N5_24 
ROOT
HETATM    1  C8  UNL     1      23.190   1.570  52.154  1.00  0.00     0.154 C 
HETATM    2  N2  UNL     1      22.763   2.442  51.301  1.00  0.00    -0.238 NA
HETATM    3  C9  UNL     1      23.732   2.968  50.386  1.00  0.00     0.260 C 
HETATM    4  N3  UNL     1      23.430   4.140  49.670  1.00  0.00    -0.351 N 
HETATM    5  C10 UNL     1      24.440   5.009  49.194  1.00  0.00     0.128 C 
HETATM    6 CL1  UNL     1      23.742   6.170  48.125  1.00  0.00    -0.062 Cl
HETATM    7  C11 UNL     1      25.711   4.932  49.515  1.00  0.00     0.077 C 
HETATM    8  C19 UNL     1      26.000   3.802  50.368  1.00  0.00     0.062 C 
HETATM    9  C20 UNL     1      25.136   2.901  50.792  1.00  0.00     0.064 C 
HETATM   10  N6  UNL     1      25.517   1.886  51.726  1.00  0.00    -0.301 N 
HETATM   11  C21 UNL     1      26.711   1.406  52.114  1.00  0.00     0.214 A 
HETATM   12  N7  UNL     1      26.562   0.448  53.040  1.00  0.00    -0.253 NA
HETATM   13  C22 UNL     1      25.233   0.308  53.254  1.00  0.00     0.151 A 
HETATM   14  C23 UNL     1      24.571   1.200  52.439  1.00  0.00     0.104 A 
HETATM   15  H9  UNL     1      22.394   4.204  49.586  1.00  0.00     0.163 HD
ENDROOT
BRANCH   1  16
HETATM   16  N1  UNL     1      22.217   1.037  53.044  1.00  0.00    -0.339 N 
HETATM   17  H7  UNL     1      22.491   1.033  54.074  1.00  0.00     0.167 HD
BRANCH  16  18
HETATM   18  C7  UNL     1      20.938   0.522  52.707  1.00  0.00     0.042 A 
HETATM   19  C2  UNL     1      20.380  -0.481  53.511  1.00  0.00    -0.035 A 
HETATM   20  C1  UNL     1      21.153  -0.977  54.699  1.00  0.00     0.050 C 
HETATM   21  C3  UNL     1      19.145  -1.025  53.248  1.00  0.00     0.012 A 
HETATM   22  C4  UNL     1      18.387  -0.614  52.176  1.00  0.00     0.043 A 
HETATM   23  C5  UNL     1      18.911   0.376  51.361  1.00  0.00     0.118 A 
HETATM   24  F1  UNL     1      18.188   0.795  50.306  1.00  0.00    -0.206 F 
HETATM   25  C6  UNL     1      20.153   0.889  51.668  1.00  0.00     0.072 A 
ENDBRANCH  16  18
ENDBRANCH   1  16
BRANCH   7  26
HETATM   26  N4  UNL     1      26.701   5.791  49.057  1.00  0.00    -0.316 N 
HETATM   27  C12 UNL     1      26.461   7.215  49.258  1.00  0.00     0.159 C 
HETATM   28  C13 UNL     1      27.975   5.606  48.477  1.00  0.00     0.247 C 
HETATM   29  O1  UNL     1      28.661   4.583  48.228  1.00  0.00    -0.268 OA
BRANCH  28  30
HETATM   30  C14 UNL     1      28.810   6.735  48.006  1.00  0.00     0.072 C 
HETATM   31  C15 UNL     1      29.551   7.271  47.001  1.00  0.00     0.008 C 
BRANCH  31  32
HETATM   32  C16 UNL     1      30.300   8.559  46.920  1.00  0.00     0.299 C 
BRANCH  32  33
HETATM   33  N5  UNL     1      31.006   8.754  48.162  1.00  0.00     0.083 N 
HETATM   34  C17 UNL     1      32.409   8.826  47.855  1.00  0.00     0.309 C 
HETATM   35  C18 UNL     1      30.610   9.974  48.812  1.00  0.00     0.309 C 
ENDBRANCH  32  33
ENDBRANCH  31  32
ENDBRANCH  28  30
ENDBRANCH   7  26
TORSDOF 6
ENDMDL
MODEL 9
REMARK VINA RESULT:      -8.0      7.142      8.665
REMARK  6 active torsions:
REMARK  status: ('A' for Active; 'I' for Inactive)
REMARK    1  A    between atoms: C7_8  and  N1_9 
REMARK    2  A    between atoms: N1_9  and  C8_10 
REMARK    3  A    between atoms: C11_16  and  N4_17 
REMARK       I    between atoms: N4_17  and  C13_19 
REMARK    4  A    between atoms: C13_19  and  C14_21 
REMARK    5  A    between atoms: C15_22  and  C16_23 
REMARK    6  A    between atoms: C16_23  and  N5_24 
ROOT
HETATM    1  C8  UNL     1      30.567   6.277  48.121  1.00  0.00     0.154 C 
HETATM    2  N2  UNL     1      29.781   5.415  48.677  1.00  0.00    -0.238 NA
HETATM    3  C9  UNL     1      28.392   5.503  48.334  1.00  0.00     0.260 C 
HETATM    4  N3  UNL     1      27.448   4.837  49.135  1.00  0.00    -0.351 N 
HETATM    5  C10 UNL     1      26.104   5.272  49.228  1.00  0.00     0.128 C 
HETATM    6 CL1  UNL     1      25.170   4.076  50.049  1.00  0.00    -0.062 Cl
HETATM    7  C11 UNL     1      25.647   6.407  48.754  1.00  0.00     0.077 C 
HETATM    8  C19 UNL     1      26.658   7.160  48.046  1.00  0.00     0.062 C 
HETATM    9  C20 UNL     1      27.908   6.794  47.845  1.00  0.00     0.064 C 
HETATM   10  N6  UNL     1      28.851   7.673  47.224  1.00  0.00    -0.301 N 
HETATM   11  C21 UNL     1      28.709   8.784  46.480  1.00  0.00     0.214 A 
HETATM   12  N7  UNL     1      29.904   9.278  46.128  1.00  0.00    -0.253 NA
HETATM   13  C22 UNL     1      30.842   8.461  46.661  1.00  0.00     0.151 A 
HETATM   14  C23 UNL     1      30.196   7.456  47.347  1.00  0.00     0.104 A 
HETATM   15  H9  UNL     1      27.927   4.034  49.593  1.00  0.00     0.163 HD
ENDROOT
BRANCH   1  16
HETATM   16  N1  UNL     1      31.947   6.169  48.450  1.00  0.00    -0.339 N 
HETATM   17  H7  UNL     1      32.335   6.952  49.060  1.00  0.00     0.167 HD
BRANCH  16  18
HETATM   18  C7  UNL     1      32.843   5.140  48.058  1.00  0.00     0.042 A 
HETATM   19  C2  UNL     1      34.221   5.389  48.112  1.00  0.00    -0.035 A 
HETATM   20  C1  UNL     1      34.702   6.733  48.579  1.00  0.00     0.050 C 
HETATM   21  C3  UNL     1      35.149   4.439  47.751  1.00  0.00     0.012 A 
HETATM   22  C4  UNL     1      34.772   3.189  47.316  1.00  0.00     0.043 A 
HETATM   23  C5  UNL     1      33.417   2.913  47.251  1.00  0.00     0.118 A 
HETATM   24  F1  UNL     1      33.024   1.697  46.829  1.00  0.00    -0.206 F 
HETATM   25  C6  UNL     1      32.528   3.899  47.624  1.00  0.00     0.072 A 
ENDBRANCH  16  18
ENDBRANCH   1  16
BRANCH   7  26
HETATM   26  N4  UNL     1      24.332   6.839  48.854  1.00  0.00    -0.316 N 
HETATM   27  C12 UNL     1      23.446   6.464  47.757  1.00  0.00     0.159 C 
HETATM   28  C13 UNL     1      23.592   7.528  49.839  1.00  0.00     0.247 C 
HETATM   29  O1  UNL     1      23.878   7.938  50.992  1.00  0.00    -0.268 OA
BRANCH  28  30
HETATM   30  C14 UNL     1      22.180   7.931  49.644  1.00  0.00     0.072 C 
HETATM   31  C15 UNL     1      21.286   8.946  49.508  1.00  0.00     0.008 C 
BRANCH  31  32
HETATM   32  C16 UNL     1      19.808   8.924  49.308  1.00  0.00     0.299 C 
BRANCH  32  33
HETATM   33  N5  UNL     1      19.412  10.164  48.690  1.00  0.00     0.083 N 
HETATM   34  C17 UNL     1      18.012  10.354  48.958  1.00  0.00     0.309 C 
HETATM   35  C18 UNL     1      20.143  11.281  49.225  1.00  0.00     0.309 C 
ENDBRANCH  32  33
ENDBRANCH  31  32
ENDBRANCH  28  30
ENDBRANCH   7  26
TORSDOF 6
ENDMDL
