MODEL 1
REMARK VINA RESULT:      -8.9      0.000      0.000
REMARK  6 active torsions:
REMARK  status: ('A' for Active; 'I' for Inactive)
REMARK    1  A    between atoms: C11_15  and  C12_16 
REMARK    2  A    between atoms: C12_16  and  N3_17 
REMARK    3  A    between atoms: N3_17  and  C13_18 
REMARK    4  A    between atoms: C13_18  and  C14_19 
REMARK    5  A    between atoms: C13_18  and  C15_21 
REMARK    6  A    between atoms: C14_19  and  O2_20 
ROOT
HETATM    1  C1  UNL     1      21.916   4.323  48.123  1.00  0.00     0.145 C 
HETATM    2  N1  UNL     1      22.954   3.317  48.190  1.00  0.00    -0.397 N 
HETATM    3  C2  UNL     1      22.554   2.026  47.868  1.00  0.00     0.145 C 
HETATM    4  C3  UNL     1      21.647   1.355  48.886  1.00  0.00    -0.002 C 
HETATM    5  C4  UNL     1      20.684   0.771  49.644  1.00  0.00     0.072 C 
HETATM    6  C5  UNL     1      20.936   0.301  50.973  1.00  0.00     0.243 C 
HETATM    7  O1  UNL     1      19.752   0.079  51.302  1.00  0.00    -0.268 OA
HETATM    8  N2  UNL     1      21.183  -0.159  52.273  1.00  0.00    -0.344 N 
HETATM    9  C6  UNL     1      22.284  -0.898  52.810  1.00  0.00     0.131 C 
HETATM   10  C7  UNL     1      23.169   0.150  53.520  1.00  0.00     0.060 C 
HETATM   11  C8  UNL     1      22.745   1.508  53.019  1.00  0.00    -0.028 A 
HETATM   12  C9  UNL     1      21.372   1.874  53.152  1.00  0.00     0.009 A 
HETATM   13  S1  UNL     1      21.231   3.600  52.481  1.00  0.00    -0.078 SA
HETATM   14  C10 UNL     1      22.951   3.644  52.077  1.00  0.00     0.086 A 
HETATM   15  C11 UNL     1      23.497   2.481  52.450  1.00  0.00     0.017 A 
HETATM   16  N4  UNL     1      23.215   4.728  51.416  1.00  0.00    -0.160 NA
HETATM   17  C21 UNL     1      24.538   5.013  50.942  1.00  0.00     0.239 A 
HETATM   18  N5  UNL     1      23.958   4.318  50.078  1.00  0.00    -0.297 N 
HETATM   19  C22 UNL     1      24.131   3.722  48.827  1.00  0.00     0.258 C 
HETATM   20  C23 UNL     1      20.564   0.499  53.541  1.00  0.00     0.172 C 
ENDROOT
BRANCH  15  21
HETATM   21  C12 UNL     1      24.794   2.381  52.257  1.00  0.00     0.098 C 
BRANCH  21  22
HETATM   22  N3  UNL     1      25.946   2.290  53.070  1.00  0.00    -0.387 N 
HETATM   23  H13 UNL     1      25.787   2.606  54.084  1.00  0.00     0.159 HD
BRANCH  22  24
HETATM   24  C13 UNL     1      27.298   1.837  52.702  1.00  0.00     0.137 C 
BRANCH  24  25
HETATM   25  C14 UNL     1      28.273   2.532  53.611  1.00  0.00     0.194 C 
BRANCH  25  26
HETATM   26  O2  UNL     1      29.323   3.143  52.973  1.00  0.00    -0.399 OA
HETATM   27  H17 UNL     1      29.485   4.022  53.396  1.00  0.00     0.209 HD
ENDBRANCH  25  26
ENDBRANCH  24  25
BRANCH  24  28
HETATM   28  C15 UNL     1      27.385   0.376  52.711  1.00  0.00    -0.034 A 
HETATM   29  C16 UNL     1      28.479  -0.228  53.280  1.00  0.00     0.009 A 
HETATM   30  C17 UNL     1      28.643  -1.605  53.319  1.00  0.00     0.001 A 
HETATM   31  C18 UNL     1      27.695  -2.442  52.776  1.00  0.00     0.000 A 
HETATM   32  C19 UNL     1      26.581  -1.883  52.194  1.00  0.00     0.001 A 
HETATM   33  C20 UNL     1      26.462  -0.521  52.180  1.00  0.00     0.009 A 
ENDBRANCH  24  28
ENDBRANCH  22  24
ENDBRANCH  21  22
ENDBRANCH  15  21
TORSDOF 6
ENDMDL
MODEL 2
REMARK VINA RESULT:      -7.9      3.436      5.270
REMARK  6 active torsions:
REMARK  status: ('A' for Active; 'I' for Inactive)
REMARK    1  A    between atoms: C11_15  and  C12_16 
REMARK    2  A    between atoms: C12_16  and  N3_17 
REMARK    3  A    between atoms: N3_17  and  C13_18 
REMARK    4  A    between atoms: C13_18  and  C14_19 
REMARK    5  A    between atoms: C13_18  and  C15_21 
REMARK    6  A    between atoms: C14_19  and  O2_20 
ROOT
HETATM    1  C1  UNL     1      19.958   3.960  48.870  1.00  0.00     0.145 C 
HETATM    2  N1  UNL     1      21.104   3.466  48.139  1.00  0.00    -0.397 N 
HETATM    3  C2  UNL     1      21.283   2.089  48.169  1.00  0.00     0.145 C 
HETATM    4  C3  UNL     1      21.719   1.520  49.509  1.00  0.00    -0.002 C 
HETATM    5  C4  UNL     1      21.914   0.920  50.711  1.00  0.00     0.072 C 
HETATM    6  C5  UNL     1      23.144   1.039  51.434  1.00  0.00     0.243 C 
HETATM    7  O1  UNL     1      22.757   0.537  52.511  1.00  0.00    -0.268 OA
HETATM    8  N2  UNL     1      24.347   1.154  52.142  1.00  0.00    -0.344 N 
HETATM    9  C6  UNL     1      25.705   1.072  51.698  1.00  0.00     0.131 C 
HETATM   10  C7  UNL     1      26.183   2.537  51.579  1.00  0.00     0.060 C 
HETATM   11  C8  UNL     1      24.953   3.410  51.577  1.00  0.00    -0.028 A 
HETATM   12  C9  UNL     1      24.043   3.292  52.671  1.00  0.00     0.009 A 
HETATM   13  S1  UNL     1      22.695   4.531  52.358  1.00  0.00    -0.078 SA
HETATM   14  C10 UNL     1      23.440   5.040  50.838  1.00  0.00     0.086 A 
HETATM   15  C11 UNL     1      24.566   4.338  50.669  1.00  0.00     0.017 A 
HETATM   16  N4  UNL     1      22.650   5.863  50.221  1.00  0.00    -0.160 NA
HETATM   17  C21 UNL     1      22.996   6.421  48.946  1.00  0.00     0.239 A 
HETATM   18  N5  UNL     1      22.431   5.322  48.748  1.00  0.00    -0.297 N 
HETATM   19  C22 UNL     1      22.019   4.446  47.741  1.00  0.00     0.258 C 
HETATM   20  C23 UNL     1      24.475   1.932  53.485  1.00  0.00     0.172 C 
ENDROOT
BRANCH  15  21
HETATM   21  C12 UNL     1      25.263   4.643  49.596  1.00  0.00     0.098 C 
BRANCH  21  22
HETATM   22  N3  UNL     1      26.472   5.320  49.319  1.00  0.00    -0.387 N 
HETATM   23  H13 UNL     1      27.327   4.898  49.811  1.00  0.00     0.159 HD
BRANCH  22  24
HETATM   24  C13 UNL     1      26.690   6.504  48.471  1.00  0.00     0.137 C 
BRANCH  24  25
HETATM   25  C14 UNL     1      26.213   7.705  49.238  1.00  0.00     0.194 C 
BRANCH  25  26
HETATM   26  O2  UNL     1      26.664   7.781  50.532  1.00  0.00    -0.399 OA
HETATM   27  H17 UNL     1      27.450   8.380  50.562  1.00  0.00     0.209 HD
ENDBRANCH  25  26
ENDBRANCH  24  25
BRANCH  24  28
HETATM   28  C15 UNL     1      28.079   6.577  48.015  1.00  0.00    -0.034 A 
HETATM   29  C16 UNL     1      28.939   5.550  48.319  1.00  0.00     0.009 A 
HETATM   30  C17 UNL     1      30.272   5.547  47.935  1.00  0.00     0.001 A 
HETATM   31  C18 UNL     1      30.800   6.597  47.218  1.00  0.00     0.000 A 
HETATM   32  C19 UNL     1      29.977   7.649  46.891  1.00  0.00     0.001 A 
HETATM   33  C20 UNL     1      28.670   7.608  47.290  1.00  0.00     0.009 A 
ENDBRANCH  24  28
ENDBRANCH  22  24
ENDBRANCH  21  22
ENDBRANCH  15  21
TORSDOF 6
ENDMDL
MODEL 3
REMARK VINA RESULT:      -7.9      3.186      4.904
REMARK  6 active torsions:
REMARK  status: ('A' for Active; 'I' for Inactive)
REMARK    1  A    between atoms: C11_15  and  C12_16 
REMARK    2  A    between atoms: C12_16  and  N3_17 
REMARK    3  A    between atoms: N3_17  and  C13_18 
REMARK    4  A    between atoms: C13_18  and  C14_19 
REMARK    5  A    between atoms: C13_18  and  C15_21 
REMARK    6  A    between atoms: C14_19  and  O2_20 
ROOT
HETATM    1  C1  UNL     1      19.690   4.107  47.081  1.00  0.00     0.145 C 
HETATM    2  N1  UNL     1      21.134   4.184  47.139  1.00  0.00    -0.397 N 
HETATM    3  C2  UNL     1      21.802   2.976  46.987  1.00  0.00     0.145 C 
HETATM    4  C3  UNL     1      21.670   2.009  48.152  1.00  0.00    -0.002 C 
HETATM    5  C4  UNL     1      21.437   1.025  49.057  1.00  0.00     0.072 C 
HETATM    6  C5  UNL     1      21.950   1.077  50.393  1.00  0.00     0.243 C 
HETATM    7  O1  UNL     1      21.302   0.117  50.861  1.00  0.00    -0.268 OA
HETATM    8  N2  UNL     1      22.453   1.127  51.699  1.00  0.00    -0.344 N 
HETATM    9  C6  UNL     1      23.745   1.497  52.191  1.00  0.00     0.131 C 
HETATM   10  C7  UNL     1      23.585   2.946  52.702  1.00  0.00     0.060 C 
HETATM   11  C8  UNL     1      22.305   3.489  52.117  1.00  0.00    -0.028 A 
HETATM   12  C9  UNL     1      21.098   2.763  52.353  1.00  0.00     0.009 A 
HETATM   13  S1  UNL     1      19.743   3.735  51.536  1.00  0.00    -0.078 SA
HETATM   14  C10 UNL     1      20.888   4.951  50.956  1.00  0.00     0.086 A 
HETATM   15  C11 UNL     1      22.109   4.610  51.383  1.00  0.00     0.017 A 
HETATM   16  N4  UNL     1      20.279   5.782  50.169  1.00  0.00    -0.160 NA
HETATM   17  C21 UNL     1      20.976   6.865  49.538  1.00  0.00     0.239 A 
HETATM   18  N5  UNL     1      21.087   5.853  48.809  1.00  0.00    -0.297 N 
HETATM   19  C22 UNL     1      21.642   5.398  47.611  1.00  0.00     0.258 C 
HETATM   20  C23 UNL     1      21.548   1.303  52.955  1.00  0.00     0.172 C 
ENDROOT
BRANCH  15  21
HETATM   21  C12 UNL     1      23.070   5.452  51.069  1.00  0.00     0.098 C 
BRANCH  21  22
HETATM   22  N3  UNL     1      24.178   5.460  50.191  1.00  0.00    -0.387 N 
HETATM   23  H13 UNL     1      24.689   4.519  50.131  1.00  0.00     0.159 HD
BRANCH  22  24
HETATM   24  C13 UNL     1      24.703   6.574  49.383  1.00  0.00     0.137 C 
BRANCH  24  25
HETATM   25  C14 UNL     1      24.516   7.837  50.175  1.00  0.00     0.194 C 
BRANCH  25  26
HETATM   26  O2  UNL     1      23.812   8.823  49.531  1.00  0.00    -0.399 OA
HETATM   27  H17 UNL     1      23.224   9.275  50.186  1.00  0.00     0.209 HD
ENDBRANCH  25  26
ENDBRANCH  24  25
BRANCH  24  28
HETATM   28  C15 UNL     1      26.080   6.313  48.959  1.00  0.00    -0.034 A 
HETATM   29  C16 UNL     1      26.571   5.032  49.029  1.00  0.00     0.009 A 
HETATM   30  C17 UNL     1      27.866   4.702  48.658  1.00  0.00     0.001 A 
HETATM   31  C18 UNL     1      28.733   5.667  48.193  1.00  0.00     0.000 A 
HETATM   32  C19 UNL     1      28.285   6.965  48.106  1.00  0.00     0.001 A 
HETATM   33  C20 UNL     1      27.000   7.242  48.483  1.00  0.00     0.009 A 
ENDBRANCH  24  28
ENDBRANCH  22  24
ENDBRANCH  21  22
ENDBRANCH  15  21
TORSDOF 6
ENDMDL
MODEL 4
REMARK VINA RESULT:      -7.7      2.645      5.712
REMARK  6 active torsions:
REMARK  status: ('A' for Active; 'I' for Inactive)
REMARK    1  A    between atoms: C11_15  and  C12_16 
REMARK    2  A    between atoms: C12_16  and  N3_17 
REMARK    3  A    between atoms: N3_17  and  C13_18 
REMARK    4  A    between atoms: C13_18  and  C14_19 
REMARK    5  A    between atoms: C13_18  and  C15_21 
REMARK    6  A    between atoms: C14_19  and  O2_20 
ROOT
HETATM    1  C1  UNL     1      19.881   2.703  51.726  1.00  0.00     0.145 C 
HETATM    2  N1  UNL     1      20.604   2.100  50.626  1.00  0.00    -0.397 N 
HETATM    3  C2  UNL     1      20.855   0.740  50.752  1.00  0.00     0.145 C 
HETATM    4  C3  UNL     1      21.879   0.365  51.811  1.00  0.00    -0.002 C 
HETATM    5  C4  UNL     1      22.627  -0.057  52.862  1.00  0.00     0.072 C 
HETATM    6  C5  UNL     1      24.042   0.153  52.928  1.00  0.00     0.243 C 
HETATM    7  O1  UNL     1      24.210  -0.186  54.118  1.00  0.00    -0.268 OA
HETATM    8  N2  UNL     1      25.426   0.359  52.992  1.00  0.00    -0.344 N 
HETATM    9  C6  UNL     1      26.442   0.203  51.996  1.00  0.00     0.131 C 
HETATM   10  C7  UNL     1      26.730   1.632  51.483  1.00  0.00     0.060 C 
HETATM   11  C8  UNL     1      25.582   2.506  51.923  1.00  0.00    -0.028 A 
HETATM   12  C9  UNL     1      25.269   2.553  53.316  1.00  0.00     0.009 A 
HETATM   13  S1  UNL     1      23.856   3.745  53.487  1.00  0.00    -0.078 SA
HETATM   14  C10 UNL     1      23.807   4.026  51.742  1.00  0.00     0.086 A 
HETATM   15  C11 UNL     1      24.776   3.298  51.176  1.00  0.00     0.017 A 
HETATM   16  N4  UNL     1      22.778   4.758  51.448  1.00  0.00    -0.160 NA
HETATM   17  C21 UNL     1      22.483   5.125  50.093  1.00  0.00     0.239 A 
HETATM   18  N5  UNL     1      21.953   4.013  50.319  1.00  0.00    -0.297 N 
HETATM   19  C22 UNL     1      21.184   3.006  49.733  1.00  0.00     0.258 C 
HETATM   20  C23 UNL     1      26.099   1.320  54.016  1.00  0.00     0.172 C 
ENDROOT
BRANCH  15  21
HETATM   21  C12 UNL     1      24.898   3.440  49.874  1.00  0.00     0.098 C 
BRANCH  21  22
HETATM   22  N3  UNL     1      25.570   4.323  48.999  1.00  0.00    -0.387 N 
HETATM   23  H13 UNL     1      25.336   4.167  47.963  1.00  0.00     0.159 HD
BRANCH  22  24
HETATM   24  C13 UNL     1      26.529   5.391  49.328  1.00  0.00     0.137 C 
BRANCH  24  25
HETATM   25  C14 UNL     1      27.765   5.161  48.505  1.00  0.00     0.194 C 
BRANCH  25  26
HETATM   26  O2  UNL     1      28.935   5.115  49.220  1.00  0.00    -0.399 OA
HETATM   27  H17 UNL     1      28.832   5.664  50.037  1.00  0.00     0.209 HD
ENDBRANCH  25  26
ENDBRANCH  24  25
BRANCH  24  28
HETATM   28  C15 UNL     1      25.920   6.713  49.167  1.00  0.00    -0.034 A 
HETATM   29  C16 UNL     1      24.909   6.879  48.252  1.00  0.00     0.009 A 
HETATM   30  C17 UNL     1      24.289   8.099  48.030  1.00  0.00     0.001 A 
HETATM   31  C18 UNL     1      24.669   9.221  48.733  1.00  0.00     0.000 A 
HETATM   32  C19 UNL     1      25.679   9.103  49.661  1.00  0.00     0.001 A 
HETATM   33  C20 UNL     1      26.261   7.880  49.846  1.00  0.00     0.009 A 
ENDBRANCH  24  28
ENDBRANCH  22  24
ENDBRANCH  21  22
ENDBRANCH  15  21
TORSDOF 6
ENDMDL
MODEL 5
REMARK VINA RESULT:      -7.6      2.986      5.556
REMARK  6 active torsions:
REMARK  status: ('A' for Active; 'I' for Inactive)
REMARK    1  A    between atoms: C11_15  and  C12_16 
REMARK    2  A    between atoms: C12_16  and  N3_17 
REMARK    3  A    between atoms: N3_17  and  C13_18 
REMARK    4  A    between atoms: C13_18  and  C14_19 
REMARK    5  A    between atoms: C13_18  and  C15_21 
REMARK    6  A    between atoms: C14_19  and  O2_20 
ROOT
HETATM    1  C1  UNL     1      18.378   3.116  48.717  1.00  0.00     0.145 C 
HETATM    2  N1  UNL     1      19.035   2.987  50.000  1.00  0.00    -0.397 N 
HETATM    3  C2  UNL     1      18.934   4.092  50.836  1.00  0.00     0.145 C 
HETATM    4  C3  UNL     1      19.727   5.312  50.397  1.00  0.00    -0.002 C 
HETATM    5  C4  UNL     1      20.243   6.493  49.970  1.00  0.00     0.072 C 
HETATM    6  C5  UNL     1      21.654   6.735  49.915  1.00  0.00     0.243 C 
HETATM    7  O1  UNL     1      21.617   7.807  49.275  1.00  0.00    -0.268 OA
HETATM    8  N2  UNL     1      23.033   6.972  49.860  1.00  0.00    -0.344 N 
HETATM    9  C6  UNL     1      24.072   6.669  50.797  1.00  0.00     0.131 C 
HETATM   10  C7  UNL     1      24.749   5.391  50.253  1.00  0.00     0.060 C 
HETATM   11  C8  UNL     1      23.812   4.786  49.237  1.00  0.00    -0.028 A 
HETATM   12  C9  UNL     1      23.386   5.602  48.146  1.00  0.00     0.009 A 
HETATM   13  S1  UNL     1      22.297   4.528  47.093  1.00  0.00    -0.078 SA
HETATM   14  C10 UNL     1      22.488   3.157  48.194  1.00  0.00     0.086 A 
HETATM   15  C11 UNL     1      23.300   3.532  49.188  1.00  0.00     0.017 A 
HETATM   16  N4  UNL     1      21.702   2.193  47.827  1.00  0.00    -0.160 NA
HETATM   17  C21 UNL     1      21.638   0.960  48.558  1.00  0.00     0.239 A 
HETATM   18  N5  UNL     1      20.834   1.765  49.081  1.00  0.00    -0.297 N 
HETATM   19  C22 UNL     1      19.903   1.896  50.114  1.00  0.00     0.258 C 
HETATM   20  C23 UNL     1      23.817   7.140  48.525  1.00  0.00     0.172 C 
ENDROOT
BRANCH  15  21
HETATM   21  C12 UNL     1      23.579   2.596  50.069  1.00  0.00     0.098 C 
BRANCH  21  22
HETATM   22  N3  UNL     1      23.350   2.387  51.448  1.00  0.00    -0.387 N 
HETATM   23  H13 UNL     1      22.519   2.944  51.838  1.00  0.00     0.159 HD
BRANCH  22  24
HETATM   24  C13 UNL     1      24.098   1.532  52.386  1.00  0.00     0.137 C 
BRANCH  24  25
HETATM   25  C14 UNL     1      24.990   2.425  53.201  1.00  0.00     0.194 C 
BRANCH  25  26
HETATM   26  O2  UNL     1      24.506   3.692  53.409  1.00  0.00    -0.399 OA
HETATM   27  H17 UNL     1      24.596   3.915  54.368  1.00  0.00     0.209 HD
ENDBRANCH  25  26
ENDBRANCH  24  25
BRANCH  24  28
HETATM   28  C15 UNL     1      23.191   0.689  53.167  1.00  0.00    -0.034 A 
HETATM   29  C16 UNL     1      21.852   0.993  53.198  1.00  0.00     0.009 A 
HETATM   30  C17 UNL     1      20.929   0.254  53.922  1.00  0.00     0.001 A 
HETATM   31  C18 UNL     1      21.326  -0.842  54.657  1.00  0.00     0.000 A 
HETATM   32  C19 UNL     1      22.658  -1.185  54.657  1.00  0.00     0.001 A 
HETATM   33  C20 UNL     1      23.531  -0.426  53.928  1.00  0.00     0.009 A 
ENDBRANCH  24  28
ENDBRANCH  22  24
ENDBRANCH  21  22
ENDBRANCH  15  21
TORSDOF 6
ENDMDL
MODEL 6
REMARK VINA RESULT:      -7.6      7.219     10.805
REMARK  6 active torsions:
REMARK  status: ('A' for Active; 'I' for Inactive)
REMARK    1  A    between atoms: C11_15  and  C12_16 
REMARK    2  A    between atoms: C12_16  and  N3_17 
REMARK    3  A    between atoms: N3_17  and  C13_18 
REMARK    4  A    between atoms: C13_18  and  C14_19 
REMARK    5  A    between atoms: C13_18  and  C15_21 
REMARK    6  A    between atoms: C14_19  and  O2_20 
ROOT
HETATM    1  C1  UNL     1       9.784   0.478  54.880  1.00  0.00     0.145 C 
HETATM    2  N1  UNL     1      11.065   0.520  55.550  1.00  0.00    -0.397 N 
HETATM    3  C2  UNL     1      11.411   1.748  56.100  1.00  0.00     0.145 C 
HETATM    4  C3  UNL     1      11.744   2.839  55.096  1.00  0.00    -0.002 C 
HETATM    5  C4  UNL     1      11.861   3.907  54.266  1.00  0.00     0.072 C 
HETATM    6  C5  UNL     1      12.967   4.061  53.369  1.00  0.00     0.243 C 
HETATM    7  O1  UNL     1      12.515   5.018  52.706  1.00  0.00    -0.268 OA
HETATM    8  N2  UNL     1      14.048   4.213  52.492  1.00  0.00    -0.344 N 
HETATM    9  C6  UNL     1      15.450   4.008  52.692  1.00  0.00     0.131 C 
HETATM   10  C7  UNL     1      15.751   2.625  52.072  1.00  0.00     0.060 C 
HETATM   11  C8  UNL     1      14.431   1.917  51.896  1.00  0.00    -0.028 A 
HETATM   12  C9  UNL     1      13.414   2.570  51.136  1.00  0.00     0.009 A 
HETATM   13  S1  UNL     1      11.971   1.401  51.093  1.00  0.00    -0.078 SA
HETATM   14  C10 UNL     1      12.830   0.216  52.085  1.00  0.00     0.086 A 
HETATM   15  C11 UNL     1      14.047   0.701  52.353  1.00  0.00     0.017 A 
HETATM   16  N4  UNL     1      12.025  -0.751  52.399  1.00  0.00    -0.160 NA
HETATM   17  C21 UNL     1      12.456  -1.846  53.220  1.00  0.00     0.239 A 
HETATM   18  N5  UNL     1      12.062  -0.927  53.973  1.00  0.00    -0.297 N 
HETATM   19  C22 UNL     1      11.892  -0.583  55.316  1.00  0.00     0.258 C 
HETATM   20  C23 UNL     1      13.909   4.124  50.944  1.00  0.00     0.172 C 
ENDROOT
BRANCH  15  21
HETATM   21  C12 UNL     1      14.829  -0.097  53.049  1.00  0.00     0.098 C 
BRANCH  21  22
HETATM   22  N3  UNL     1      15.827  -1.056  52.763  1.00  0.00    -0.387 N 
HETATM   23  H13 UNL     1      15.488  -1.860  52.137  1.00  0.00     0.159 HD
BRANCH  22  24
HETATM   24  C13 UNL     1      17.228  -1.089  53.216  1.00  0.00     0.137 C 
BRANCH  24  25
HETATM   25  C14 UNL     1      17.578  -2.521  53.505  1.00  0.00     0.194 C 
BRANCH  25  26
HETATM   26  O2  UNL     1      16.510  -3.380  53.549  1.00  0.00    -0.399 OA
HETATM   27  H17 UNL     1      16.201  -3.553  52.625  1.00  0.00     0.209 HD
ENDBRANCH  25  26
ENDBRANCH  24  25
BRANCH  24  28
HETATM   28  C15 UNL     1      18.108  -0.422  52.255  1.00  0.00    -0.034 A 
HETATM   29  C16 UNL     1      19.386  -0.092  52.633  1.00  0.00     0.009 A 
HETATM   30  C17 UNL     1      20.278   0.551  51.788  1.00  0.00     0.001 A 
HETATM   31  C18 UNL     1      19.911   0.893  50.505  1.00  0.00     0.000 A 
HETATM   32  C19 UNL     1      18.639   0.583  50.082  1.00  0.00     0.001 A 
HETATM   33  C20 UNL     1      17.795  -0.052  50.950  1.00  0.00     0.009 A 
ENDBRANCH  24  28
ENDBRANCH  22  24
ENDBRANCH  21  22
ENDBRANCH  15  21
TORSDOF 6
ENDMDL
MODEL 7
REMARK VINA RESULT:      -7.6      2.607      4.605
REMARK  6 active torsions:
REMARK  status: ('A' for Active; 'I' for Inactive)
REMARK    1  A    between atoms: C11_15  and  C12_16 
REMARK    2  A    between atoms: C12_16  and  N3_17 
REMARK    3  A    between atoms: N3_17  and  C13_18 
REMARK    4  A    between atoms: C13_18  and  C14_19 
REMARK    5  A    between atoms: C13_18  and  C15_21 
REMARK    6  A    between atoms: C14_19  and  O2_20 
ROOT
HETATM    1  C1  UNL     1      23.167   9.126  48.400  1.00  0.00     0.145 C 
HETATM    2  N1  UNL     1      24.234   8.181  48.148  1.00  0.00    -0.397 N 
HETATM    3  C2  UNL     1      24.266   7.645  46.867  1.00  0.00     0.145 C 
HETATM    4  C3  UNL     1      23.143   6.674  46.542  1.00  0.00    -0.002 C 
HETATM    5  C4  UNL     1      22.071   5.959  46.116  1.00  0.00     0.072 C 
HETATM    6  C5  UNL     1      21.789   4.641  46.600  1.00  0.00     0.243 C 
HETATM    7  O1  UNL     1      20.646   4.521  46.111  1.00  0.00    -0.268 OA
HETATM    8  N2  UNL     1      21.514   3.351  47.073  1.00  0.00    -0.344 N 
HETATM    9  C6  UNL     1      22.378   2.233  47.296  1.00  0.00     0.131 C 
HETATM   10  C7  UNL     1      22.645   2.222  48.818  1.00  0.00     0.060 C 
HETATM   11  C8  UNL     1      22.243   3.575  49.352  1.00  0.00    -0.028 A 
HETATM   12  C9  UNL     1      20.912   4.028  49.104  1.00  0.00     0.009 A 
HETATM   13  S1  UNL     1      20.766   5.682  49.934  1.00  0.00    -0.078 SA
HETATM   14  C10 UNL     1      22.446   5.618  50.482  1.00  0.00     0.086 A 
HETATM   15  C11 UNL     1      22.974   4.460  50.072  1.00  0.00     0.017 A 
HETATM   16  N4  UNL     1      22.769   6.750  51.025  1.00  0.00    -0.160 NA
HETATM   17  C21 UNL     1      24.087   6.984  51.541  1.00  0.00     0.239 A 
HETATM   18  N5  UNL     1      24.090   7.271  50.322  1.00  0.00    -0.297 N 
HETATM   19  C22 UNL     1      24.908   7.733  49.288  1.00  0.00     0.258 C 
HETATM   20  C23 UNL     1      20.286   3.017  47.971  1.00  0.00     0.172 C 
ENDROOT
BRANCH  15  21
HETATM   21  C12 UNL     1      24.216   4.243  50.449  1.00  0.00     0.098 C 
BRANCH  21  22
HETATM   22  N3  UNL     1      24.864   3.493  51.456  1.00  0.00    -0.387 N 
HETATM   23  H13 UNL     1      25.053   4.048  52.355  1.00  0.00     0.159 HD
BRANCH  22  24
HETATM   24  C13 UNL     1      25.307   2.089  51.416  1.00  0.00     0.137 C 
BRANCH  24  25
HETATM   25  C14 UNL     1      26.774   2.066  51.739  1.00  0.00     0.194 C 
BRANCH  25  26
HETATM   26  O2  UNL     1      27.463   3.195  51.375  1.00  0.00    -0.399 OA
HETATM   27  H17 UNL     1      27.750   3.672  52.194  1.00  0.00     0.209 HD
ENDBRANCH  25  26
ENDBRANCH  24  25
BRANCH  24  28
HETATM   28  C15 UNL     1      24.474   1.250  52.279  1.00  0.00    -0.034 A 
HETATM   29  C16 UNL     1      23.121   1.483  52.338  1.00  0.00     0.009 A 
HETATM   30  C17 UNL     1      22.264   0.742  53.138  1.00  0.00     0.001 A 
HETATM   31  C18 UNL     1      22.745  -0.281  53.925  1.00  0.00     0.000 A 
HETATM   32  C19 UNL     1      24.094  -0.551  53.900  1.00  0.00     0.001 A 
HETATM   33  C20 UNL     1      24.900   0.206  53.096  1.00  0.00     0.009 A 
ENDBRANCH  24  28
ENDBRANCH  22  24
ENDBRANCH  21  22
ENDBRANCH  15  21
TORSDOF 6
ENDMDL
MODEL 8
REMARK VINA RESULT:      -7.4      9.385     12.945
REMARK  6 active torsions:
REMARK  status: ('A' for Active; 'I' for Inactive)
REMARK    1  A    between atoms: C11_15  and  C12_16 
REMARK    2  A    between atoms: C12_16  and  N3_17 
REMARK    3  A    between atoms: N3_17  and  C13_18 
REMARK    4  A    between atoms: C13_18  and  C14_19 
REMARK    5  A    between atoms: C13_18  and  C15_21 
REMARK    6  A    between atoms: C14_19  and  O2_20 
ROOT
HETATM    1  C1  UNL     1      34.221   3.880  47.324  1.00  0.00     0.145 C 
HETATM    2  N1  UNL     1      32.865   4.079  46.861  1.00  0.00    -0.397 N 
HETATM    3  C2  UNL     1      32.719   4.227  45.487  1.00  0.00     0.145 C 
HETATM    4  C3  UNL     1      33.251   5.531  44.915  1.00  0.00    -0.002 C 
HETATM    5  C4  UNL     1      33.877   6.572  44.310  1.00  0.00     0.072 C 
HETATM    6  C5  UNL     1      33.420   7.923  44.447  1.00  0.00     0.243 C 
HETATM    7  O1  UNL     1      34.405   8.489  43.928  1.00  0.00    -0.268 OA
HETATM    8  N2  UNL     1      32.974   9.244  44.582  1.00  0.00    -0.344 N 
HETATM    9  C6  UNL     1      31.654   9.795  44.532  1.00  0.00     0.131 C 
HETATM   10  C7  UNL     1      31.247  10.007  46.008  1.00  0.00     0.060 C 
HETATM   11  C8  UNL     1      32.196   9.196  46.855  1.00  0.00    -0.028 A 
HETATM   12  C9  UNL     1      33.597   9.431  46.708  1.00  0.00     0.009 A 
HETATM   13  S1  UNL     1      34.439   8.305  47.921  1.00  0.00    -0.078 SA
HETATM   14  C10 UNL     1      32.894   7.636  48.459  1.00  0.00     0.086 A 
HETATM   15  C11 UNL     1      31.916   8.249  47.783  1.00  0.00     0.017 A 
HETATM   16  N4  UNL     1      33.107   6.648  49.271  1.00  0.00    -0.160 NA
HETATM   17  C21 UNL     1      32.024   5.905  49.848  1.00  0.00     0.239 A 
HETATM   18  N5  UNL     1      32.298   5.394  48.738  1.00  0.00    -0.297 N 
HETATM   19  C22 UNL     1      31.934   4.368  47.863  1.00  0.00     0.258 C 
HETATM   20  C23 UNL     1      33.771  10.339  45.350  1.00  0.00     0.172 C 
ENDROOT
BRANCH  15  21
HETATM   21  C12 UNL     1      30.694   7.890  48.111  1.00  0.00     0.098 C 
BRANCH  21  22
HETATM   22  N3  UNL     1      29.713   8.321  49.033  1.00  0.00    -0.387 N 
HETATM   23  H13 UNL     1      29.863   7.950  50.029  1.00  0.00     0.159 HD
BRANCH  22  24
HETATM   24  C13 UNL     1      28.543   9.182  48.795  1.00  0.00     0.137 C 
BRANCH  24  25
HETATM   25  C14 UNL     1      27.537   8.890  49.873  1.00  0.00     0.194 C 
BRANCH  25  26
HETATM   26  O2  UNL     1      27.755   9.543  51.059  1.00  0.00    -0.399 OA
HETATM   27  H17 UNL     1      28.587  10.073  50.984  1.00  0.00     0.209 HD
ENDBRANCH  25  26
ENDBRANCH  24  25
BRANCH  24  28
HETATM   28  C15 UNL     1      28.937  10.588  48.687  1.00  0.00    -0.034 A 
HETATM   29  C16 UNL     1      28.115  11.465  48.023  1.00  0.00     0.009 A 
HETATM   30  C17 UNL     1      28.419  12.809  47.865  1.00  0.00     0.001 A 
HETATM   31  C18 UNL     1      29.585  13.331  48.380  1.00  0.00     0.000 A 
HETATM   32  C19 UNL     1      30.441  12.490  49.053  1.00  0.00     0.001 A 
HETATM   33  C20 UNL     1      30.098  11.173  49.184  1.00  0.00     0.009 A 
ENDBRANCH  24  28
ENDBRANCH  22  24
ENDBRANCH  21  22
ENDBRANCH  15  21
TORSDOF 6
ENDMDL
MODEL 9
REMARK VINA RESULT:      -7.4      2.638      4.160
REMARK  6 active torsions:
REMARK  status: ('A' for Active; 'I' for Inactive)
REMARK    1  A    between atoms: C11_15  and  C12_16 
REMARK    2  A    between atoms: C12_16  and  N3_17 
REMARK    3  A    between atoms: N3_17  and  C13_18 
REMARK    4  A    between atoms: C13_18  and  C14_19 
REMARK    5  A    between atoms: C13_18  and  C15_21 
REMARK    6  A    between atoms: C14_19  and  O2_20 
ROOT
HETATM    1  C1  UNL     1      23.259   8.111  49.831  1.00  0.00     0.145 C 
HETATM    2  N1  UNL     1      24.242   7.100  49.506  1.00  0.00    -0.397 N 
HETATM    3  C2  UNL     1      24.302   6.733  48.168  1.00  0.00     0.145 C 
HETATM    4  C3  UNL     1      23.112   5.936  47.660  1.00  0.00    -0.002 C 
HETATM    5  C4  UNL     1      22.004   5.398  47.089  1.00  0.00     0.072 C 
HETATM    6  C5  UNL     1      21.566   4.065  47.377  1.00  0.00     0.243 C 
HETATM    7  O1  UNL     1      20.449   4.130  46.821  1.00  0.00    -0.268 OA
HETATM    8  N2  UNL     1      21.137   2.761  47.658  1.00  0.00    -0.344 N 
HETATM    9  C6  UNL     1      21.872   1.539  47.769  1.00  0.00     0.131 C 
HETATM   10  C7  UNL     1      22.041   1.304  49.287  1.00  0.00     0.060 C 
HETATM   11  C8  UNL     1      21.741   2.610  49.978  1.00  0.00    -0.028 A 
HETATM   12  C9  UNL     1      20.478   3.229  49.729  1.00  0.00     0.009 A 
HETATM   13  S1  UNL     1      20.443   4.768  50.767  1.00  0.00    -0.078 SA
HETATM   14  C10 UNL     1      22.071   4.458  51.382  1.00  0.00     0.086 A 
HETATM   15  C11 UNL     1      22.508   3.313  50.847  1.00  0.00     0.017 A 
HETATM   16  N4  UNL     1      22.468   5.470  52.088  1.00  0.00    -0.160 NA
HETATM   17  C21 UNL     1      23.768   5.496  52.695  1.00  0.00     0.239 A 
HETATM   18  N5  UNL     1      23.875   5.936  51.528  1.00  0.00    -0.297 N 
HETATM   19  C22 UNL     1      24.797   6.439  50.607  1.00  0.00     0.258 C 
HETATM   20  C23 UNL     1      19.829   2.444  48.440  1.00  0.00     0.172 C 
ENDROOT
BRANCH  15  21
HETATM   21  C12 UNL     1      23.697   2.921  51.251  1.00  0.00     0.098 C 
BRANCH  21  22
HETATM   22  N3  UNL     1      24.332   1.687  51.517  1.00  0.00    -0.387 N 
HETATM   23  H13 UNL     1      24.503   1.090  50.641  1.00  0.00     0.159 HD
BRANCH  22  24
HETATM   24  C13 UNL     1      24.764   1.136  52.812  1.00  0.00     0.137 C 
BRANCH  24  25
HETATM   25  C14 UNL     1      25.148   2.291  53.693  1.00  0.00     0.194 C 
BRANCH  25  26
HETATM   26  O2  UNL     1      26.498   2.464  53.864  1.00  0.00    -0.399 OA
HETATM   27  H17 UNL     1      26.967   2.129  53.060  1.00  0.00     0.209 HD
ENDBRANCH  25  26
ENDBRANCH  24  25
BRANCH  24  28
HETATM   28  C15 UNL     1      23.743   0.248  53.373  1.00  0.00    -0.034 A 
HETATM   29  C16 UNL     1      24.033  -0.476  54.504  1.00  0.00     0.009 A 
HETATM   30  C17 UNL     1      23.128  -1.348  55.091  1.00  0.00     0.001 A 
HETATM   31  C18 UNL     1      21.873  -1.527  54.553  1.00  0.00     0.000 A 
HETATM   32  C19 UNL     1      21.538  -0.823  53.419  1.00  0.00     0.001 A 
HETATM   33  C20 UNL     1      22.463   0.025  52.876  1.00  0.00     0.009 A 
ENDBRANCH  24  28
ENDBRANCH  22  24
ENDBRANCH  21  22
ENDBRANCH  15  21
TORSDOF 6
ENDMDL
