MODEL 1
REMARK VINA RESULT:      -8.2      0.000      0.000
REMARK  7 active torsions:
REMARK  status: ('A' for Active; 'I' for Inactive)
REMARK    1  A    between atoms: O1_2  and  C2_3 
REMARK    2  A    between atoms: C6_7  and  N1_8 
REMARK    3  A    between atoms: N1_8  and  C7_9 
REMARK    4  A    between atoms: N4_19  and  C15_20 
REMARK    5  A    between atoms: C15_20  and  N5_21 
REMARK    6  A    between atoms: N5_21  and  C17_23 
REMARK    7  A    between atoms: C17_23  and  C18_24 
ROOT
HETATM    1  C7  UNL     1      26.691   2.054  51.911  1.00  0.00     0.142 A 
HETATM    2  N2  UNL     1      27.931   2.404  52.259  1.00  0.00    -0.224 NA
HETATM    3  C8  UNL     1      28.535   2.022  53.390  1.00  0.00     0.236 A 
HETATM    4  N3  UNL     1      27.921   1.228  54.296  1.00  0.00    -0.241 NA
HETATM    5  C9  UNL     1      26.652   0.864  53.949  1.00  0.00     0.075 A 
HETATM    6  C10 UNL     1      26.066   0.049  54.924  1.00  0.00     0.071 A 
HETATM    7  C11 UNL     1      24.781  -0.398  54.720  1.00  0.00     0.098 A 
HETATM    8  C12 UNL     1      24.126  -0.010  53.545  1.00  0.00     0.073 A 
HETATM    9  C13 UNL     1      24.732   0.795  52.603  1.00  0.00     0.050 A 
HETATM   10  C14 UNL     1      26.018   1.249  52.792  1.00  0.00     0.041 A 
HETATM   11  N4  UNL     1      22.777  -0.429  53.274  1.00  0.00    -0.286 N 
HETATM   12  C19 UNL     1      22.221  -1.256  54.319  1.00  0.00     0.250 C 
HETATM   13  O3  UNL     1      20.996  -1.606  54.359  1.00  0.00    -0.271 OA
HETATM   14  C20 UNL     1      22.928  -1.821  55.481  1.00  0.00     0.279 C 
HETATM   15  O4  UNL     1      24.190  -1.213  55.688  1.00  0.00    -0.340 OA
ENDROOT
BRANCH   1  16
HETATM   16  N1  UNL     1      26.071   2.477  50.715  1.00  0.00    -0.340 N 
HETATM   17  H7  UNL     1      25.499   1.880  50.085  1.00  0.00     0.167 HD
BRANCH  16  18
HETATM   18  C6  UNL     1      26.134   3.790  50.179  1.00  0.00     0.036 A 
HETATM   19  C5  UNL     1      27.055   4.162  49.195  1.00  0.00     0.029 A 
HETATM   20  C4  UNL     1      27.130   5.415  48.647  1.00  0.00     0.005 A 
HETATM   21  C3  UNL     1      26.257   6.392  49.070  1.00  0.00     0.037 A 
HETATM   22  C2  UNL     1      25.310   6.102  50.045  1.00  0.00     0.070 A 
HETATM   23  C21 UNL     1      25.310   4.831  50.533  1.00  0.00     0.066 A 
BRANCH  22  24
HETATM   24  O1  UNL     1      24.451   7.101  50.447  1.00  0.00    -0.356 OA
HETATM   25  C1  UNL     1      24.463   8.405  49.917  1.00  0.00     0.210 C 
ENDBRANCH  22  24
ENDBRANCH  16  18
ENDBRANCH   1  16
BRANCH  11  26
HETATM   26  C15 UNL     1      21.994  -0.115  52.138  1.00  0.00     0.405 C 
BRANCH  26  27
HETATM   27  N5  UNL     1      21.074   0.946  52.394  1.00  0.00     0.104 N 
HETATM   28  C16 UNL     1      19.705   0.696  52.023  1.00  0.00     0.312 C 
BRANCH  27  29
HETATM   29  C17 UNL     1      21.445   2.258  52.017  1.00  0.00     0.310 C 
BRANCH  29  30
HETATM   30  C18 UNL     1      22.042   2.198  50.653  1.00  0.00     0.421 C 
HETATM   31  O2  UNL     1      22.955   2.299  49.844  1.00  0.00    -0.428 OA
ENDBRANCH  29  30
ENDBRANCH  27  29
ENDBRANCH  26  27
ENDBRANCH  11  26
TORSDOF 7
ENDMDL
MODEL 2
REMARK VINA RESULT:      -8.0      1.691      2.262
REMARK  7 active torsions:
REMARK  status: ('A' for Active; 'I' for Inactive)
REMARK    1  A    between atoms: O1_2  and  C2_3 
REMARK    2  A    between atoms: C6_7  and  N1_8 
REMARK    3  A    between atoms: N1_8  and  C7_9 
REMARK    4  A    between atoms: N4_19  and  C15_20 
REMARK    5  A    between atoms: C15_20  and  N5_21 
REMARK    6  A    between atoms: N5_21  and  C17_23 
REMARK    7  A    between atoms: C17_23  and  C18_24 
ROOT
HETATM    1  C7  UNL     1      25.713   2.295  51.426  1.00  0.00     0.142 A 
HETATM    2  N2  UNL     1      27.011   2.308  51.737  1.00  0.00    -0.224 NA
HETATM    3  C8  UNL     1      27.565   1.560  52.698  1.00  0.00     0.236 A 
HETATM    4  N3  UNL     1      26.835   0.707  53.451  1.00  0.00    -0.241 NA
HETATM    5  C9  UNL     1      25.506   0.686  53.141  1.00  0.00     0.075 A 
HETATM    6  C10 UNL     1      24.802  -0.208  53.955  1.00  0.00     0.071 A 
HETATM    7  C11 UNL     1      23.445  -0.338  53.766  1.00  0.00     0.098 A 
HETATM    8  C12 UNL     1      22.841   0.435  52.767  1.00  0.00     0.073 A 
HETATM    9  C13 UNL     1      23.564   1.308  51.982  1.00  0.00     0.050 A 
HETATM   10  C14 UNL     1      24.922   1.449  52.158  1.00  0.00     0.041 A 
HETATM   11  N4  UNL     1      21.425   0.359  52.525  1.00  0.00    -0.286 N 
HETATM   12  C19 UNL     1      20.750  -0.569  53.402  1.00  0.00     0.250 C 
HETATM   13  O3  UNL     1      19.482  -0.677  53.466  1.00  0.00    -0.271 OA
HETATM   14  C20 UNL     1      21.368  -1.518  54.343  1.00  0.00     0.279 C 
HETATM   15  O4  UNL     1      22.736  -1.230  54.574  1.00  0.00    -0.340 OA
ENDROOT
BRANCH   1  16
HETATM   16  N1  UNL     1      25.149   3.099  50.412  1.00  0.00    -0.340 N 
HETATM   17  H7  UNL     1      24.183   3.016  50.040  1.00  0.00     0.167 HD
BRANCH  16  18
HETATM   18  C6  UNL     1      25.817   4.153  49.735  1.00  0.00     0.036 A 
HETATM   19  C5  UNL     1      25.230   5.404  49.518  1.00  0.00     0.029 A 
HETATM   20  C4  UNL     1      25.854   6.446  48.883  1.00  0.00     0.005 A 
HETATM   21  C3  UNL     1      27.140   6.282  48.419  1.00  0.00     0.037 A 
HETATM   22  C2  UNL     1      27.794   5.069  48.597  1.00  0.00     0.070 A 
HETATM   23  C21 UNL     1      27.096   4.090  49.237  1.00  0.00     0.066 A 
BRANCH  22  24
HETATM   24  O1  UNL     1      29.080   4.937  48.121  1.00  0.00    -0.356 OA
HETATM   25  C1  UNL     1      29.996   6.002  48.034  1.00  0.00     0.210 C 
ENDBRANCH  22  24
ENDBRANCH  16  18
ENDBRANCH   1  16
BRANCH  11  26
HETATM   26  C15 UNL     1      20.682   1.077  51.559  1.00  0.00     0.405 C 
BRANCH  26  27
HETATM   27  N5  UNL     1      19.964   2.169  52.134  1.00  0.00     0.104 N 
HETATM   28  C16 UNL     1      18.636   2.390  51.622  1.00  0.00     0.312 C 
BRANCH  27  29
HETATM   29  C17 UNL     1      20.635   3.405  52.284  1.00  0.00     0.310 C 
BRANCH  29  30
HETATM   30  C18 UNL     1      21.200   3.791  50.960  1.00  0.00     0.421 C 
HETATM   31  O2  UNL     1      22.108   3.970  50.158  1.00  0.00    -0.428 OA
ENDBRANCH  29  30
ENDBRANCH  27  29
ENDBRANCH  26  27
ENDBRANCH  11  26
TORSDOF 7
ENDMDL
MODEL 3
REMARK VINA RESULT:      -8.0      2.734      5.405
REMARK  7 active torsions:
REMARK  status: ('A' for Active; 'I' for Inactive)
REMARK    1  A    between atoms: O1_2  and  C2_3 
REMARK    2  A    between atoms: C6_7  and  N1_8 
REMARK    3  A    between atoms: N1_8  and  C7_9 
REMARK    4  A    between atoms: N4_19  and  C15_20 
REMARK    5  A    between atoms: C15_20  and  N5_21 
REMARK    6  A    between atoms: N5_21  and  C17_23 
REMARK    7  A    between atoms: C17_23  and  C18_24 
ROOT
HETATM    1  C7  UNL     1      25.515   4.202  49.545  1.00  0.00     0.142 A 
HETATM    2  N2  UNL     1      24.629   4.969  48.906  1.00  0.00    -0.224 NA
HETATM    3  C8  UNL     1      23.301   4.854  49.031  1.00  0.00     0.236 A 
HETATM    4  N3  UNL     1      22.736   3.929  49.838  1.00  0.00    -0.241 NA
HETATM    5  C9  UNL     1      23.634   3.140  50.498  1.00  0.00     0.075 A 
HETATM    6  C10 UNL     1      22.993   2.200  51.311  1.00  0.00     0.071 A 
HETATM    7  C11 UNL     1      23.767   1.326  52.039  1.00  0.00     0.098 A 
HETATM    8  C12 UNL     1      25.158   1.424  51.925  1.00  0.00     0.073 A 
HETATM    9  C13 UNL     1      25.760   2.362  51.112  1.00  0.00     0.050 A 
HETATM   10  C14 UNL     1      25.000   3.245  50.379  1.00  0.00     0.041 A 
HETATM   11  N4  UNL     1      26.027   0.533  52.646  1.00  0.00    -0.286 N 
HETATM   12  C19 UNL     1      25.310  -0.422  53.458  1.00  0.00     0.250 C 
HETATM   13  O3  UNL     1      25.873  -1.397  54.055  1.00  0.00    -0.271 OA
HETATM   14  C20 UNL     1      23.864  -0.449  53.736  1.00  0.00     0.279 C 
HETATM   15  O4  UNL     1      23.133   0.386  52.856  1.00  0.00    -0.340 OA
ENDROOT
BRANCH   1  16
HETATM   16  N1  UNL     1      26.912   4.336  49.391  1.00  0.00    -0.340 N 
HETATM   17  H7  UNL     1      27.629   3.692  49.779  1.00  0.00     0.167 HD
BRANCH  16  18
HETATM   18  C6  UNL     1      27.562   5.380  48.681  1.00  0.00     0.036 A 
HETATM   19  C5  UNL     1      26.906   6.552  48.294  1.00  0.00     0.029 A 
HETATM   20  C4  UNL     1      27.509   7.584  47.622  1.00  0.00     0.005 A 
HETATM   21  C3  UNL     1      28.843   7.489  47.294  1.00  0.00     0.037 A 
HETATM   22  C2  UNL     1      29.565   6.355  47.645  1.00  0.00     0.070 A 
HETATM   23  C21 UNL     1      28.884   5.381  48.309  1.00  0.00     0.066 A 
BRANCH  22  24
HETATM   24  O1  UNL     1      30.898   6.291  47.302  1.00  0.00    -0.356 OA
HETATM   25  C1  UNL     1      31.717   5.172  47.541  1.00  0.00     0.210 C 
ENDBRANCH  22  24
ENDBRANCH  16  18
ENDBRANCH   1  16
BRANCH  11  26
HETATM   26  C15 UNL     1      27.441   0.513  52.626  1.00  0.00     0.405 C 
BRANCH  26  27
HETATM   27  N5  UNL     1      28.005   1.105  53.797  1.00  0.00     0.104 N 
HETATM   28  C16 UNL     1      28.602   2.404  53.621  1.00  0.00     0.312 C 
BRANCH  27  29
HETATM   29  C17 UNL     1      28.827   0.303  54.623  1.00  0.00     0.310 C 
BRANCH  29  30
HETATM   30  C18 UNL     1      29.268  -0.879  53.831  1.00  0.00     0.421 C 
HETATM   31  O2  UNL     1      29.444  -2.076  53.641  1.00  0.00    -0.428 OA
ENDBRANCH  29  30
ENDBRANCH  27  29
ENDBRANCH  26  27
ENDBRANCH  11  26
TORSDOF 7
ENDMDL
MODEL 4
REMARK VINA RESULT:      -7.9      2.218      4.863
REMARK  7 active torsions:
REMARK  status: ('A' for Active; 'I' for Inactive)
REMARK    1  A    between atoms: O1_2  and  C2_3 
REMARK    2  A    between atoms: C6_7  and  N1_8 
REMARK    3  A    between atoms: N1_8  and  C7_9 
REMARK    4  A    between atoms: N4_19  and  C15_20 
REMARK    5  A    between atoms: C15_20  and  N5_21 
REMARK    6  A    between atoms: N5_21  and  C17_23 
REMARK    7  A    between atoms: C17_23  and  C18_24 
ROOT
HETATM    1  C7  UNL     1      25.144   3.833  49.553  1.00  0.00     0.142 A 
HETATM    2  N2  UNL     1      24.204   4.552  48.935  1.00  0.00    -0.224 NA
HETATM    3  C8  UNL     1      22.891   4.435  49.163  1.00  0.00     0.236 A 
HETATM    4  N3  UNL     1      22.396   3.556  50.063  1.00  0.00    -0.241 NA
HETATM    5  C9  UNL     1      23.349   2.816  50.702  1.00  0.00     0.075 A 
HETATM    6  C10 UNL     1      22.780   1.922  51.615  1.00  0.00     0.071 A 
HETATM    7  C11 UNL     1      23.614   1.100  52.336  1.00  0.00     0.098 A 
HETATM    8  C12 UNL     1      24.993   1.202  52.115  1.00  0.00     0.073 A 
HETATM    9  C13 UNL     1      25.523   2.093  51.206  1.00  0.00     0.050 A 
HETATM   10  C14 UNL     1      24.701   2.924  50.478  1.00  0.00     0.041 A 
HETATM   11  N4  UNL     1      25.923   0.363  52.823  1.00  0.00    -0.286 N 
HETATM   12  C19 UNL     1      25.277  -0.547  53.742  1.00  0.00     0.250 C 
HETATM   13  O3  UNL     1      25.893  -1.479  54.353  1.00  0.00    -0.271 OA
HETATM   14  C20 UNL     1      23.855  -0.568  54.125  1.00  0.00     0.279 C 
HETATM   15  O4  UNL     1      23.053   0.206  53.251  1.00  0.00    -0.340 OA
ENDROOT
BRANCH   1  16
HETATM   16  N1  UNL     1      26.524   3.968  49.291  1.00  0.00    -0.340 N 
HETATM   17  H7  UNL     1      27.231   3.210  49.360  1.00  0.00     0.167 HD
BRANCH  16  18
HETATM   18  C6  UNL     1      27.168   5.169  48.891  1.00  0.00     0.036 A 
HETATM   19  C5  UNL     1      28.451   5.189  48.335  1.00  0.00     0.029 A 
HETATM   20  C4  UNL     1      29.094   6.328  47.926  1.00  0.00     0.005 A 
HETATM   21  C3  UNL     1      28.462   7.544  48.056  1.00  0.00     0.037 A 
HETATM   22  C2  UNL     1      27.184   7.609  48.599  1.00  0.00     0.070 A 
HETATM   23  C21 UNL     1      26.625   6.427  48.979  1.00  0.00     0.066 A 
BRANCH  22  24
HETATM   24  O1  UNL     1      26.580   8.841  48.716  1.00  0.00    -0.356 OA
HETATM   25  C1  UNL     1      25.248   9.025  49.131  1.00  0.00     0.210 C 
ENDBRANCH  22  24
ENDBRANCH  16  18
ENDBRANCH   1  16
BRANCH  11  26
HETATM   26  C15 UNL     1      27.332   0.353  52.703  1.00  0.00     0.405 C 
BRANCH  26  27
HETATM   27  N5  UNL     1      27.971   1.016  53.794  1.00  0.00     0.104 N 
HETATM   28  C16 UNL     1      28.431   2.357  53.534  1.00  0.00     0.312 C 
BRANCH  27  29
HETATM   29  C17 UNL     1      28.947   0.305  54.530  1.00  0.00     0.310 C 
BRANCH  29  30
HETATM   30  C18 UNL     1      29.297  -0.927  53.768  1.00  0.00     0.421 C 
HETATM   31  O2  UNL     1      29.233  -2.123  53.516  1.00  0.00    -0.428 OA
ENDBRANCH  29  30
ENDBRANCH  27  29
ENDBRANCH  26  27
ENDBRANCH  11  26
TORSDOF 7
ENDMDL
MODEL 5
REMARK VINA RESULT:      -7.5      2.241      5.984
REMARK  7 active torsions:
REMARK  status: ('A' for Active; 'I' for Inactive)
REMARK    1  A    between atoms: O1_2  and  C2_3 
REMARK    2  A    between atoms: C6_7  and  N1_8 
REMARK    3  A    between atoms: N1_8  and  C7_9 
REMARK    4  A    between atoms: N4_19  and  C15_20 
REMARK    5  A    between atoms: C15_20  and  N5_21 
REMARK    6  A    between atoms: N5_21  and  C17_23 
REMARK    7  A    between atoms: C17_23  and  C18_24 
ROOT
HETATM    1  C7  UNL     1      25.748   2.478  51.441  1.00  0.00     0.142 A 
HETATM    2  N2  UNL     1      26.755   2.934  50.693  1.00  0.00    -0.224 NA
HETATM    3  C8  UNL     1      26.600   3.661  49.580  1.00  0.00     0.236 A 
HETATM    4  N3  UNL     1      25.379   4.001  49.112  1.00  0.00    -0.241 NA
HETATM    5  C9  UNL     1      24.342   3.541  49.871  1.00  0.00     0.075 A 
HETATM    6  C10 UNL     1      23.106   3.918  49.336  1.00  0.00     0.071 A 
HETATM    7  C11 UNL     1      21.960   3.523  49.988  1.00  0.00     0.098 A 
HETATM    8  C12 UNL     1      22.095   2.761  51.155  1.00  0.00     0.073 A 
HETATM    9  C13 UNL     1      23.330   2.404  51.656  1.00  0.00     0.050 A 
HETATM   10  C14 UNL     1      24.485   2.793  51.015  1.00  0.00     0.041 A 
HETATM   11  N4  UNL     1      20.940   2.302  51.879  1.00  0.00    -0.286 N 
HETATM   12  C19 UNL     1      19.694   2.711  51.275  1.00  0.00     0.250 C 
HETATM   13  O3  UNL     1      18.556   2.288  51.660  1.00  0.00    -0.271 OA
HETATM   14  C20 UNL     1      19.512   3.648  50.153  1.00  0.00     0.279 C 
HETATM   15  O4  UNL     1      20.722   3.898  49.462  1.00  0.00    -0.340 OA
ENDROOT
BRANCH   1  16
HETATM   16  N1  UNL     1      25.936   1.706  52.608  1.00  0.00    -0.340 N 
HETATM   17  H7  UNL     1      25.183   1.382  53.247  1.00  0.00     0.167 HD
BRANCH  16  18
HETATM   18  C6  UNL     1      27.188   1.251  53.098  1.00  0.00     0.036 A 
HETATM   19  C5  UNL     1      28.126   2.106  53.685  1.00  0.00     0.029 A 
HETATM   20  C4  UNL     1      29.336   1.696  54.181  1.00  0.00     0.005 A 
HETATM   21  C3  UNL     1      29.678   0.364  54.111  1.00  0.00     0.037 A 
HETATM   22  C2  UNL     1      28.800  -0.550  53.542  1.00  0.00     0.070 A 
HETATM   23  C21 UNL     1      27.622  -0.052  53.075  1.00  0.00     0.066 A 
BRANCH  22  24
HETATM   24  O1  UNL     1      29.173  -1.875  53.487  1.00  0.00    -0.356 OA
HETATM   25  C1  UNL     1      28.350  -2.901  52.987  1.00  0.00     0.210 C 
ENDBRANCH  22  24
ENDBRANCH  16  18
ENDBRANCH   1  16
BRANCH  11  26
HETATM   26  C15 UNL     1      20.923   1.528  53.063  1.00  0.00     0.405 C 
BRANCH  26  27
HETATM   27  N5  UNL     1      20.808   0.131  52.791  1.00  0.00     0.104 N 
HETATM   28  C16 UNL     1      19.636  -0.519  53.319  1.00  0.00     0.312 C 
BRANCH  27  29
HETATM   29  C17 UNL     1      21.945  -0.686  52.993  1.00  0.00     0.310 C 
BRANCH  29  30
HETATM   30  C18 UNL     1      22.108  -0.902  54.459  1.00  0.00     0.421 C 
HETATM   31  O2  UNL     1      22.398  -1.557  55.451  1.00  0.00    -0.428 OA
ENDBRANCH  29  30
ENDBRANCH  27  29
ENDBRANCH  26  27
ENDBRANCH  11  26
TORSDOF 7
ENDMDL
MODEL 6
REMARK VINA RESULT:      -7.4      2.956      5.976
REMARK  7 active torsions:
REMARK  status: ('A' for Active; 'I' for Inactive)
REMARK    1  A    between atoms: O1_2  and  C2_3 
REMARK    2  A    between atoms: C6_7  and  N1_8 
REMARK    3  A    between atoms: N1_8  and  C7_9 
REMARK    4  A    between atoms: N4_19  and  C15_20 
REMARK    5  A    between atoms: C15_20  and  N5_21 
REMARK    6  A    between atoms: N5_21  and  C17_23 
REMARK    7  A    between atoms: C17_23  and  C18_24 
ROOT
HETATM    1  C7  UNL     1      23.217  -0.156  53.269  1.00  0.00     0.142 A 
HETATM    2  N2  UNL     1      23.533  -0.770  54.411  1.00  0.00    -0.224 NA
HETATM    3  C8  UNL     1      22.650  -1.377  55.212  1.00  0.00     0.236 A 
HETATM    4  N3  UNL     1      21.331  -1.420  54.920  1.00  0.00    -0.241 NA
HETATM    5  C9  UNL     1      20.997  -0.795  53.753  1.00  0.00     0.075 A 
HETATM    6  C10 UNL     1      19.622  -0.867  53.507  1.00  0.00     0.071 A 
HETATM    7  C11 UNL     1      19.128  -0.276  52.366  1.00  0.00     0.098 A 
HETATM    8  C12 UNL     1      20.032   0.367  51.512  1.00  0.00     0.073 A 
HETATM    9  C13 UNL     1      21.383   0.420  51.784  1.00  0.00     0.050 A 
HETATM   10  C14 UNL     1      21.892  -0.167  52.921  1.00  0.00     0.041 A 
HETATM   11  N4  UNL     1      19.583   1.017  50.310  1.00  0.00    -0.286 N 
HETATM   12  C19 UNL     1      18.155   0.922  50.115  1.00  0.00     0.250 C 
HETATM   13  O3  UNL     1      17.528   1.554  49.203  1.00  0.00    -0.271 OA
HETATM   14  C20 UNL     1      17.200   0.116  50.894  1.00  0.00     0.279 C 
HETATM   15  O4  UNL     1      17.756  -0.345  52.112  1.00  0.00    -0.340 OA
ENDROOT
BRANCH   1  16
HETATM   16  N1  UNL     1      24.166   0.485  52.443  1.00  0.00    -0.340 N 
HETATM   17  H7  UNL     1      23.972   0.912  51.517  1.00  0.00     0.167 HD
BRANCH  16  18
HETATM   18  C6  UNL     1      25.543   0.645  52.749  1.00  0.00     0.036 A 
HETATM   19  C5  UNL     1      26.141   1.899  52.906  1.00  0.00     0.029 A 
HETATM   20  C4  UNL     1      27.463   2.087  53.217  1.00  0.00     0.005 A 
HETATM   21  C3  UNL     1      28.278   0.992  53.392  1.00  0.00     0.037 A 
HETATM   22  C2  UNL     1      27.759  -0.290  53.254  1.00  0.00     0.070 A 
HETATM   23  C21 UNL     1      26.437  -0.380  52.943  1.00  0.00     0.066 A 
BRANCH  22  24
HETATM   24  O1  UNL     1      28.602  -1.364  53.435  1.00  0.00    -0.356 OA
HETATM   25  C1  UNL     1      29.977  -1.245  53.711  1.00  0.00     0.210 C 
ENDBRANCH  22  24
ENDBRANCH  16  18
ENDBRANCH   1  16
BRANCH  11  26
HETATM   26  C15 UNL     1      20.375   1.703  49.360  1.00  0.00     0.405 C 
BRANCH  26  27
HETATM   27  N5  UNL     1      20.419   3.108  49.610  1.00  0.00     0.104 N 
HETATM   28  C16 UNL     1      19.889   3.950  48.567  1.00  0.00     0.312 C 
BRANCH  27  29
HETATM   29  C17 UNL     1      21.620   3.661  50.114  1.00  0.00     0.310 C 
BRANCH  29  30
HETATM   30  C18 UNL     1      22.325   4.341  48.991  1.00  0.00     0.421 C 
HETATM   31  O2  UNL     1      23.314   4.673  48.350  1.00  0.00    -0.428 OA
ENDBRANCH  29  30
ENDBRANCH  27  29
ENDBRANCH  26  27
ENDBRANCH  11  26
TORSDOF 7
ENDMDL
MODEL 7
REMARK VINA RESULT:      -7.2      2.303      4.852
REMARK  7 active torsions:
REMARK  status: ('A' for Active; 'I' for Inactive)
REMARK    1  A    between atoms: O1_2  and  C2_3 
REMARK    2  A    between atoms: C6_7  and  N1_8 
REMARK    3  A    between atoms: N1_8  and  C7_9 
REMARK    4  A    between atoms: N4_19  and  C15_20 
REMARK    5  A    between atoms: C15_20  and  N5_21 
REMARK    6  A    between atoms: N5_21  and  C17_23 
REMARK    7  A    between atoms: C17_23  and  C18_24 
ROOT
HETATM    1  C7  UNL     1      22.161   5.130  51.452  1.00  0.00     0.142 A 
HETATM    2  N2  UNL     1      21.028   5.540  50.877  1.00  0.00    -0.224 NA
HETATM    3  C8  UNL     1      19.970   4.754  50.645  1.00  0.00     0.236 A 
HETATM    4  N3  UNL     1      19.963   3.446  50.984  1.00  0.00    -0.241 NA
HETATM    5  C9  UNL     1      21.117   3.015  51.574  1.00  0.00     0.075 A 
HETATM    6  C10 UNL     1      21.054   1.656  51.897  1.00  0.00     0.071 A 
HETATM    7  C11 UNL     1      22.147   1.072  52.495  1.00  0.00     0.098 A 
HETATM    8  C12 UNL     1      23.267   1.873  52.747  1.00  0.00     0.073 A 
HETATM    9  C13 UNL     1      23.298   3.211  52.415  1.00  0.00     0.050 A 
HETATM   10  C14 UNL     1      22.212   3.810  51.817  1.00  0.00     0.041 A 
HETATM   11  N4  UNL     1      24.449   1.325  53.356  1.00  0.00    -0.286 N 
HETATM   12  C19 UNL     1      24.331  -0.083  53.656  1.00  0.00     0.250 C 
HETATM   13  O3  UNL     1      25.306  -0.800  54.052  1.00  0.00    -0.271 OA
HETATM   14  C20 UNL     1      23.119  -0.916  53.563  1.00  0.00     0.279 C 
HETATM   15  O4  UNL     1      22.091  -0.285  52.822  1.00  0.00    -0.340 OA
ENDROOT
BRANCH   1  16
HETATM   16  N1  UNL     1      23.267   5.976  51.679  1.00  0.00    -0.340 N 
HETATM   17  H7  UNL     1      23.510   6.426  52.584  1.00  0.00     0.167 HD
BRANCH  16  18
HETATM   18  C6  UNL     1      24.228   6.350  50.703  1.00  0.00     0.036 A 
HETATM   19  C5  UNL     1      24.283   5.764  49.434  1.00  0.00     0.029 A 
HETATM   20  C4  UNL     1      25.187   6.114  48.465  1.00  0.00     0.005 A 
HETATM   21  C3  UNL     1      26.111   7.100  48.727  1.00  0.00     0.037 A 
HETATM   22  C2  UNL     1      26.121   7.732  49.964  1.00  0.00     0.070 A 
HETATM   23  C21 UNL     1      25.188   7.319  50.865  1.00  0.00     0.066 A 
BRANCH  22  24
HETATM   24  O1  UNL     1      27.059   8.715  50.194  1.00  0.00    -0.356 OA
HETATM   25  C1  UNL     1      28.107   9.022  49.306  1.00  0.00     0.210 C 
ENDBRANCH  22  24
ENDBRANCH  16  18
ENDBRANCH   1  16
BRANCH  11  26
HETATM   26  C15 UNL     1      25.648   2.008  53.667  1.00  0.00     0.405 C 
BRANCH  26  27
HETATM   27  N5  UNL     1      26.739   1.579  52.851  1.00  0.00     0.104 N 
HETATM   28  C16 UNL     1      28.012   2.194  53.128  1.00  0.00     0.312 C 
BRANCH  27  29
HETATM   29  C17 UNL     1      26.536   1.496  51.454  1.00  0.00     0.310 C 
BRANCH  29  30
HETATM   30  C18 UNL     1      26.656   2.868  50.884  1.00  0.00     0.421 C 
HETATM   31  O2  UNL     1      27.080   3.700  50.093  1.00  0.00    -0.428 OA
ENDBRANCH  29  30
ENDBRANCH  27  29
ENDBRANCH  26  27
ENDBRANCH  11  26
TORSDOF 7
ENDMDL
MODEL 8
REMARK VINA RESULT:      -6.9      2.961      6.863
REMARK  7 active torsions:
REMARK  status: ('A' for Active; 'I' for Inactive)
REMARK    1  A    between atoms: O1_2  and  C2_3 
REMARK    2  A    between atoms: C6_7  and  N1_8 
REMARK    3  A    between atoms: N1_8  and  C7_9 
REMARK    4  A    between atoms: N4_19  and  C15_20 
REMARK    5  A    between atoms: C15_20  and  N5_21 
REMARK    6  A    between atoms: N5_21  and  C17_23 
REMARK    7  A    between atoms: C17_23  and  C18_24 
ROOT
HETATM    1  C7  UNL     1      26.679   4.147  49.265  1.00  0.00     0.142 A 
HETATM    2  N2  UNL     1      27.923   4.367  48.833  1.00  0.00    -0.224 NA
HETATM    3  C8  UNL     1      28.355   5.533  48.338  1.00  0.00     0.236 A 
HETATM    4  N3  UNL     1      27.545   6.610  48.232  1.00  0.00    -0.241 NA
HETATM    5  C9  UNL     1      26.270   6.395  48.672  1.00  0.00     0.075 A 
HETATM    6  C10 UNL     1      25.479   7.540  48.533  1.00  0.00     0.071 A 
HETATM    7  C11 UNL     1      24.162   7.479  48.929  1.00  0.00     0.098 A 
HETATM    8  C12 UNL     1      23.685   6.271  49.450  1.00  0.00     0.073 A 
HETATM    9  C13 UNL     1      24.492   5.159  49.573  1.00  0.00     0.050 A 
HETATM   10  C14 UNL     1      25.811   5.204  49.182  1.00  0.00     0.041 A 
HETATM   11  N4  UNL     1      22.317   6.132  49.871  1.00  0.00    -0.286 N 
HETATM   12  C19 UNL     1      21.545   7.341  49.693  1.00  0.00     0.250 C 
HETATM   13  O3  UNL     1      20.283   7.396  49.853  1.00  0.00    -0.271 OA
HETATM   14  C20 UNL     1      22.048   8.672  49.310  1.00  0.00     0.279 C 
HETATM   15  O4  UNL     1      23.366   8.619  48.796  1.00  0.00    -0.340 OA
ENDROOT
BRANCH   1  16
HETATM   16  N1  UNL     1      26.243   2.906  49.777  1.00  0.00    -0.340 N 
HETATM   17  H7  UNL     1      25.918   2.097  49.211  1.00  0.00     0.167 HD
BRANCH  16  18
HETATM   18  C6  UNL     1      26.177   2.565  51.154  1.00  0.00     0.036 A 
HETATM   19  C5  UNL     1      24.977   2.247  51.797  1.00  0.00     0.029 A 
HETATM   20  C4  UNL     1      24.883   1.899  53.119  1.00  0.00     0.005 A 
HETATM   21  C3  UNL     1      26.023   1.850  53.888  1.00  0.00     0.037 A 
HETATM   22  C2  UNL     1      27.256   2.151  53.323  1.00  0.00     0.070 A 
HETATM   23  C21 UNL     1      27.254   2.487  52.003  1.00  0.00     0.066 A 
BRANCH  22  24
HETATM   24  O1  UNL     1      28.378   2.093  54.120  1.00  0.00    -0.356 OA
HETATM   25  C1  UNL     1      29.231   0.975  54.192  1.00  0.00     0.210 C 
ENDBRANCH  22  24
ENDBRANCH  16  18
ENDBRANCH   1  16
BRANCH  11  26
HETATM   26  C15 UNL     1      21.698   4.980  50.410  1.00  0.00     0.405 C 
BRANCH  26  27
HETATM   27  N5  UNL     1      20.905   4.292  49.442  1.00  0.00     0.104 N 
HETATM   28  C16 UNL     1      19.603   3.863  49.885  1.00  0.00     0.312 C 
BRANCH  27  29
HETATM   29  C17 UNL     1      21.518   3.269  48.681  1.00  0.00     0.310 C 
BRANCH  29  30
HETATM   30  C18 UNL     1      21.994   2.214  49.618  1.00  0.00     0.421 C 
HETATM   31  O2  UNL     1      22.020   1.081  50.082  1.00  0.00    -0.428 OA
ENDBRANCH  29  30
ENDBRANCH  27  29
ENDBRANCH  26  27
ENDBRANCH  11  26
TORSDOF 7
ENDMDL
MODEL 9
REMARK VINA RESULT:      -6.8      2.451      4.734
REMARK  7 active torsions:
REMARK  status: ('A' for Active; 'I' for Inactive)
REMARK    1  A    between atoms: O1_2  and  C2_3 
REMARK    2  A    between atoms: C6_7  and  N1_8 
REMARK    3  A    between atoms: N1_8  and  C7_9 
REMARK    4  A    between atoms: N4_19  and  C15_20 
REMARK    5  A    between atoms: C15_20  and  N5_21 
REMARK    6  A    between atoms: N5_21  and  C17_23 
REMARK    7  A    between atoms: C17_23  and  C18_24 
ROOT
HETATM    1  C7  UNL     1      24.382   4.584  49.780  1.00  0.00     0.142 A 
HETATM    2  N2  UNL     1      25.259   5.243  49.020  1.00  0.00    -0.224 NA
HETATM    3  C8  UNL     1      26.559   4.936  48.927  1.00  0.00     0.236 A 
HETATM    4  N3  UNL     1      27.102   3.906  49.613  1.00  0.00    -0.241 NA
HETATM    5  C9  UNL     1      26.212   3.224  50.394  1.00  0.00     0.075 A 
HETATM    6  C10 UNL     1      26.830   2.176  51.082  1.00  0.00     0.071 A 
HETATM    7  C11 UNL     1      26.062   1.396  51.917  1.00  0.00     0.098 A 
HETATM    8  C12 UNL     1      24.700   1.697  52.032  1.00  0.00     0.073 A 
HETATM    9  C13 UNL     1      24.121   2.740  51.340  1.00  0.00     0.050 A 
HETATM   10  C14 UNL     1      24.875   3.528  50.500  1.00  0.00     0.041 A 
HETATM   11  N4  UNL     1      23.841   0.933  52.897  1.00  0.00    -0.286 N 
HETATM   12  C19 UNL     1      24.536  -0.127  53.591  1.00  0.00     0.250 C 
HETATM   13  O3  UNL     1      24.006  -0.823  54.518  1.00  0.00    -0.271 OA
HETATM   14  C20 UNL     1      25.920  -0.580  53.371  1.00  0.00     0.279 C 
HETATM   15  O4  UNL     1      26.672   0.346  52.607  1.00  0.00    -0.340 OA
ENDROOT
BRANCH   1  16
HETATM   16  N1  UNL     1      23.016   4.930  49.868  1.00  0.00    -0.340 N 
HETATM   17  H7  UNL     1      22.607   5.618  50.531  1.00  0.00     0.167 HD
BRANCH  16  18
HETATM   18  C6  UNL     1      21.980   4.390  49.062  1.00  0.00     0.036 A 
HETATM   19  C5  UNL     1      21.946   4.542  47.672  1.00  0.00     0.029 A 
HETATM   20  C4  UNL     1      20.969   4.020  46.865  1.00  0.00     0.005 A 
HETATM   21  C3  UNL     1      19.944   3.294  47.428  1.00  0.00     0.037 A 
HETATM   22  C2  UNL     1      19.906   3.097  48.803  1.00  0.00     0.070 A 
HETATM   23  C21 UNL     1      20.917   3.654  49.526  1.00  0.00     0.066 A 
BRANCH  22  24
HETATM   24  O1  UNL     1      18.866   2.367  49.335  1.00  0.00    -0.356 OA
HETATM   25  C1  UNL     1      17.770   2.939  50.009  1.00  0.00     0.210 C 
ENDBRANCH  22  24
ENDBRANCH  16  18
ENDBRANCH   1  16
BRANCH  11  26
HETATM   26  C15 UNL     1      22.457   1.122  53.115  1.00  0.00     0.405 C 
BRANCH  26  27
HETATM   27  N5  UNL     1      21.670   0.112  52.482  1.00  0.00     0.104 N 
HETATM   28  C16 UNL     1      21.417   0.299  51.076  1.00  0.00     0.312 C 
BRANCH  27  29
HETATM   29  C17 UNL     1      20.490  -0.320  53.132  1.00  0.00     0.310 C 
BRANCH  29  30
HETATM   30  C18 UNL     1      20.838  -1.472  54.011  1.00  0.00     0.421 C 
HETATM   31  O2  UNL     1      21.167  -1.991  55.069  1.00  0.00    -0.428 OA
ENDBRANCH  29  30
ENDBRANCH  27  29
ENDBRANCH  26  27
ENDBRANCH  11  26
TORSDOF 7
ENDMDL
