MODEL 1
REMARK VINA RESULT:      -8.6      0.000      0.000
REMARK  3 active torsions:
REMARK  status: ('A' for Active; 'I' for Inactive)
REMARK    1  A    between atoms: O1_2  and  P1_3 
REMARK    2  A    between atoms: C8_11  and  N2_12 
REMARK    3  A    between atoms: N2_12  and  C9_13 
ROOT
HETATM    1  P1  UNL     1      27.193   8.091  47.755  1.00  0.00     0.095 P 
HETATM    2  C2  UNL     1      28.552   7.296  47.445  1.00  0.00     0.013 C 
HETATM    3  C3  UNL     1      28.876   6.148  47.950  1.00  0.00     0.016 C 
HETATM    4  C4  UNL     1      28.052   5.072  48.520  1.00  0.00     0.012 C 
HETATM    5  C5  UNL     1      26.812   5.212  49.003  1.00  0.00    -0.006 C 
HETATM    6  C6  UNL     1      26.666   3.797  49.362  1.00  0.00     0.161 C 
HETATM    7  N1  UNL     1      25.332   3.416  49.771  1.00  0.00    -0.379 N 
HETATM    8  C7  UNL     1      24.330   4.100  50.536  1.00  0.00     0.129 A 
HETATM    9  C8  UNL     1      23.384   3.301  51.151  1.00  0.00     0.160 A 
HETATM   10  N3  UNL     1      22.405   3.832  51.899  1.00  0.00    -0.222 NA
HETATM   11  C15 UNL     1      22.332   5.170  52.061  1.00  0.00     0.238 A 
HETATM   12  N4  UNL     1      23.235   6.020  51.482  1.00  0.00    -0.215 NA
HETATM   13  C16 UNL     1      24.231   5.483  50.720  1.00  0.00     0.202 A 
HETATM   14  O2  UNL     1      25.043   6.487  50.218  1.00  0.00    -0.288 OA
HETATM   15  C17 UNL     1      25.923   6.361  49.125  1.00  0.00     0.100 C 
HETATM   16  C18 UNL     1      25.868   7.344  48.254  1.00  0.00     0.050 C 
HETATM   17  H8  UNL     1      24.966   2.476  49.489  1.00  0.00     0.160 HD
ENDROOT
BRANCH   9  18
HETATM   18  N2  UNL     1      23.568   1.905  50.876  1.00  0.00    -0.339 N 
HETATM   19  H9  UNL     1      23.499   1.557  49.897  1.00  0.00     0.167 HD
BRANCH  18  20
HETATM   20  C9  UNL     1      23.842   1.019  51.965  1.00  0.00     0.035 A 
HETATM   21  C10 UNL     1      25.124   0.753  52.448  1.00  0.00     0.029 A 
HETATM   22  C11 UNL     1      25.349  -0.098  53.519  1.00  0.00     0.004 A 
HETATM   23  C12 UNL     1      24.262  -0.705  54.130  1.00  0.00     0.019 A 
HETATM   24  C13 UNL     1      22.976  -0.461  53.676  1.00  0.00     0.013 A 
HETATM   25 BR1  UNL     1      21.486  -1.312  54.547  1.00  0.00    -0.051 Br
HETATM   26  C14 UNL     1      22.778   0.392  52.605  1.00  0.00     0.048 A 
ENDBRANCH  18  20
ENDBRANCH   9  18
BRANCH   1  27
HETATM   27  O1  UNL     1      27.429   9.640  48.431  1.00  0.00    -0.359 OA
HETATM   28  C1  UNL     1      28.034   9.437  49.684  1.00  0.00     0.208 C 
ENDBRANCH   1  27
TORSDOF 3
ENDMDL
MODEL 2
REMARK VINA RESULT:      -8.5      1.229      1.543
REMARK  3 active torsions:
REMARK  status: ('A' for Active; 'I' for Inactive)
REMARK    1  A    between atoms: O1_2  and  P1_3 
REMARK    2  A    between atoms: C8_11  and  N2_12 
REMARK    3  A    between atoms: N2_12  and  C9_13 
ROOT
HETATM    1  P1  UNL     1      27.215   7.978  47.707  1.00  0.00     0.095 P 
HETATM    2  C2  UNL     1      28.575   7.172  47.433  1.00  0.00     0.013 C 
HETATM    3  C3  UNL     1      28.888   6.034  47.965  1.00  0.00     0.016 C 
HETATM    4  C4  UNL     1      28.051   4.973  48.545  1.00  0.00     0.012 C 
HETATM    5  C5  UNL     1      26.805   5.127  49.007  1.00  0.00    -0.006 C 
HETATM    6  C6  UNL     1      26.648   3.720  49.393  1.00  0.00     0.161 C 
HETATM    7  N1  UNL     1      25.307   3.352  49.791  1.00  0.00    -0.379 N 
HETATM    8  C7  UNL     1      24.298   4.056  50.527  1.00  0.00     0.129 A 
HETATM    9  C8  UNL     1      23.340   3.273  51.145  1.00  0.00     0.160 A 
HETATM   10  N3  UNL     1      22.353   3.822  51.869  1.00  0.00    -0.222 NA
HETATM   11  C15 UNL     1      22.283   5.164  52.003  1.00  0.00     0.238 A 
HETATM   12  N4  UNL     1      23.197   5.998  51.419  1.00  0.00    -0.215 NA
HETATM   13  C16 UNL     1      24.202   5.442  50.682  1.00  0.00     0.202 A 
HETATM   14  O2  UNL     1      25.025   6.433  50.171  1.00  0.00    -0.288 OA
HETATM   15  C17 UNL     1      25.919   6.282  49.094  1.00  0.00     0.100 C 
HETATM   16  C18 UNL     1      25.880   7.247  48.203  1.00  0.00     0.050 C 
HETATM   17  H8  UNL     1      24.941   2.408  49.523  1.00  0.00     0.160 HD
ENDROOT
BRANCH   9  18
HETATM   18  N2  UNL     1      23.522   1.870  50.901  1.00  0.00    -0.339 N 
HETATM   19  H9  UNL     1      23.387   1.491  49.941  1.00  0.00     0.167 HD
BRANCH  18  20
HETATM   20  C9  UNL     1      23.885   1.023  51.995  1.00  0.00     0.035 A 
HETATM   21  C10 UNL     1      22.963   0.334  52.785  1.00  0.00     0.029 A 
HETATM   22  C11 UNL     1      23.353  -0.493  53.826  1.00  0.00     0.004 A 
HETATM   23  C12 UNL     1      24.707  -0.641  54.090  1.00  0.00     0.019 A 
HETATM   24  C13 UNL     1      25.648   0.028  53.324  1.00  0.00     0.013 A 
HETATM   25 BR1  UNL     1      27.519  -0.201  53.709  1.00  0.00    -0.051 Br
HETATM   26  C14 UNL     1      25.232   0.849  52.291  1.00  0.00     0.048 A 
ENDBRANCH  18  20
ENDBRANCH   9  18
BRANCH   1  27
HETATM   27  O1  UNL     1      27.447   9.540  48.355  1.00  0.00    -0.359 OA
HETATM   28  C1  UNL     1      27.646   9.370  49.737  1.00  0.00     0.208 C 
ENDBRANCH   1  27
TORSDOF 3
ENDMDL
MODEL 3
REMARK VINA RESULT:      -8.2      4.410      8.314
REMARK  3 active torsions:
REMARK  status: ('A' for Active; 'I' for Inactive)
REMARK    1  A    between atoms: O1_2  and  P1_3 
REMARK    2  A    between atoms: C8_11  and  N2_12 
REMARK    3  A    between atoms: N2_12  and  C9_13 
ROOT
HETATM    1  P1  UNL     1      23.509  -0.078  53.468  1.00  0.00     0.095 P 
HETATM    2  C2  UNL     1      24.895  -0.829  53.765  1.00  0.00     0.013 C 
HETATM    3  C3  UNL     1      26.015  -0.597  53.158  1.00  0.00     0.016 C 
HETATM    4  C4  UNL     1      26.494   0.588  52.431  1.00  0.00     0.012 C 
HETATM    5  C5  UNL     1      25.722   1.542  51.898  1.00  0.00    -0.006 C 
HETATM    6  C6  UNL     1      26.848   2.328  51.380  1.00  0.00     0.161 C 
HETATM    7  N1  UNL     1      26.484   3.627  50.859  1.00  0.00    -0.379 N 
HETATM    8  C7  UNL     1      25.341   4.078  50.118  1.00  0.00     0.129 A 
HETATM    9  C8  UNL     1      25.518   5.226  49.368  1.00  0.00     0.160 A 
HETATM   10  N3  UNL     1      24.521   5.735  48.628  1.00  0.00    -0.222 NA
HETATM   11  C15 UNL     1      23.318   5.122  48.608  1.00  0.00     0.238 A 
HETATM   12  N4  UNL     1      23.074   3.983  49.324  1.00  0.00    -0.215 NA
HETATM   13  C16 UNL     1      24.085   3.464  50.079  1.00  0.00     0.202 A 
HETATM   14  O2  UNL     1      23.657   2.319  50.731  1.00  0.00    -0.288 OA
HETATM   15  C17 UNL     1      24.278   1.731  51.850  1.00  0.00     0.100 C 
HETATM   16  C18 UNL     1      23.458   1.384  52.818  1.00  0.00     0.050 C 
HETATM   17  H8  UNL     1      27.131   4.435  51.016  1.00  0.00     0.160 HD
ENDROOT
BRANCH   9  18
HETATM   18  N2  UNL     1      26.835   5.783  49.500  1.00  0.00    -0.339 N 
HETATM   19  H9  UNL     1      27.576   5.244  49.993  1.00  0.00     0.167 HD
BRANCH  18  20
HETATM   20  C9  UNL     1      27.093   7.077  48.948  1.00  0.00     0.035 A 
HETATM   21  C10 UNL     1      26.827   8.275  49.613  1.00  0.00     0.029 A 
HETATM   22  C11 UNL     1      27.109   9.510  49.052  1.00  0.00     0.004 A 
HETATM   23  C12 UNL     1      27.674   9.556  47.786  1.00  0.00     0.019 A 
HETATM   24  C13 UNL     1      27.951   8.386  47.099  1.00  0.00     0.013 A 
HETATM   25 BR1  UNL     1      28.740   8.479  45.347  1.00  0.00    -0.051 Br
HETATM   26  C14 UNL     1      27.660   7.164  47.680  1.00  0.00     0.048 A 
ENDBRANCH  18  20
ENDBRANCH   9  18
BRANCH   1  27
HETATM   27  O1  UNL     1      22.243  -1.113  52.978  1.00  0.00    -0.359 OA
HETATM   28  C1  UNL     1      21.678  -1.632  54.156  1.00  0.00     0.208 C 
ENDBRANCH   1  27
TORSDOF 3
ENDMDL
MODEL 4
REMARK VINA RESULT:      -8.0      5.397      7.307
REMARK  3 active torsions:
REMARK  status: ('A' for Active; 'I' for Inactive)
REMARK    1  A    between atoms: O1_2  and  P1_3 
REMARK    2  A    between atoms: C8_11  and  N2_12 
REMARK    3  A    between atoms: N2_12  and  C9_13 
ROOT
HETATM    1  P1  UNL     1      27.774   0.366  54.293  1.00  0.00     0.095 P 
HETATM    2  C2  UNL     1      28.272   1.477  53.248  1.00  0.00     0.013 C 
HETATM    3  C3  UNL     1      27.531   2.036  52.345  1.00  0.00     0.016 C 
HETATM    4  C4  UNL     1      26.074   2.211  52.259  1.00  0.00     0.012 C 
HETATM    5  C5  UNL     1      25.161   1.479  52.907  1.00  0.00    -0.006 C 
HETATM    6  C6  UNL     1      24.013   2.204  52.350  1.00  0.00     0.161 C 
HETATM    7  N1  UNL     1      22.741   1.865  52.950  1.00  0.00    -0.379 N 
HETATM    8  C7  UNL     1      22.204   0.622  53.423  1.00  0.00     0.129 A 
HETATM    9  C8  UNL     1      20.825   0.540  53.483  1.00  0.00     0.160 A 
HETATM   10  N3  UNL     1      20.211  -0.578  53.901  1.00  0.00    -0.222 NA
HETATM   11  C15 UNL     1      20.945  -1.649  54.273  1.00  0.00     0.238 A 
HETATM   12  N4  UNL     1      22.312  -1.637  54.238  1.00  0.00    -0.215 NA
HETATM   13  C16 UNL     1      22.939  -0.502  53.814  1.00  0.00     0.202 A 
HETATM   14  O2  UNL     1      24.313  -0.673  53.845  1.00  0.00    -0.288 OA
HETATM   15  C17 UNL     1      25.270   0.360  53.836  1.00  0.00     0.100 C 
HETATM   16  C18 UNL     1      26.237   0.227  54.717  1.00  0.00     0.050 C 
HETATM   17  H8  UNL     1      22.032   2.622  53.095  1.00  0.00     0.160 HD
ENDROOT
BRANCH   9  18
HETATM   18  N2  UNL     1      20.174   1.755  53.082  1.00  0.00    -0.339 N 
HETATM   19  H9  UNL     1      20.263   2.608  53.672  1.00  0.00     0.167 HD
BRANCH  18  20
HETATM   20  C9  UNL     1      19.413   1.760  51.871  1.00  0.00     0.035 A 
HETATM   21  C10 UNL     1      18.874   0.613  51.286  1.00  0.00     0.029 A 
HETATM   22  C11 UNL     1      18.125   0.660  50.121  1.00  0.00     0.004 A 
HETATM   23  C12 UNL     1      17.904   1.889  49.517  1.00  0.00     0.019 A 
HETATM   24  C13 UNL     1      18.424   3.047  50.073  1.00  0.00     0.013 A 
HETATM   25 BR1  UNL     1      18.097   4.739  49.218  1.00  0.00    -0.051 Br
HETATM   26  C14 UNL     1      19.169   2.974  51.237  1.00  0.00     0.048 A 
ENDBRANCH  18  20
ENDBRANCH   9  18
BRANCH   1  27
HETATM   27  O1  UNL     1      28.615  -1.116  54.193  1.00  0.00    -0.359 OA
HETATM   28  C1  UNL     1      29.824  -0.840  53.527  1.00  0.00     0.208 C 
ENDBRANCH   1  27
TORSDOF 3
ENDMDL
MODEL 5
REMARK VINA RESULT:      -7.8      4.862      6.816
REMARK  3 active torsions:
REMARK  status: ('A' for Active; 'I' for Inactive)
REMARK    1  A    between atoms: O1_2  and  P1_3 
REMARK    2  A    between atoms: C8_11  and  N2_12 
REMARK    3  A    between atoms: N2_12  and  C9_13 
ROOT
HETATM    1  P1  UNL     1      26.960   1.209  52.269  1.00  0.00     0.095 P 
HETATM    2  C2  UNL     1      27.323  -0.032  53.218  1.00  0.00     0.013 C 
HETATM    3  C3  UNL     1      26.492  -0.638  54.005  1.00  0.00     0.016 C 
HETATM    4  C4  UNL     1      25.025  -0.735  53.974  1.00  0.00     0.012 C 
HETATM    5  C5  UNL     1      24.200   0.113  53.349  1.00  0.00    -0.006 C 
HETATM    6  C6  UNL     1      22.979  -0.597  53.746  1.00  0.00     0.161 C 
HETATM    7  N1  UNL     1      21.773  -0.124  53.103  1.00  0.00    -0.379 N 
HETATM    8  C7  UNL     1      21.336   1.191  52.733  1.00  0.00     0.129 A 
HETATM    9  C8  UNL     1      19.971   1.360  52.589  1.00  0.00     0.160 A 
HETATM   10  N3  UNL     1      19.448   2.549  52.254  1.00  0.00    -0.222 NA
HETATM   11  C15 UNL     1      20.260   3.608  52.050  1.00  0.00     0.238 A 
HETATM   12  N4  UNL     1      21.619   3.513  52.175  1.00  0.00    -0.215 NA
HETATM   13  C16 UNL     1      22.154   2.305  52.515  1.00  0.00     0.202 A 
HETATM   14  O2  UNL     1      23.534   2.397  52.595  1.00  0.00    -0.288 OA
HETATM   15  C17 UNL     1      24.433   1.314  52.556  1.00  0.00     0.100 C 
HETATM   16  C18 UNL     1      25.467   1.481  51.761  1.00  0.00     0.050 C 
HETATM   17  H8  UNL     1      21.038  -0.819  52.830  1.00  0.00     0.160 HD
ENDROOT
BRANCH   9  18
HETATM   18  N2  UNL     1      19.231   0.150  52.812  1.00  0.00    -0.339 N 
HETATM   19  H9  UNL     1      19.498  -0.482  53.595  1.00  0.00     0.167 HD
BRANCH  18  20
HETATM   20  C9  UNL     1      18.138  -0.159  51.943  1.00  0.00     0.035 A 
HETATM   21  C10 UNL     1      18.082   0.216  50.600  1.00  0.00     0.029 A 
HETATM   22  C11 UNL     1      17.013  -0.117  49.783  1.00  0.00     0.004 A 
HETATM   23  C12 UNL     1      15.964  -0.848  50.321  1.00  0.00     0.019 A 
HETATM   24  C13 UNL     1      15.989  -1.237  51.651  1.00  0.00     0.013 A 
HETATM   25 BR1  UNL     1      14.522  -2.254  52.368  1.00  0.00    -0.051 Br
HETATM   26  C14 UNL     1      17.067  -0.891  52.445  1.00  0.00     0.048 A 
ENDBRANCH  18  20
ENDBRANCH   9  18
BRANCH   1  27
HETATM   27  O1  UNL     1      27.867   2.620  52.585  1.00  0.00    -0.359 OA
HETATM   28  C1  UNL     1      28.752   2.295  53.629  1.00  0.00     0.208 C 
ENDBRANCH   1  27
TORSDOF 3
ENDMDL
MODEL 6
REMARK VINA RESULT:      -7.6      5.724      8.761
REMARK  3 active torsions:
REMARK  status: ('A' for Active; 'I' for Inactive)
REMARK    1  A    between atoms: O1_2  and  P1_3 
REMARK    2  A    between atoms: C8_11  and  N2_12 
REMARK    3  A    between atoms: N2_12  and  C9_13 
ROOT
HETATM    1  P1  UNL     1      16.303   0.627  51.569  1.00  0.00     0.095 P 
HETATM    2  C2  UNL     1      16.004  -0.619  52.535  1.00  0.00     0.013 C 
HETATM    3  C3  UNL     1      16.903  -1.395  53.051  1.00  0.00     0.016 C 
HETATM    4  C4  UNL     1      18.334  -1.180  53.313  1.00  0.00     0.012 C 
HETATM    5  C5  UNL     1      19.109  -0.271  52.711  1.00  0.00    -0.006 C 
HETATM    6  C6  UNL     1      20.320  -0.641  53.453  1.00  0.00     0.161 C 
HETATM    7  N1  UNL     1      21.439   0.255  53.260  1.00  0.00    -0.379 N 
HETATM    8  C7  UNL     1      21.910   0.969  52.109  1.00  0.00     0.129 A 
HETATM    9  C8  UNL     1      23.243   1.337  52.126  1.00  0.00     0.160 A 
HETATM   10  N3  UNL     1      23.795   2.000  51.098  1.00  0.00    -0.222 NA
HETATM   11  C15 UNL     1      23.044   2.320  50.022  1.00  0.00     0.238 A 
HETATM   12  N4  UNL     1      21.720   1.986  49.939  1.00  0.00    -0.215 NA
HETATM   13  C16 UNL     1      21.156   1.312  50.982  1.00  0.00     0.202 A 
HETATM   14  O2  UNL     1      19.818   1.062  50.723  1.00  0.00    -0.288 OA
HETATM   15  C17 UNL     1      18.844   0.730  51.685  1.00  0.00     0.100 C 
HETATM   16  C18 UNL     1      17.711   1.388  51.576  1.00  0.00     0.050 C 
HETATM   17  H8  UNL     1      22.064   0.466  54.074  1.00  0.00     0.160 HD
ENDROOT
BRANCH   9  18
HETATM   18  N2  UNL     1      23.913   0.955  53.336  1.00  0.00    -0.339 N 
HETATM   19  H9  UNL     1      23.411   1.012  54.245  1.00  0.00     0.167 HD
BRANCH  18  20
HETATM   20  C9  UNL     1      25.268   0.504  53.258  1.00  0.00     0.035 A 
HETATM   21  C10 UNL     1      25.637  -0.790  52.886  1.00  0.00     0.029 A 
HETATM   22  C11 UNL     1      26.963  -1.187  52.805  1.00  0.00     0.004 A 
HETATM   23  C12 UNL     1      27.955  -0.265  53.104  1.00  0.00     0.019 A 
HETATM   24  C13 UNL     1      27.623   1.028  53.476  1.00  0.00     0.013 A 
HETATM   25 BR1  UNL     1      29.021   2.287  53.879  1.00  0.00    -0.051 Br
HETATM   26  C14 UNL     1      26.292   1.399  53.550  1.00  0.00     0.048 A 
ENDBRANCH  18  20
ENDBRANCH   9  18
BRANCH   1  27
HETATM   27  O1  UNL     1      15.570   0.510  50.031  1.00  0.00    -0.359 OA
HETATM   28  C1  UNL     1      16.081  -0.658  49.438  1.00  0.00     0.208 C 
ENDBRANCH   1  27
TORSDOF 3
ENDMDL
MODEL 7
REMARK VINA RESULT:      -7.6      4.604      7.707
REMARK  3 active torsions:
REMARK  status: ('A' for Active; 'I' for Inactive)
REMARK    1  A    between atoms: O1_2  and  P1_3 
REMARK    2  A    between atoms: C8_11  and  N2_12 
REMARK    3  A    between atoms: N2_12  and  C9_13 
ROOT
HETATM    1  P1  UNL     1      26.893  -0.930  53.058  1.00  0.00     0.095 P 
HETATM    2  C2  UNL     1      25.664  -1.233  54.044  1.00  0.00     0.013 C 
HETATM    3  C3  UNL     1      24.640  -0.460  54.218  1.00  0.00     0.016 C 
HETATM    4  C4  UNL     1      24.054   0.581  53.361  1.00  0.00     0.012 C 
HETATM    5  C5  UNL     1      24.689   1.232  52.379  1.00  0.00    -0.006 C 
HETATM    6  C6  UNL     1      23.529   2.052  52.012  1.00  0.00     0.161 C 
HETATM    7  N1  UNL     1      23.697   2.821  50.799  1.00  0.00    -0.379 N 
HETATM    8  C7  UNL     1      24.829   3.508  50.248  1.00  0.00     0.129 A 
HETATM    9  C8  UNL     1      24.546   4.526  49.355  1.00  0.00     0.160 A 
HETATM   10  N3  UNL     1      25.526   5.243  48.784  1.00  0.00    -0.222 NA
HETATM   11  C15 UNL     1      26.816   4.974  49.079  1.00  0.00     0.238 A 
HETATM   12  N4  UNL     1      27.168   3.983  49.953  1.00  0.00    -0.215 NA
HETATM   13  C16 UNL     1      26.173   3.251  50.535  1.00  0.00     0.202 A 
HETATM   14  O2  UNL     1      26.714   2.298  51.383  1.00  0.00    -0.288 OA
HETATM   15  C17 UNL     1      26.049   1.152  51.860  1.00  0.00     0.100 C 
HETATM   16  C18 UNL     1      26.747   0.040  51.793  1.00  0.00     0.050 C 
HETATM   17  H8  UNL     1      22.878   2.939  50.156  1.00  0.00     0.160 HD
ENDROOT
BRANCH   9  18
HETATM   18  N2  UNL     1      23.140   4.687  49.118  1.00  0.00    -0.339 N 
HETATM   19  H9  UNL     1      22.489   4.791  49.923  1.00  0.00     0.167 HD
BRANCH  18  20
HETATM   20  C9  UNL     1      22.667   4.698  47.768  1.00  0.00     0.035 A 
HETATM   21  C10 UNL     1      22.268   3.555  47.073  1.00  0.00     0.029 A 
HETATM   22  C11 UNL     1      21.797   3.608  45.771  1.00  0.00     0.004 A 
HETATM   23  C12 UNL     1      21.720   4.840  45.138  1.00  0.00     0.019 A 
HETATM   24  C13 UNL     1      22.108   5.994  45.799  1.00  0.00     0.013 A 
HETATM   25 BR1  UNL     1      21.985   7.689  44.898  1.00  0.00    -0.051 Br
HETATM   26  C14 UNL     1      22.575   5.914  47.099  1.00  0.00     0.048 A 
ENDBRANCH  18  20
ENDBRANCH   9  18
BRANCH   1  27
HETATM   27  O1  UNL     1      28.410  -0.854  53.835  1.00  0.00    -0.359 OA
HETATM   28  C1  UNL     1      28.345   0.233  54.725  1.00  0.00     0.208 C 
ENDBRANCH   1  27
TORSDOF 3
ENDMDL
MODEL 8
REMARK VINA RESULT:      -7.4      4.556      6.940
REMARK  3 active torsions:
REMARK  status: ('A' for Active; 'I' for Inactive)
REMARK    1  A    between atoms: O1_2  and  P1_3 
REMARK    2  A    between atoms: C8_11  and  N2_12 
REMARK    3  A    between atoms: N2_12  and  C9_13 
ROOT
HETATM    1  P1  UNL     1      27.077   1.282  53.232  1.00  0.00     0.095 P 
HETATM    2  C2  UNL     1      26.717  -0.144  53.873  1.00  0.00     0.013 C 
HETATM    3  C3  UNL     1      25.521  -0.563  54.136  1.00  0.00     0.016 C 
HETATM    4  C4  UNL     1      24.214  -0.171  53.587  1.00  0.00     0.012 C 
HETATM    5  C5  UNL     1      23.941   0.987  52.975  1.00  0.00    -0.006 C 
HETATM    6  C6  UNL     1      22.532   0.659  52.728  1.00  0.00     0.161 C 
HETATM    7  N1  UNL     1      21.839   1.595  51.870  1.00  0.00    -0.379 N 
HETATM    8  C7  UNL     1      21.917   3.022  51.746  1.00  0.00     0.129 A 
HETATM    9  C8  UNL     1      20.810   3.646  51.202  1.00  0.00     0.160 A 
HETATM   10  N3  UNL     1      20.768   4.978  51.047  1.00  0.00    -0.222 NA
HETATM   11  C15 UNL     1      21.821   5.733  51.425  1.00  0.00     0.238 A 
HETATM   12  N4  UNL     1      22.948   5.182  51.971  1.00  0.00    -0.215 NA
HETATM   13  C16 UNL     1      22.994   3.828  52.129  1.00  0.00     0.202 A 
HETATM   14  O2  UNL     1      24.204   3.453  52.692  1.00  0.00    -0.288 OA
HETATM   15  C17 UNL     1      24.754   2.157  52.666  1.00  0.00     0.100 C 
HETATM   16  C18 UNL     1      26.027   2.102  52.344  1.00  0.00     0.050 C 
HETATM   17  H8  UNL     1      21.134   1.229  51.187  1.00  0.00     0.160 HD
ENDROOT
BRANCH   9  18
HETATM   18  N2  UNL     1      19.777   2.723  50.825  1.00  0.00    -0.339 N 
HETATM   19  H9  UNL     1      19.996   1.709  50.740  1.00  0.00     0.167 HD
BRANCH  18  20
HETATM   20  C9  UNL     1      18.463   3.227  50.572  1.00  0.00     0.035 A 
HETATM   21  C10 UNL     1      17.999   3.591  49.307  1.00  0.00     0.029 A 
HETATM   22  C11 UNL     1      16.712   4.059  49.097  1.00  0.00     0.004 A 
HETATM   23  C12 UNL     1      15.856   4.168  50.183  1.00  0.00     0.019 A 
HETATM   24  C13 UNL     1      16.284   3.814  51.453  1.00  0.00     0.013 A 
HETATM   25 BR1  UNL     1      15.074   3.971  52.940  1.00  0.00    -0.051 Br
HETATM   26  C14 UNL     1      17.575   3.351  51.635  1.00  0.00     0.048 A 
ENDBRANCH  18  20
ENDBRANCH   9  18
BRANCH   1  27
HETATM   27  O1  UNL     1      28.088   2.252  54.207  1.00  0.00    -0.359 OA
HETATM   28  C1  UNL     1      29.230   1.479  54.483  1.00  0.00     0.208 C 
ENDBRANCH   1  27
TORSDOF 3
ENDMDL
MODEL 9
REMARK VINA RESULT:      -7.4      4.842      7.792
REMARK  3 active torsions:
REMARK  status: ('A' for Active; 'I' for Inactive)
REMARK    1  A    between atoms: O1_2  and  P1_3 
REMARK    2  A    between atoms: C8_11  and  N2_12 
REMARK    3  A    between atoms: N2_12  and  C9_13 
ROOT
HETATM    1  P1  UNL     1      17.634   1.708  51.129  1.00  0.00     0.095 P 
HETATM    2  C2  UNL     1      17.180   0.393  51.930  1.00  0.00     0.013 C 
HETATM    3  C3  UNL     1      17.983  -0.506  52.403  1.00  0.00     0.016 C 
HETATM    4  C4  UNL     1      19.406  -0.438  52.767  1.00  0.00     0.012 C 
HETATM    5  C5  UNL     1      20.285   0.464  52.317  1.00  0.00    -0.006 C 
HETATM    6  C6  UNL     1      21.414  -0.082  53.078  1.00  0.00     0.161 C 
HETATM    7  N1  UNL     1      22.608   0.735  53.051  1.00  0.00    -0.379 N 
HETATM    8  C7  UNL     1      23.204   1.529  52.016  1.00  0.00     0.129 A 
HETATM    9  C8  UNL     1      24.557   1.783  52.149  1.00  0.00     0.160 A 
HETATM   10  N3  UNL     1      25.222   2.507  51.236  1.00  0.00    -0.222 NA
HETATM   11  C15 UNL     1      24.568   3.002  50.164  1.00  0.00     0.238 A 
HETATM   12  N4  UNL     1      23.231   2.789  49.969  1.00  0.00    -0.215 NA
HETATM   13  C16 UNL     1      22.552   2.054  50.896  1.00  0.00     0.202 A 
HETATM   14  O2  UNL     1      21.218   1.944  50.536  1.00  0.00    -0.288 OA
HETATM   15  C17 UNL     1      20.162   1.590  51.398  1.00  0.00     0.100 C 
HETATM   16  C18 UNL     1      19.091   2.346  51.301  1.00  0.00     0.050 C 
HETATM   17  H8  UNL     1      23.193   0.804  53.918  1.00  0.00     0.160 HD
ENDROOT
BRANCH   9  18
HETATM   18  N2  UNL     1      25.117   1.218  53.344  1.00  0.00    -0.339 N 
HETATM   19  H9  UNL     1      24.489   0.916  54.117  1.00  0.00     0.167 HD
BRANCH  18  20
HETATM   20  C9  UNL     1      26.538   1.085  53.441  1.00  0.00     0.035 A 
HETATM   21  C10 UNL     1      27.405   2.151  53.689  1.00  0.00     0.029 A 
HETATM   22  C11 UNL     1      28.776   1.980  53.795  1.00  0.00     0.004 A 
HETATM   23  C12 UNL     1      29.303   0.705  53.649  1.00  0.00     0.019 A 
HETATM   24  C13 UNL     1      28.471  -0.374  53.402  1.00  0.00     0.013 A 
HETATM   25 BR1  UNL     1      29.230  -2.132  53.210  1.00  0.00    -0.051 Br
HETATM   26  C14 UNL     1      27.105  -0.177  53.301  1.00  0.00     0.048 A 
ENDBRANCH  18  20
ENDBRANCH   9  18
BRANCH   1  27
HETATM   27  O1  UNL     1      16.995   1.820  49.550  1.00  0.00    -0.359 OA
HETATM   28  C1  UNL     1      16.337   3.061  49.477  1.00  0.00     0.208 C 
ENDBRANCH   1  27
TORSDOF 3
ENDMDL
