MODEL 1
REMARK VINA RESULT:      -7.1      0.000      0.000
REMARK  5 active torsions:
REMARK  status: ('A' for Active; 'I' for Inactive)
REMARK    1  A    between atoms: C2_2  and  C6_7 
REMARK    2  A    between atoms: C3_3  and  C4_4 
REMARK    3  A    between atoms: C6_7  and  C7_8 
REMARK       I    between atoms: C7_8  and  N1_10 
REMARK    4  A    between atoms: N1_10  and  S1_11 
REMARK    5  A    between atoms: S1_11  and  C8_14 
ROOT
HETATM    1  C7  UNL     1      24.484   2.716  52.276  1.00  0.00     0.235 C 
HETATM    2  O1  UNL     1      23.349   2.991  51.758  1.00  0.00    -0.272 OA
HETATM    3  N1  UNL     1      25.465   3.376  51.466  1.00  0.00    -0.250 N 
HETATM    4  H9  UNL     1      26.514   3.333  51.646  1.00  0.00     0.181 HD
ENDROOT
BRANCH   3   5
HETATM    5  S1  UNL     1      24.778   4.262  50.147  1.00  0.00     0.265 S 
HETATM    6  O2  UNL     1      24.171   3.315  49.155  1.00  0.00    -0.200 OA
HETATM    7  O3  UNL     1      23.776   5.279  50.581  1.00  0.00    -0.200 OA
BRANCH   5   8
HETATM    8  C8  UNL     1      26.083   5.127  49.372  1.00  0.00     0.080 A 
HETATM    9  C9  UNL     1      26.034   6.470  49.089  1.00  0.00     0.027 A 
HETATM   10  C10 UNL     1      27.068   7.150  48.477  1.00  0.00     0.020 A 
HETATM   11  C11 UNL     1      28.188   6.401  48.150  1.00  0.00     0.011 A 
HETATM   12 BR2  UNL     1      29.677   7.226  47.303  1.00  0.00    -0.051 Br
HETATM   13  C12 UNL     1      28.302   5.049  48.407  1.00  0.00     0.020 A 
HETATM   14  C13 UNL     1      27.226   4.433  49.022  1.00  0.00     0.027 A 
ENDBRANCH   5   8
ENDBRANCH   3   5
BRANCH   1  15
HETATM   15  C6  UNL     1      25.000   1.927  53.440  1.00  0.00     0.137 C 
BRANCH  15  16
HETATM   16  C2  UNL     1      24.766   0.498  53.111  1.00  0.00    -0.075 C 
HETATM   17  C1  UNL     1      23.341   0.126  53.021  1.00  0.00     0.044 C 
HETATM   18  C3  UNL     1      25.723  -0.394  52.910  1.00  0.00     0.003 C 
BRANCH  18  19
HETATM   19  C4  UNL     1      27.163  -0.357  52.923  1.00  0.00     0.007 C 
HETATM   20  C5  UNL     1      28.042  -0.330  53.893  1.00  0.00     0.056 C 
HETATM   21 BR1  UNL     1      29.886  -0.284  53.489  1.00  0.00    -0.064 Br
ENDBRANCH  18  19
ENDBRANCH  15  16
ENDBRANCH   1  15
TORSDOF 5
ENDMDL
MODEL 2
REMARK VINA RESULT:      -7.0      2.170      2.962
REMARK  5 active torsions:
REMARK  status: ('A' for Active; 'I' for Inactive)
REMARK    1  A    between atoms: C2_2  and  C6_7 
REMARK    2  A    between atoms: C3_3  and  C4_4 
REMARK    3  A    between atoms: C6_7  and  C7_8 
REMARK       I    between atoms: C7_8  and  N1_10 
REMARK    4  A    between atoms: N1_10  and  S1_11 
REMARK    5  A    between atoms: S1_11  and  C8_14 
ROOT
HETATM    1  C7  UNL     1      25.073   2.491  52.336  1.00  0.00     0.235 C 
HETATM    2  O1  UNL     1      23.889   2.655  51.885  1.00  0.00    -0.272 OA
HETATM    3  N1  UNL     1      25.932   3.276  51.501  1.00  0.00    -0.250 N 
HETATM    4  H9  UNL     1      26.988   3.343  51.626  1.00  0.00     0.181 HD
ENDROOT
BRANCH   3   5
HETATM    5  S1  UNL     1      25.084   4.118  50.248  1.00  0.00     0.265 S 
HETATM    6  O2  UNL     1      24.450   3.135  49.310  1.00  0.00    -0.200 OA
HETATM    7  O3  UNL     1      24.067   5.077  50.770  1.00  0.00    -0.200 OA
BRANCH   5   8
HETATM    8  C8  UNL     1      26.266   5.055  49.366  1.00  0.00     0.080 A 
HETATM    9  C9  UNL     1      27.473   4.549  48.953  1.00  0.00     0.027 A 
HETATM   10  C10 UNL     1      28.405   5.292  48.255  1.00  0.00     0.020 A 
HETATM   11  C11 UNL     1      28.061   6.608  47.983  1.00  0.00     0.011 A 
HETATM   12 BR2  UNL     1      29.262   7.732  47.029  1.00  0.00    -0.051 Br
HETATM   13  C12 UNL     1      26.865   7.179  48.369  1.00  0.00     0.020 A 
HETATM   14  C13 UNL     1      25.979   6.374  49.065  1.00  0.00     0.027 A 
ENDBRANCH   5   8
ENDBRANCH   3   5
BRANCH   1  15
HETATM   15  C6  UNL     1      25.732   1.730  53.446  1.00  0.00     0.137 C 
BRANCH  15  16
HETATM   16  C2  UNL     1      25.724   0.304  53.035  1.00  0.00    -0.075 C 
HETATM   17  C1  UNL     1      26.968  -0.140  52.376  1.00  0.00     0.044 C 
HETATM   18  C3  UNL     1      24.712  -0.528  53.222  1.00  0.00     0.003 C 
BRANCH  18  19
HETATM   19  C4  UNL     1      23.403  -0.415  53.813  1.00  0.00     0.007 C 
HETATM   20  C5  UNL     1      22.236  -0.073  53.328  1.00  0.00     0.056 C 
HETATM   21 BR1  UNL     1      20.720  -0.047  54.453  1.00  0.00    -0.064 Br
ENDBRANCH  18  19
ENDBRANCH  15  16
ENDBRANCH   1  15
TORSDOF 5
ENDMDL
MODEL 3
REMARK VINA RESULT:      -6.9      5.169      8.108
REMARK  5 active torsions:
REMARK  status: ('A' for Active; 'I' for Inactive)
REMARK    1  A    between atoms: C2_2  and  C6_7 
REMARK    2  A    between atoms: C3_3  and  C4_4 
REMARK    3  A    between atoms: C6_7  and  C7_8 
REMARK       I    between atoms: C7_8  and  N1_10 
REMARK    4  A    between atoms: N1_10  and  S1_11 
REMARK    5  A    between atoms: S1_11  and  C8_14 
ROOT
HETATM    1  C7  UNL     1      23.592   0.237  53.149  1.00  0.00     0.235 C 
HETATM    2  O1  UNL     1      23.571  -0.391  54.261  1.00  0.00    -0.272 OA
HETATM    3  N1  UNL     1      22.238   0.267  52.680  1.00  0.00    -0.250 N 
HETATM    4  H9  UNL     1      21.932   0.726  51.768  1.00  0.00     0.181 HD
ENDROOT
BRANCH   3   5
HETATM    5  S1  UNL     1      21.127  -0.523  53.748  1.00  0.00     0.265 S 
HETATM    6  O2  UNL     1      21.571  -1.934  53.994  1.00  0.00    -0.200 OA
HETATM    7  O3  UNL     1      20.938   0.201  55.039  1.00  0.00    -0.200 OA
BRANCH   5   8
HETATM    8  C8  UNL     1      19.575  -0.554  52.946  1.00  0.00     0.080 A 
HETATM    9  C9  UNL     1      18.508  -1.289  53.398  1.00  0.00     0.027 A 
HETATM   10  C10 UNL     1      17.283  -1.310  52.761  1.00  0.00     0.020 A 
HETATM   11  C11 UNL     1      17.172  -0.537  51.615  1.00  0.00     0.011 A 
HETATM   12 BR2  UNL     1      15.534  -0.485  50.651  1.00  0.00    -0.051 Br
HETATM   13  C12 UNL     1      18.205   0.225  51.107  1.00  0.00     0.020 A 
HETATM   14  C13 UNL     1      19.405   0.198  51.798  1.00  0.00     0.027 A 
ENDBRANCH   5   8
ENDBRANCH   3   5
BRANCH   1  15
HETATM   15  C6  UNL     1      24.615   0.901  52.280  1.00  0.00     0.137 C 
BRANCH  15  16
HETATM   16  C2  UNL     1      25.188   2.010  53.084  1.00  0.00    -0.075 C 
HETATM   17  C1  UNL     1      24.334   3.212  53.146  1.00  0.00     0.044 C 
HETATM   18  C3  UNL     1      26.356   1.965  53.703  1.00  0.00     0.003 C 
BRANCH  18  19
HETATM   19  C4  UNL     1      27.396   0.977  53.837  1.00  0.00     0.007 C 
HETATM   20  C5  UNL     1      28.607   0.889  53.348  1.00  0.00     0.056 C 
HETATM   21 BR1  UNL     1      29.686  -0.602  53.768  1.00  0.00    -0.064 Br
ENDBRANCH  18  19
ENDBRANCH  15  16
ENDBRANCH   1  15
TORSDOF 5
ENDMDL
MODEL 4
REMARK VINA RESULT:      -6.8      4.135      5.817
REMARK  5 active torsions:
REMARK  status: ('A' for Active; 'I' for Inactive)
REMARK    1  A    between atoms: C2_2  and  C6_7 
REMARK    2  A    between atoms: C3_3  and  C4_4 
REMARK    3  A    between atoms: C6_7  and  C7_8 
REMARK       I    between atoms: C7_8  and  N1_10 
REMARK    4  A    between atoms: N1_10  and  S1_11 
REMARK    5  A    between atoms: S1_11  and  C8_14 
ROOT
HETATM    1  C7  UNL     1      22.523   1.934  50.541  1.00  0.00     0.235 C 
HETATM    2  O1  UNL     1      22.633   3.191  50.746  1.00  0.00    -0.272 OA
HETATM    3  N1  UNL     1      23.667   1.327  51.153  1.00  0.00    -0.250 N 
HETATM    4  H9  UNL     1      23.860   0.279  51.150  1.00  0.00     0.181 HD
ENDROOT
BRANCH   3   5
HETATM    5  S1  UNL     1      24.726   2.470  51.909  1.00  0.00     0.265 S 
HETATM    6  O2  UNL     1      25.136   3.519  50.919  1.00  0.00    -0.200 OA
HETATM    7  O3  UNL     1      24.136   3.099  53.127  1.00  0.00    -0.200 OA
BRANCH   5   8
HETATM    8  C8  UNL     1      26.148   1.594  52.423  1.00  0.00     0.080 A 
HETATM    9  C9  UNL     1      27.250   2.202  52.969  1.00  0.00     0.027 A 
HETATM   10  C10 UNL     1      28.373   1.506  53.374  1.00  0.00     0.020 A 
HETATM   11  C11 UNL     1      28.338   0.130  53.201  1.00  0.00     0.011 A 
HETATM   12 BR2  UNL     1      29.824  -0.937  53.720  1.00  0.00    -0.051 Br
HETATM   13  C12 UNL     1      27.262  -0.543  52.658  1.00  0.00     0.020 A 
HETATM   14  C13 UNL     1      26.172   0.219  52.274  1.00  0.00     0.027 A 
ENDBRANCH   5   8
ENDBRANCH   3   5
BRANCH   1  15
HETATM   15  C6  UNL     1      21.557   1.010  49.864  1.00  0.00     0.137 C 
BRANCH  15  16
HETATM   16  C2  UNL     1      20.246   1.220  50.528  1.00  0.00    -0.075 C 
HETATM   17  C1  UNL     1      19.300   2.040  49.747  1.00  0.00     0.044 C 
HETATM   18  C3  UNL     1      19.917   0.735  51.714  1.00  0.00     0.003 C 
BRANCH  18  19
HETATM   19  C4  UNL     1      20.586  -0.075  52.700  1.00  0.00     0.007 C 
HETATM   20  C5  UNL     1      21.385   0.216  53.696  1.00  0.00     0.056 C 
HETATM   21 BR1  UNL     1      22.072  -1.164  54.785  1.00  0.00    -0.064 Br
ENDBRANCH  18  19
ENDBRANCH  15  16
ENDBRANCH   1  15
TORSDOF 5
ENDMDL
MODEL 5
REMARK VINA RESULT:      -6.8      4.858      6.112
REMARK  5 active torsions:
REMARK  status: ('A' for Active; 'I' for Inactive)
REMARK    1  A    between atoms: C2_2  and  C6_7 
REMARK    2  A    between atoms: C3_3  and  C4_4 
REMARK    3  A    between atoms: C6_7  and  C7_8 
REMARK       I    between atoms: C7_8  and  N1_10 
REMARK    4  A    between atoms: N1_10  and  S1_11 
REMARK    5  A    between atoms: S1_11  and  C8_14 
ROOT
HETATM    1  C7  UNL     1      25.658   2.104  52.720  1.00  0.00     0.235 C 
HETATM    2  O1  UNL     1      25.566   1.860  51.470  1.00  0.00    -0.272 OA
HETATM    3  N1  UNL     1      24.689   3.121  53.003  1.00  0.00    -0.250 N 
HETATM    4  H9  UNL     1      24.527   3.539  53.969  1.00  0.00     0.181 HD
ENDROOT
BRANCH   3   5
HETATM    5  S1  UNL     1      23.793   3.618  51.607  1.00  0.00     0.265 S 
HETATM    6  O2  UNL     1      23.357   5.044  51.761  1.00  0.00    -0.200 OA
HETATM    7  O3  UNL     1      24.545   3.434  50.331  1.00  0.00    -0.200 OA
BRANCH   5   8
HETATM    8  C8  UNL     1      22.375   2.602  51.517  1.00  0.00     0.080 A 
HETATM    9  C9  UNL     1      22.296   1.487  50.720  1.00  0.00     0.027 A 
HETATM   10  C10 UNL     1      21.173   0.686  50.652  1.00  0.00     0.020 A 
HETATM   11  C11 UNL     1      20.098   1.066  51.442  1.00  0.00     0.011 A 
HETATM   12 BR2  UNL     1      18.496   0.043  51.433  1.00  0.00    -0.051 Br
HETATM   13  C12 UNL     1      20.112   2.175  52.264  1.00  0.00     0.020 A 
HETATM   14  C13 UNL     1      21.271   2.931  52.282  1.00  0.00     0.027 A 
ENDBRANCH   5   8
ENDBRANCH   3   5
BRANCH   1  15
HETATM   15  C6  UNL     1      26.476   1.620  53.878  1.00  0.00     0.137 C 
BRANCH  15  16
HETATM   16  C2  UNL     1      26.649   0.158  53.683  1.00  0.00    -0.075 C 
HETATM   17  C1  UNL     1      27.997  -0.233  53.230  1.00  0.00     0.044 C 
HETATM   18  C3  UNL     1      25.703  -0.745  53.885  1.00  0.00     0.003 C 
BRANCH  18  19
HETATM   19  C4  UNL     1      24.329  -0.696  54.313  1.00  0.00     0.007 C 
HETATM   20  C5  UNL     1      23.205  -0.496  53.672  1.00  0.00     0.056 C 
HETATM   21 BR1  UNL     1      21.569  -0.507  54.615  1.00  0.00    -0.064 Br
ENDBRANCH  18  19
ENDBRANCH  15  16
ENDBRANCH   1  15
TORSDOF 5
ENDMDL
MODEL 6
REMARK VINA RESULT:      -6.7      1.956      2.556
REMARK  5 active torsions:
REMARK  status: ('A' for Active; 'I' for Inactive)
REMARK    1  A    between atoms: C2_2  and  C6_7 
REMARK    2  A    between atoms: C3_3  and  C4_4 
REMARK    3  A    between atoms: C6_7  and  C7_8 
REMARK       I    between atoms: C7_8  and  N1_10 
REMARK    4  A    between atoms: N1_10  and  S1_11 
REMARK    5  A    between atoms: S1_11  and  C8_14 
ROOT
HETATM    1  C7  UNL     1      21.873   2.035  51.795  1.00  0.00     0.235 C 
HETATM    2  O1  UNL     1      21.323   3.069  52.304  1.00  0.00    -0.272 OA
HETATM    3  N1  UNL     1      22.971   2.512  51.007  1.00  0.00    -0.250 N 
HETATM    4  H9  UNL     1      23.627   1.881  50.453  1.00  0.00     0.181 HD
ENDROOT
BRANCH   3   5
HETATM    5  S1  UNL     1      23.135   4.235  51.036  1.00  0.00     0.265 S 
HETATM    6  O2  UNL     1      22.019   4.868  50.261  1.00  0.00    -0.200 OA
HETATM    7  O3  UNL     1      23.199   4.795  52.418  1.00  0.00    -0.200 OA
BRANCH   5   8
HETATM    8  C8  UNL     1      24.651   4.621  50.258  1.00  0.00     0.080 A 
HETATM    9  C9  UNL     1      24.989   5.889  49.855  1.00  0.00     0.027 A 
HETATM   10  C10 UNL     1      26.189   6.190  49.239  1.00  0.00     0.020 A 
HETATM   11  C11 UNL     1      27.061   5.130  49.040  1.00  0.00     0.011 A 
HETATM   12 BR2  UNL     1      28.743   5.420  48.203  1.00  0.00    -0.051 Br
HETATM   13  C12 UNL     1      26.782   3.833  49.421  1.00  0.00     0.020 A 
HETATM   14  C13 UNL     1      25.561   3.605  50.032  1.00  0.00     0.027 A 
ENDBRANCH   5   8
ENDBRANCH   3   5
BRANCH   1  15
HETATM   15  C6  UNL     1      21.664   0.551  51.821  1.00  0.00     0.137 C 
BRANCH  15  16
HETATM   16  C2  UNL     1      21.812   0.135  53.238  1.00  0.00    -0.075 C 
HETATM   17  C1  UNL     1      20.559   0.193  54.016  1.00  0.00     0.044 C 
HETATM   18  C3  UNL     1      22.947  -0.256  53.793  1.00  0.00     0.003 C 
BRANCH  18  19
HETATM   19  C4  UNL     1      24.301  -0.420  53.327  1.00  0.00     0.007 C 
HETATM   20  C5  UNL     1      25.167   0.412  52.804  1.00  0.00     0.056 C 
HETATM   21 BR1  UNL     1      26.881  -0.204  52.309  1.00  0.00    -0.064 Br
ENDBRANCH  18  19
ENDBRANCH  15  16
ENDBRANCH   1  15
TORSDOF 5
ENDMDL
MODEL 7
REMARK VINA RESULT:      -6.4      1.900      6.655
REMARK  5 active torsions:
REMARK  status: ('A' for Active; 'I' for Inactive)
REMARK    1  A    between atoms: C2_2  and  C6_7 
REMARK    2  A    between atoms: C3_3  and  C4_4 
REMARK    3  A    between atoms: C6_7  and  C7_8 
REMARK       I    between atoms: C7_8  and  N1_10 
REMARK    4  A    between atoms: N1_10  and  S1_11 
REMARK    5  A    between atoms: S1_11  and  C8_14 
ROOT
HETATM    1  C7  UNL     1      25.403   6.870  50.178  1.00  0.00     0.235 C 
HETATM    2  O1  UNL     1      24.182   7.050  50.511  1.00  0.00    -0.272 OA
HETATM    3  N1  UNL     1      25.668   5.475  50.366  1.00  0.00    -0.250 N 
HETATM    4  H9  UNL     1      26.609   5.015  50.172  1.00  0.00     0.181 HD
ENDROOT
BRANCH   3   5
HETATM    5  S1  UNL     1      24.298   4.591  50.948  1.00  0.00     0.265 S 
HETATM    6  O2  UNL     1      23.707   5.288  52.137  1.00  0.00    -0.200 OA
HETATM    7  O3  UNL     1      23.258   4.363  49.902  1.00  0.00    -0.200 OA
BRANCH   5   8
HETATM    8  C8  UNL     1      24.873   3.018  51.448  1.00  0.00     0.080 A 
HETATM    9  C9  UNL     1      24.089   2.102  52.103  1.00  0.00     0.027 A 
HETATM   10  C10 UNL     1      24.547   0.860  52.496  1.00  0.00     0.020 A 
HETATM   11  C11 UNL     1      25.869   0.569  52.194  1.00  0.00     0.011 A 
HETATM   12 BR2  UNL     1      26.616  -1.109  52.684  1.00  0.00    -0.051 Br
HETATM   13  C12 UNL     1      26.712   1.445  51.538  1.00  0.00     0.020 A 
HETATM   14  C13 UNL     1      26.184   2.672  51.174  1.00  0.00     0.027 A 
ENDBRANCH   5   8
ENDBRANCH   3   5
BRANCH   1  15
HETATM   15  C6  UNL     1      26.540   7.705  49.675  1.00  0.00     0.137 C 
BRANCH  15  16
HETATM   16  C2  UNL     1      26.696   7.373  48.236  1.00  0.00    -0.075 C 
HETATM   17  C1  UNL     1      25.522   7.711  47.410  1.00  0.00     0.044 C 
HETATM   18  C3  UNL     1      27.774   6.821  47.704  1.00  0.00     0.003 C 
BRANCH  18  19
HETATM   19  C4  UNL     1      29.048   6.383  48.217  1.00  0.00     0.007 C 
HETATM   20  C5  UNL     1      30.132   7.028  48.570  1.00  0.00     0.056 C 
HETATM   21 BR1  UNL     1      31.629   6.071  49.207  1.00  0.00    -0.064 Br
ENDBRANCH  18  19
ENDBRANCH  15  16
ENDBRANCH   1  15
TORSDOF 5
ENDMDL
MODEL 8
REMARK VINA RESULT:      -6.4      2.012      6.510
REMARK  5 active torsions:
REMARK  status: ('A' for Active; 'I' for Inactive)
REMARK    1  A    between atoms: C2_2  and  C6_7 
REMARK    2  A    between atoms: C3_3  and  C4_4 
REMARK    3  A    between atoms: C6_7  and  C7_8 
REMARK       I    between atoms: C7_8  and  N1_10 
REMARK    4  A    between atoms: N1_10  and  S1_11 
REMARK    5  A    between atoms: S1_11  and  C8_14 
ROOT
HETATM    1  C7  UNL     1      23.472   3.406  50.588  1.00  0.00     0.235 C 
HETATM    2  O1  UNL     1      23.112   3.913  51.704  1.00  0.00    -0.272 OA
HETATM    3  N1  UNL     1      24.206   2.218  50.906  1.00  0.00    -0.250 N 
HETATM    4  H9  UNL     1      24.640   1.571  50.178  1.00  0.00     0.181 HD
ENDROOT
BRANCH   3   5
HETATM    5  S1  UNL     1      24.328   1.923  52.608  1.00  0.00     0.265 S 
HETATM    6  O2  UNL     1      24.397   3.226  53.348  1.00  0.00    -0.200 OA
HETATM    7  O3  UNL     1      23.219   1.077  53.138  1.00  0.00    -0.200 OA
BRANCH   5   8
HETATM    8  C8  UNL     1      25.814   1.045  52.874  1.00  0.00     0.080 A 
HETATM    9  C9  UNL     1      25.956  -0.294  52.608  1.00  0.00     0.027 A 
HETATM   10  C10 UNL     1      27.133  -0.985  52.820  1.00  0.00     0.020 A 
HETATM   11  C11 UNL     1      28.195  -0.250  53.327  1.00  0.00     0.011 A 
HETATM   12 BR2  UNL     1      29.867  -1.090  53.661  1.00  0.00    -0.051 Br
HETATM   13  C12 UNL     1      28.119   1.099  53.616  1.00  0.00     0.020 A 
HETATM   14  C13 UNL     1      26.907   1.725  53.379  1.00  0.00     0.027 A 
ENDBRANCH   5   8
ENDBRANCH   3   5
BRANCH   1  15
HETATM   15  C6  UNL     1      23.322   3.730  49.133  1.00  0.00     0.137 C 
BRANCH  15  16
HETATM   16  C2  UNL     1      23.376   5.210  49.029  1.00  0.00    -0.075 C 
HETATM   17  C1  UNL     1      22.062   5.870  49.141  1.00  0.00     0.044 C 
HETATM   18  C3  UNL     1      24.484   5.911  48.850  1.00  0.00     0.003 C 
BRANCH  18  19
HETATM   19  C4  UNL     1      25.880   5.584  48.707  1.00  0.00     0.007 C 
HETATM   20  C5  UNL     1      26.946   6.315  48.498  1.00  0.00     0.056 C 
HETATM   21 BR1  UNL     1      28.640   5.490  48.367  1.00  0.00    -0.064 Br
ENDBRANCH  18  19
ENDBRANCH  15  16
ENDBRANCH   1  15
TORSDOF 5
ENDMDL
MODEL 9
REMARK VINA RESULT:      -6.3      2.421      3.178
REMARK  5 active torsions:
REMARK  status: ('A' for Active; 'I' for Inactive)
REMARK    1  A    between atoms: C2_2  and  C6_7 
REMARK    2  A    between atoms: C3_3  and  C4_4 
REMARK    3  A    between atoms: C6_7  and  C7_8 
REMARK       I    between atoms: C7_8  and  N1_10 
REMARK    4  A    between atoms: N1_10  and  S1_11 
REMARK    5  A    between atoms: S1_11  and  C8_14 
ROOT
HETATM    1  C7  UNL     1      21.571   1.204  52.373  1.00  0.00     0.235 C 
HETATM    2  O1  UNL     1      20.875   0.868  51.356  1.00  0.00    -0.272 OA
HETATM    3  N1  UNL     1      22.479   2.215  51.920  1.00  0.00    -0.250 N 
HETATM    4  H9  UNL     1      23.196   2.697  52.544  1.00  0.00     0.181 HD
ENDROOT
BRANCH   3   5
HETATM    5  S1  UNL     1      22.304   2.588  50.238  1.00  0.00     0.265 S 
HETATM    6  O2  UNL     1      22.325   1.325  49.430  1.00  0.00    -0.200 OA
HETATM    7  O3  UNL     1      21.078   3.383  49.938  1.00  0.00    -0.200 OA
BRANCH   5   8
HETATM    8  C8  UNL     1      23.675   3.570  49.783  1.00  0.00     0.080 A 
HETATM    9  C9  UNL     1      24.977   3.163  49.933  1.00  0.00     0.027 A 
HETATM   10  C10 UNL     1      26.059   3.942  49.572  1.00  0.00     0.020 A 
HETATM   11  C11 UNL     1      25.767   5.188  49.036  1.00  0.00     0.011 A 
HETATM   12 BR2  UNL     1      27.171   6.352  48.501  1.00  0.00    -0.051 Br
HETATM   13  C12 UNL     1      24.481   5.658  48.858  1.00  0.00     0.020 A 
HETATM   14  C13 UNL     1      23.446   4.823  49.243  1.00  0.00     0.027 A 
ENDBRANCH   5   8
ENDBRANCH   3   5
BRANCH   1  15
HETATM   15  C6  UNL     1      21.660   0.825  53.820  1.00  0.00     0.137 C 
BRANCH  15  16
HETATM   16  C2  UNL     1      22.259  -0.532  53.858  1.00  0.00    -0.075 C 
HETATM   17  C1  UNL     1      21.276  -1.620  54.024  1.00  0.00     0.044 C 
HETATM   18  C3  UNL     1      23.554  -0.786  53.759  1.00  0.00     0.003 C 
BRANCH  18  19
HETATM   19  C4  UNL     1      24.736   0.021  53.594  1.00  0.00     0.007 C 
HETATM   20  C5  UNL     1      25.414   0.398  52.539  1.00  0.00     0.056 C 
HETATM   21 BR1  UNL     1      26.947   1.481  52.744  1.00  0.00    -0.064 Br
ENDBRANCH  18  19
ENDBRANCH  15  16
ENDBRANCH   1  15
TORSDOF 5
ENDMDL
