MODEL 1
REMARK VINA RESULT:      -8.2      0.000      0.000
REMARK  8 active torsions:
REMARK  status: ('A' for Active; 'I' for Inactive)
REMARK    1  A    between atoms: O1_2  and  C2_3 
REMARK    2  A    between atoms: C7_10  and  N3_11 
REMARK    3  A    between atoms: N3_11  and  C8_12 
REMARK    4  A    between atoms: C16_22  and  O2_23 
REMARK    5  A    between atoms: O2_23  and  C17_24 
REMARK    6  A    between atoms: C17_24  and  C18_25 
REMARK    7  A    between atoms: C18_25  and  C19_26 
REMARK    8  A    between atoms: C19_26  and  N4_27 
ROOT
HETATM    1  C2  UNL     1      24.131   5.510  48.549  1.00  0.00     0.078 C 
HETATM    2  C3  UNL     1      23.030   6.101  48.000  1.00  0.00     0.017 C 
HETATM    3  C4  UNL     1      21.901   5.984  49.035  1.00  0.00     0.092 C 
HETATM    4  C5  UNL     1      22.128   4.739  49.877  1.00  0.00     0.073 C 
HETATM    5  N1  UNL     1      22.029   4.727  51.208  1.00  0.00    -0.243 NA
HETATM    6  C6  UNL     1      23.035   4.307  52.217  1.00  0.00     0.235 C 
HETATM    7  N2  UNL     1      24.065   3.431  52.246  1.00  0.00    -0.224 NA
HETATM    8  C7  UNL     1      25.113   3.411  51.196  1.00  0.00     0.130 C 
HETATM    9  C14 UNL     1      25.090   3.803  49.849  1.00  0.00     0.067 C 
HETATM   10  C15 UNL     1      23.800   4.123  49.109  1.00  0.00     0.036 C 
HETATM   11  C16 UNL     1      22.527   3.581  49.004  1.00  0.00     0.106 C 
ENDROOT
BRANCH   8  12
HETATM   12  N3  UNL     1      26.444   2.980  51.345  1.00  0.00    -0.341 N 
HETATM   13  H8  UNL     1      27.062   3.528  50.680  1.00  0.00     0.167 HD
BRANCH  12  14
HETATM   14  C8  UNL     1      27.089   2.027  52.149  1.00  0.00     0.035 A 
HETATM   15  C9  UNL     1      28.043   2.314  53.104  1.00  0.00     0.032 A 
HETATM   16  C10 UNL     1      28.656   1.337  53.878  1.00  0.00     0.046 A 
HETATM   17  C11 UNL     1      28.247   0.021  53.632  1.00  0.00     0.138 A 
HETATM   18  F1  UNL     1      28.840  -0.965  54.384  1.00  0.00    -0.204 F 
HETATM   19  C12 UNL     1      27.295  -0.311  52.684  1.00  0.00     0.074 A 
HETATM   20 CL1  UNL     1      26.886  -2.016  52.493  1.00  0.00    -0.081 Cl
HETATM   21  C13 UNL     1      26.703   0.702  51.927  1.00  0.00     0.056 A 
ENDBRANCH  12  14
ENDBRANCH   8  12
BRANCH   1  22
HETATM   22  O1  UNL     1      25.475   5.936  48.680  1.00  0.00    -0.355 OA
HETATM   23  C1  UNL     1      25.927   7.190  48.304  1.00  0.00     0.210 C 
ENDBRANCH   1  22
BRANCH  11  24
HETATM   24  O2  UNL     1      22.010   2.404  48.308  1.00  0.00    -0.348 OA
BRANCH  24  25
HETATM   25  C17 UNL     1      21.219   1.494  49.039  1.00  0.00     0.177 C 
BRANCH  25  26
HETATM   26  C18 UNL     1      21.980   1.040  50.266  1.00  0.00     0.057 C 
BRANCH  26  27
HETATM   27  C19 UNL     1      21.073   1.023  51.462  1.00  0.00     0.274 C 
BRANCH  27  28
HETATM   28  N4  UNL     1      21.537   0.210  52.542  1.00  0.00     0.092 N 
HETATM   29  C20 UNL     1      20.636   0.140  53.650  1.00  0.00     0.298 C 
HETATM   30  C21 UNL     1      21.359  -0.340  54.887  1.00  0.00     0.198 C 
HETATM   31  O3  UNL     1      22.335  -1.267  54.589  1.00  0.00    -0.388 OA
HETATM   32  C22 UNL     1      23.343  -0.738  53.793  1.00  0.00     0.198 C 
HETATM   33  C23 UNL     1      22.877   0.456  52.973  1.00  0.00     0.298 C 
ENDBRANCH  27  28
ENDBRANCH  26  27
ENDBRANCH  25  26
ENDBRANCH  24  25
ENDBRANCH  11  24
TORSDOF 8
ENDMDL
MODEL 2
REMARK VINA RESULT:      -7.9      3.443      5.681
REMARK  8 active torsions:
REMARK  status: ('A' for Active; 'I' for Inactive)
REMARK    1  A    between atoms: O1_2  and  C2_3 
REMARK    2  A    between atoms: C7_10  and  N3_11 
REMARK    3  A    between atoms: N3_11  and  C8_12 
REMARK    4  A    between atoms: C16_22  and  O2_23 
REMARK    5  A    between atoms: O2_23  and  C17_24 
REMARK    6  A    between atoms: C17_24  and  C18_25 
REMARK    7  A    between atoms: C18_25  and  C19_26 
REMARK    8  A    between atoms: C19_26  and  N4_27 
ROOT
HETATM    1  C2  UNL     1      21.956   1.788  49.193  1.00  0.00     0.078 C 
HETATM    2  C3  UNL     1      20.713   1.226  49.253  1.00  0.00     0.017 C 
HETATM    3  C4  UNL     1      20.022   1.813  50.493  1.00  0.00     0.092 C 
HETATM    4  C5  UNL     1      21.077   2.168  51.528  1.00  0.00     0.073 C 
HETATM    5  N1  UNL     1      21.092   3.326  52.192  1.00  0.00    -0.243 NA
HETATM    6  C6  UNL     1      22.177   4.336  52.285  1.00  0.00     0.235 C 
HETATM    7  N2  UNL     1      23.528   4.309  52.221  1.00  0.00    -0.224 NA
HETATM    8  C7  UNL     1      24.251   3.638  51.113  1.00  0.00     0.130 C 
HETATM    9  C14 UNL     1      23.890   2.573  50.274  1.00  0.00     0.067 C 
HETATM   10  C15 UNL     1      22.678   1.693  50.541  1.00  0.00     0.036 C 
HETATM   11  C16 UNL     1      22.097   1.068  51.635  1.00  0.00     0.106 C 
ENDROOT
BRANCH   8  12
HETATM   12  N3  UNL     1      25.532   3.961  50.628  1.00  0.00    -0.341 N 
HETATM   13  H8  UNL     1      26.220   3.219  50.945  1.00  0.00     0.167 HD
BRANCH  12  14
HETATM   14  C8  UNL     1      26.060   5.005  49.853  1.00  0.00     0.035 A 
HETATM   15  C9  UNL     1      27.114   4.881  48.972  1.00  0.00     0.032 A 
HETATM   16  C10 UNL     1      27.604   5.944  48.224  1.00  0.00     0.046 A 
HETATM   17  C11 UNL     1      26.959   7.171  48.416  1.00  0.00     0.138 A 
HETATM   18  F1  UNL     1      27.427   8.240  47.688  1.00  0.00    -0.204 F 
HETATM   19  C12 UNL     1      25.900   7.341  49.289  1.00  0.00     0.074 A 
HETATM   20 CL1  UNL     1      25.192   8.951  49.420  1.00  0.00    -0.081 Cl
HETATM   21  C13 UNL     1      25.437   6.246  50.023  1.00  0.00     0.056 A 
ENDBRANCH  12  14
ENDBRANCH   8  12
BRANCH   1  22
HETATM   22  O1  UNL     1      22.670   2.411  48.142  1.00  0.00    -0.355 OA
HETATM   23  C1  UNL     1      22.127   3.372  47.304  1.00  0.00     0.210 C 
ENDBRANCH   1  22
BRANCH  11  24
HETATM   24  O2  UNL     1      22.464  -0.121  52.403  1.00  0.00    -0.348 OA
BRANCH  24  25
HETATM   25  C17 UNL     1      22.904   0.057  53.731  1.00  0.00     0.177 C 
BRANCH  25  26
HETATM   26  C18 UNL     1      24.321  -0.458  53.864  1.00  0.00     0.057 C 
BRANCH  26  27
HETATM   27  C19 UNL     1      25.248   0.348  53.000  1.00  0.00     0.274 C 
BRANCH  27  28
HETATM   28  N4  UNL     1      26.483   0.699  53.628  1.00  0.00     0.092 N 
HETATM   29  C20 UNL     1      26.975   1.991  53.268  1.00  0.00     0.298 C 
HETATM   30  C21 UNL     1      28.446   2.106  53.595  1.00  0.00     0.198 C 
HETATM   31  O3  UNL     1      28.776   1.414  54.741  1.00  0.00    -0.388 OA
HETATM   32  C22 UNL     1      28.563   0.047  54.615  1.00  0.00     0.198 C 
HETATM   33  C23 UNL     1      27.514  -0.289  53.565  1.00  0.00     0.298 C 
ENDBRANCH  27  28
ENDBRANCH  26  27
ENDBRANCH  25  26
ENDBRANCH  24  25
ENDBRANCH  11  24
TORSDOF 8
ENDMDL
MODEL 3
REMARK VINA RESULT:      -7.8      1.623      2.065
REMARK  8 active torsions:
REMARK  status: ('A' for Active; 'I' for Inactive)
REMARK    1  A    between atoms: O1_2  and  C2_3 
REMARK    2  A    between atoms: C7_10  and  N3_11 
REMARK    3  A    between atoms: N3_11  and  C8_12 
REMARK    4  A    between atoms: C16_22  and  O2_23 
REMARK    5  A    between atoms: O2_23  and  C17_24 
REMARK    6  A    between atoms: C17_24  and  C18_25 
REMARK    7  A    between atoms: C18_25  and  C19_26 
REMARK    8  A    between atoms: C19_26  and  N4_27 
ROOT
HETATM    1  C2  UNL     1      24.728   4.582  49.165  1.00  0.00     0.078 C 
HETATM    2  C3  UNL     1      24.256   5.790  48.740  1.00  0.00     0.017 C 
HETATM    3  C4  UNL     1      23.557   6.441  49.944  1.00  0.00     0.092 C 
HETATM    4  C5  UNL     1      23.015   5.349  50.852  1.00  0.00     0.073 C 
HETATM    5  N1  UNL     1      23.170   5.355  52.178  1.00  0.00    -0.243 NA
HETATM    6  C6  UNL     1      23.773   4.318  53.053  1.00  0.00     0.235 C 
HETATM    7  N2  UNL     1      23.908   2.972  53.003  1.00  0.00    -0.224 NA
HETATM    8  C7  UNL     1      24.453   2.279  51.810  1.00  0.00     0.130 C 
HETATM    9  C14 UNL     1      24.469   2.633  50.452  1.00  0.00     0.067 C 
HETATM   10  C15 UNL     1      23.643   3.783  49.894  1.00  0.00     0.036 C 
HETATM   11  C16 UNL     1      22.352   4.271  50.038  1.00  0.00     0.106 C 
ENDROOT
BRANCH   8  12
HETATM   12  N3  UNL     1      25.127   1.045  51.790  1.00  0.00    -0.341 N 
HETATM   13  H8  UNL     1      24.588   0.364  51.180  1.00  0.00     0.167 HD
BRANCH  12  14
HETATM   14  C8  UNL     1      26.303   0.552  52.378  1.00  0.00     0.035 A 
HETATM   15  C9  UNL     1      26.671  -0.777  52.418  1.00  0.00     0.032 A 
HETATM   16  C10 UNL     1      27.846  -1.219  53.011  1.00  0.00     0.046 A 
HETATM   17  C11 UNL     1      28.654  -0.226  53.577  1.00  0.00     0.138 A 
HETATM   18  F1  UNL     1      29.822  -0.638  54.172  1.00  0.00    -0.204 F 
HETATM   19  C12 UNL     1      28.323   1.118  53.559  1.00  0.00     0.074 A 
HETATM   20 CL1  UNL     1      29.446   2.250  54.315  1.00  0.00    -0.081 Cl
HETATM   21  C13 UNL     1      27.132   1.521  52.953  1.00  0.00     0.056 A 
ENDBRANCH  12  14
ENDBRANCH   8  12
BRANCH   1  22
HETATM   22  O1  UNL     1      25.993   3.959  49.046  1.00  0.00    -0.355 OA
HETATM   23  C1  UNL     1      27.191   4.652  48.974  1.00  0.00     0.210 C 
ENDBRANCH   1  22
BRANCH  11  24
HETATM   24  O2  UNL     1      21.059   3.804  49.541  1.00  0.00    -0.348 OA
BRANCH  24  25
HETATM   25  C17 UNL     1      20.502   2.648  50.126  1.00  0.00     0.177 C 
BRANCH  25  26
HETATM   26  C18 UNL     1      20.488   2.804  51.631  1.00  0.00     0.057 C 
BRANCH  26  27
HETATM   27  C19 UNL     1      19.944   1.560  52.275  1.00  0.00     0.274 C 
BRANCH  27  28
HETATM   28  N4  UNL     1      20.915   0.796  52.994  1.00  0.00     0.092 N 
HETATM   29  C20 UNL     1      21.725  -0.043  52.168  1.00  0.00     0.298 C 
HETATM   30  C21 UNL     1      22.389  -1.117  52.997  1.00  0.00     0.198 C 
HETATM   31  O3  UNL     1      22.728  -0.664  54.255  1.00  0.00    -0.388 OA
HETATM   32  C22 UNL     1      21.616  -0.297  55.003  1.00  0.00     0.198 C 
HETATM   33  C23 UNL     1      20.426   0.090  54.136  1.00  0.00     0.298 C 
ENDBRANCH  27  28
ENDBRANCH  26  27
ENDBRANCH  25  26
ENDBRANCH  24  25
ENDBRANCH  11  24
TORSDOF 8
ENDMDL
MODEL 4
REMARK VINA RESULT:      -7.8      2.216      5.599
REMARK  8 active torsions:
REMARK  status: ('A' for Active; 'I' for Inactive)
REMARK    1  A    between atoms: O1_2  and  C2_3 
REMARK    2  A    between atoms: C7_10  and  N3_11 
REMARK    3  A    between atoms: N3_11  and  C8_12 
REMARK    4  A    between atoms: C16_22  and  O2_23 
REMARK    5  A    between atoms: O2_23  and  C17_24 
REMARK    6  A    between atoms: C17_24  and  C18_25 
REMARK    7  A    between atoms: C18_25  and  C19_26 
REMARK    8  A    between atoms: C19_26  and  N4_27 
ROOT
HETATM    1  C2  UNL     1      20.193   0.185  53.269  1.00  0.00     0.078 C 
HETATM    2  C3  UNL     1      18.912  -0.260  53.113  1.00  0.00     0.017 C 
HETATM    3  C4  UNL     1      18.602  -0.197  51.610  1.00  0.00     0.092 C 
HETATM    4  C5  UNL     1      19.423   0.916  50.980  1.00  0.00     0.073 C 
HETATM    5  N1  UNL     1      20.104   0.769  49.841  1.00  0.00    -0.243 NA
HETATM    6  C6  UNL     1      21.549   0.993  49.580  1.00  0.00     0.235 C 
HETATM    7  N2  UNL     1      22.511   1.790  50.100  1.00  0.00    -0.224 NA
HETATM    8  C7  UNL     1      22.764   1.871  51.560  1.00  0.00     0.130 C 
HETATM    9  C14 UNL     1      21.928   1.651  52.664  1.00  0.00     0.067 C 
HETATM   10  C15 UNL     1      20.418   1.511  52.535  1.00  0.00     0.036 C 
HETATM   11  C16 UNL     1      19.394   2.145  51.847  1.00  0.00     0.106 C 
ENDROOT
BRANCH   8  12
HETATM   12  N3  UNL     1      23.983   2.191  52.185  1.00  0.00    -0.341 N 
HETATM   13  H8  UNL     1      23.980   3.219  52.445  1.00  0.00     0.167 HD
BRANCH  12  14
HETATM   14  C8  UNL     1      25.142   1.471  52.518  1.00  0.00     0.035 A 
HETATM   15  C9  UNL     1      25.242   0.096  52.529  1.00  0.00     0.032 A 
HETATM   16  C10 UNL     1      26.411  -0.574  52.867  1.00  0.00     0.046 A 
HETATM   17  C11 UNL     1      27.502   0.235  53.201  1.00  0.00     0.138 A 
HETATM   18  F1  UNL     1      28.670  -0.404  53.540  1.00  0.00    -0.204 F 
HETATM   19  C12 UNL     1      27.445   1.618  53.203  1.00  0.00     0.074 A 
HETATM   20 CL1  UNL     1      28.907   2.500  53.648  1.00  0.00    -0.081 Cl
HETATM   21  C13 UNL     1      26.250   2.253  52.858  1.00  0.00     0.056 A 
ENDBRANCH  12  14
ENDBRANCH   8  12
BRANCH   1  22
HETATM   22  O1  UNL     1      21.305  -0.340  53.971  1.00  0.00    -0.355 OA
HETATM   23  C1  UNL     1      21.500  -1.692  54.206  1.00  0.00     0.210 C 
ENDBRANCH   1  22
BRANCH  11  24
HETATM   24  O2  UNL     1      18.723   3.430  52.037  1.00  0.00    -0.348 OA
BRANCH  24  25
HETATM   25  C17 UNL     1      18.263   4.114  50.893  1.00  0.00     0.177 C 
BRANCH  25  26
HETATM   26  C18 UNL     1      19.395   4.244  49.897  1.00  0.00     0.057 C 
BRANCH  26  27
HETATM   27  C19 UNL     1      20.201   5.478  50.187  1.00  0.00     0.274 C 
BRANCH  27  28
HETATM   28  N4  UNL     1      21.604   5.245  50.325  1.00  0.00     0.092 N 
HETATM   29  C20 UNL     1      22.118   5.531  51.628  1.00  0.00     0.298 C 
HETATM   30  C21 UNL     1      23.619   5.696  51.578  1.00  0.00     0.198 C 
HETATM   31  O3  UNL     1      24.202   4.853  50.654  1.00  0.00    -0.388 OA
HETATM   32  C22 UNL     1      23.788   5.124  49.356  1.00  0.00     0.198 C 
HETATM   33  C23 UNL     1      22.429   5.807  49.302  1.00  0.00     0.298 C 
ENDBRANCH  27  28
ENDBRANCH  26  27
ENDBRANCH  25  26
ENDBRANCH  24  25
ENDBRANCH  11  24
TORSDOF 8
ENDMDL
MODEL 5
REMARK VINA RESULT:      -7.6      1.812      5.494
REMARK  8 active torsions:
REMARK  status: ('A' for Active; 'I' for Inactive)
REMARK    1  A    between atoms: O1_2  and  C2_3 
REMARK    2  A    between atoms: C7_10  and  N3_11 
REMARK    3  A    between atoms: N3_11  and  C8_12 
REMARK    4  A    between atoms: C16_22  and  O2_23 
REMARK    5  A    between atoms: O2_23  and  C17_24 
REMARK    6  A    between atoms: C17_24  and  C18_25 
REMARK    7  A    between atoms: C18_25  and  C19_26 
REMARK    8  A    between atoms: C19_26  and  N4_27 
ROOT
HETATM    1  C2  UNL     1      22.213   0.890  51.787  1.00  0.00     0.078 C 
HETATM    2  C3  UNL     1      21.050   0.693  51.101  1.00  0.00     0.017 C 
HETATM    3  C4  UNL     1      21.205   1.411  49.751  1.00  0.00     0.092 C 
HETATM    4  C5  UNL     1      22.150   2.589  49.922  1.00  0.00     0.073 C 
HETATM    5  N1  UNL     1      23.146   2.858  49.074  1.00  0.00    -0.243 NA
HETATM    6  C6  UNL     1      24.596   3.012  49.354  1.00  0.00     0.235 C 
HETATM    7  N2  UNL     1      25.337   3.409  50.414  1.00  0.00    -0.224 NA
HETATM    8  C7  UNL     1      25.138   2.845  51.771  1.00  0.00     0.130 C 
HETATM    9  C14 UNL     1      24.013   2.277  52.388  1.00  0.00     0.067 C 
HETATM   10  C15 UNL     1      22.616   2.368  51.793  1.00  0.00     0.036 C 
HETATM   11  C16 UNL     1      21.831   3.339  51.186  1.00  0.00     0.106 C 
ENDROOT
BRANCH   8  12
HETATM   12  N3  UNL     1      26.104   2.741  52.788  1.00  0.00    -0.341 N 
HETATM   13  H8  UNL     1      26.018   3.577  53.435  1.00  0.00     0.167 HD
BRANCH  12  14
HETATM   14  C8  UNL     1      27.104   1.810  53.109  1.00  0.00     0.035 A 
HETATM   15  C9  UNL     1      28.309   2.118  53.706  1.00  0.00     0.032 A 
HETATM   16  C10 UNL     1      29.271   1.161  54.005  1.00  0.00     0.046 A 
HETATM   17  C11 UNL     1      28.947  -0.156  53.663  1.00  0.00     0.138 A 
HETATM   18  F1  UNL     1      29.883  -1.122  53.947  1.00  0.00    -0.204 F 
HETATM   19  C12 UNL     1      27.750  -0.509  53.063  1.00  0.00     0.074 A 
HETATM   20 CL1  UNL     1      27.488  -2.214  52.693  1.00  0.00    -0.081 Cl
HETATM   21  C13 UNL     1      26.810   0.483  52.778  1.00  0.00     0.056 A 
ENDBRANCH  12  14
ENDBRANCH   8  12
BRANCH   1  22
HETATM   22  O1  UNL     1      23.074   0.002  52.475  1.00  0.00    -0.355 OA
HETATM   23  C1  UNL     1      22.637  -0.950  53.382  1.00  0.00     0.210 C 
ENDBRANCH   1  22
BRANCH  11  24
HETATM   24  O2  UNL     1      21.103   4.491  51.714  1.00  0.00    -0.348 OA
BRANCH  24  25
HETATM   25  C17 UNL     1      20.743   5.517  50.816  1.00  0.00     0.177 C 
BRANCH  25  26
HETATM   26  C18 UNL     1      21.837   6.564  50.785  1.00  0.00     0.057 C 
BRANCH  26  27
HETATM   27  C19 UNL     1      22.654   6.423  49.533  1.00  0.00     0.274 C 
BRANCH  27  28
HETATM   28  N4  UNL     1      24.017   6.831  49.670  1.00  0.00     0.092 N 
HETATM   29  C20 UNL     1      24.185   8.108  50.290  1.00  0.00     0.298 C 
HETATM   30  C21 UNL     1      25.562   8.657  50.000  1.00  0.00     0.198 C 
HETATM   31  O3  UNL     1      26.515   7.662  49.945  1.00  0.00    -0.388 OA
HETATM   32  C22 UNL     1      26.284   6.765  48.910  1.00  0.00     0.198 C 
HETATM   33  C23 UNL     1      24.821   6.710  48.495  1.00  0.00     0.298 C 
ENDBRANCH  27  28
ENDBRANCH  26  27
ENDBRANCH  25  26
ENDBRANCH  24  25
ENDBRANCH  11  24
TORSDOF 8
ENDMDL
MODEL 6
REMARK VINA RESULT:      -7.6      4.568      6.447
REMARK  8 active torsions:
REMARK  status: ('A' for Active; 'I' for Inactive)
REMARK    1  A    between atoms: O1_2  and  C2_3 
REMARK    2  A    between atoms: C7_10  and  N3_11 
REMARK    3  A    between atoms: N3_11  and  C8_12 
REMARK    4  A    between atoms: C16_22  and  O2_23 
REMARK    5  A    between atoms: O2_23  and  C17_24 
REMARK    6  A    between atoms: C17_24  and  C18_25 
REMARK    7  A    between atoms: C18_25  and  C19_26 
REMARK    8  A    between atoms: C19_26  and  N4_27 
ROOT
HETATM    1  C2  UNL     1      20.101   0.095  52.807  1.00  0.00     0.078 C 
HETATM    2  C3  UNL     1      18.838  -0.318  52.496  1.00  0.00     0.017 C 
HETATM    3  C4  UNL     1      18.623  -0.004  51.008  1.00  0.00     0.092 C 
HETATM    4  C5  UNL     1      19.469   1.201  50.628  1.00  0.00     0.073 C 
HETATM    5  N1  UNL     1      20.223   1.249  49.527  1.00  0.00    -0.243 NA
HETATM    6  C6  UNL     1      21.678   1.515  49.401  1.00  0.00     0.235 C 
HETATM    7  N2  UNL     1      22.596   2.213  50.109  1.00  0.00    -0.224 NA
HETATM    8  C7  UNL     1      22.755   2.048  51.574  1.00  0.00     0.130 C 
HETATM    9  C14 UNL     1      21.853   1.644  52.570  1.00  0.00     0.067 C 
HETATM   10  C15 UNL     1      20.357   1.527  52.323  1.00  0.00     0.036 C 
HETATM   11  C16 UNL     1      19.370   2.266  51.686  1.00  0.00     0.106 C 
ENDROOT
BRANCH   8  12
HETATM   12  N3  UNL     1      23.928   2.260  52.321  1.00  0.00    -0.341 N 
HETATM   13  H8  UNL     1      23.844   3.177  52.847  1.00  0.00     0.167 HD
BRANCH  12  14
HETATM   14  C8  UNL     1      25.124   1.547  52.506  1.00  0.00     0.035 A 
HETATM   15  C9  UNL     1      25.284   0.197  52.272  1.00  0.00     0.032 A 
HETATM   16  C10 UNL     1      26.488  -0.466  52.469  1.00  0.00     0.046 A 
HETATM   17  C11 UNL     1      27.551   0.322  52.926  1.00  0.00     0.138 A 
HETATM   18  F1  UNL     1      28.753  -0.312  53.131  1.00  0.00    -0.204 F 
HETATM   19  C12 UNL     1      27.434   1.679  53.173  1.00  0.00     0.074 A 
HETATM   20 CL1  UNL     1      28.865   2.536  53.745  1.00  0.00    -0.081 Cl
HETATM   21  C13 UNL     1      26.205   2.308  52.962  1.00  0.00     0.056 A 
ENDBRANCH  12  14
ENDBRANCH   8  12
BRANCH   1  22
HETATM   22  O1  UNL     1      21.172  -0.540  53.481  1.00  0.00    -0.355 OA
HETATM   23  C1  UNL     1      21.006  -1.549  54.415  1.00  0.00     0.210 C 
ENDBRANCH   1  22
BRANCH  11  24
HETATM   24  O2  UNL     1      18.674   3.500  52.046  1.00  0.00    -0.348 OA
BRANCH  24  25
HETATM   25  C17 UNL     1      17.590   3.909  51.242  1.00  0.00     0.177 C 
BRANCH  25  26
HETATM   26  C18 UNL     1      16.361   4.085  52.107  1.00  0.00     0.057 C 
BRANCH  26  27
HETATM   27  C19 UNL     1      15.515   2.845  52.062  1.00  0.00     0.274 C 
BRANCH  27  28
HETATM   28  N4  UNL     1      14.191   3.016  52.574  1.00  0.00     0.092 N 
HETATM   29  C20 UNL     1      14.005   4.220  53.321  1.00  0.00     0.298 C 
HETATM   30  C21 UNL     1      12.767   4.120  54.182  1.00  0.00     0.198 C 
HETATM   31  O3  UNL     1      11.767   3.396  53.568  1.00  0.00    -0.388 OA
HETATM   32  C22 UNL     1      12.132   2.074  53.345  1.00  0.00     0.198 C 
HETATM   33  C23 UNL     1      13.639   1.887  53.256  1.00  0.00     0.298 C 
ENDBRANCH  27  28
ENDBRANCH  26  27
ENDBRANCH  25  26
ENDBRANCH  24  25
ENDBRANCH  11  24
TORSDOF 8
ENDMDL
MODEL 7
REMARK VINA RESULT:      -7.4      1.840      2.514
REMARK  8 active torsions:
REMARK  status: ('A' for Active; 'I' for Inactive)
REMARK    1  A    between atoms: O1_2  and  C2_3 
REMARK    2  A    between atoms: C7_10  and  N3_11 
REMARK    3  A    between atoms: N3_11  and  C8_12 
REMARK    4  A    between atoms: C16_22  and  O2_23 
REMARK    5  A    between atoms: O2_23  and  C17_24 
REMARK    6  A    between atoms: C17_24  and  C18_25 
REMARK    7  A    between atoms: C18_25  and  C19_26 
REMARK    8  A    between atoms: C19_26  and  N4_27 
ROOT
HETATM    1  C2  UNL     1      25.566   6.032  48.821  1.00  0.00     0.078 C 
HETATM    2  C3  UNL     1      24.953   7.201  48.472  1.00  0.00     0.017 C 
HETATM    3  C4  UNL     1      23.830   7.434  49.494  1.00  0.00     0.092 C 
HETATM    4  C5  UNL     1      23.338   6.090  50.006  1.00  0.00     0.073 C 
HETATM    5  N1  UNL     1      23.133   5.829  51.299  1.00  0.00    -0.243 NA
HETATM    6  C6  UNL     1      23.709   4.748  52.138  1.00  0.00     0.235 C 
HETATM    7  N2  UNL     1      24.164   3.493  51.916  1.00  0.00    -0.224 NA
HETATM    8  C7  UNL     1      25.150   3.189  50.850  1.00  0.00     0.130 C 
HETATM    9  C14 UNL     1      25.440   3.832  49.637  1.00  0.00     0.067 C 
HETATM   10  C15 UNL     1      24.545   4.912  49.047  1.00  0.00     0.036 C 
HETATM   11  C16 UNL     1      23.185   5.119  48.867  1.00  0.00     0.106 C 
ENDROOT
BRANCH   8  12
HETATM   12  N3  UNL     1      26.075   2.129  50.839  1.00  0.00    -0.341 N 
HETATM   13  H8  UNL     1      26.285   1.862  49.835  1.00  0.00     0.167 HD
BRANCH  12  14
HETATM   14  C8  UNL     1      26.743   1.390  51.829  1.00  0.00     0.035 A 
HETATM   15  C9  UNL     1      26.545   0.049  52.083  1.00  0.00     0.032 A 
HETATM   16  C10 UNL     1      27.230  -0.642  53.074  1.00  0.00     0.046 A 
HETATM   17  C11 UNL     1      28.150   0.109  53.815  1.00  0.00     0.138 A 
HETATM   18  F1  UNL     1      28.840  -0.551  54.804  1.00  0.00    -0.204 F 
HETATM   19  C12 UNL     1      28.379   1.456  53.594  1.00  0.00     0.074 A 
HETATM   20 CL1  UNL     1      29.572   2.265  54.612  1.00  0.00    -0.081 Cl
HETATM   21  C13 UNL     1      27.669   2.114  52.587  1.00  0.00     0.056 A 
ENDBRANCH  12  14
ENDBRANCH   8  12
BRANCH   1  22
HETATM   22  O1  UNL     1      26.927   5.685  48.995  1.00  0.00    -0.355 OA
HETATM   23  C1  UNL     1      27.967   6.255  48.278  1.00  0.00     0.210 C 
ENDBRANCH   1  22
BRANCH  11  24
HETATM   24  O2  UNL     1      22.215   4.553  47.932  1.00  0.00    -0.348 OA
BRANCH  24  25
HETATM   25  C17 UNL     1      21.434   3.462  48.367  1.00  0.00     0.177 C 
BRANCH  25  26
HETATM   26  C18 UNL     1      22.121   2.168  47.985  1.00  0.00     0.057 C 
BRANCH  26  27
HETATM   27  C19 UNL     1      21.509   1.018  48.732  1.00  0.00     0.274 C 
BRANCH  27  28
HETATM   28  N4  UNL     1      21.008   1.355  50.027  1.00  0.00     0.092 N 
HETATM   29  C20 UNL     1      21.837   0.919  51.106  1.00  0.00     0.298 C 
HETATM   30  C21 UNL     1      21.056   0.904  52.399  1.00  0.00     0.198 C 
HETATM   31  O3  UNL     1      20.136   1.930  52.460  1.00  0.00    -0.388 OA
HETATM   32  C22 UNL     1      19.163   1.827  51.474  1.00  0.00     0.198 C 
HETATM   33  C23 UNL     1      19.634   1.038  50.262  1.00  0.00     0.298 C 
ENDBRANCH  27  28
ENDBRANCH  26  27
ENDBRANCH  25  26
ENDBRANCH  24  25
ENDBRANCH  11  24
TORSDOF 8
ENDMDL
MODEL 8
REMARK VINA RESULT:      -7.4      4.371      6.742
REMARK  8 active torsions:
REMARK  status: ('A' for Active; 'I' for Inactive)
REMARK    1  A    between atoms: O1_2  and  C2_3 
REMARK    2  A    between atoms: C7_10  and  N3_11 
REMARK    3  A    between atoms: N3_11  and  C8_12 
REMARK    4  A    between atoms: C16_22  and  O2_23 
REMARK    5  A    between atoms: O2_23  and  C17_24 
REMARK    6  A    between atoms: C17_24  and  C18_25 
REMARK    7  A    between atoms: C18_25  and  C19_26 
REMARK    8  A    between atoms: C19_26  and  N4_27 
ROOT
HETATM    1  C2  UNL     1      25.357   4.518  49.362  1.00  0.00     0.078 C 
HETATM    2  C3  UNL     1      24.848   3.278  49.110  1.00  0.00     0.017 C 
HETATM    3  C4  UNL     1      23.318   3.415  49.123  1.00  0.00     0.092 C 
HETATM    4  C5  UNL     1      22.931   4.551  50.056  1.00  0.00     0.073 C 
HETATM    5  N1  UNL     1      22.037   5.489  49.735  1.00  0.00    -0.243 NA
HETATM    6  C6  UNL     1      22.197   6.966  49.719  1.00  0.00     0.235 C 
HETATM    7  N2  UNL     1      22.957   7.862  50.390  1.00  0.00    -0.224 NA
HETATM    8  C7  UNL     1      24.426   7.706  50.524  1.00  0.00     0.130 C 
HETATM    9  C14 UNL     1      25.249   6.570  50.505  1.00  0.00     0.067 C 
HETATM   10  C15 UNL     1      24.696   5.155  50.589  1.00  0.00     0.036 C 
HETATM   11  C16 UNL     1      23.732   4.482  51.327  1.00  0.00     0.106 C 
ENDROOT
BRANCH   8  12
HETATM   12  N3  UNL     1      25.368   8.737  50.693  1.00  0.00    -0.341 N 
HETATM   13  H8  UNL     1      25.395   9.018  51.715  1.00  0.00     0.167 HD
BRANCH  12  14
HETATM   14  C8  UNL     1      26.235   9.434  49.836  1.00  0.00     0.035 A 
HETATM   15  C9  UNL     1      25.834  10.233  48.785  1.00  0.00     0.032 A 
HETATM   16  C10 UNL     1      26.729  10.905  47.963  1.00  0.00     0.046 A 
HETATM   17  C11 UNL     1      28.084  10.725  48.261  1.00  0.00     0.138 A 
HETATM   18  F1  UNL     1      28.990  11.378  47.461  1.00  0.00    -0.204 F 
HETATM   19  C12 UNL     1      28.529   9.933  49.305  1.00  0.00     0.074 A 
HETATM   20 CL1  UNL     1      30.271   9.806  49.555  1.00  0.00    -0.081 Cl
HETATM   21  C13 UNL     1      27.597   9.274  50.109  1.00  0.00     0.056 A 
ENDBRANCH  12  14
ENDBRANCH   8  12
BRANCH   1  22
HETATM   22  O1  UNL     1      26.356   5.288  48.718  1.00  0.00    -0.355 OA
HETATM   23  C1  UNL     1      27.679   4.892  48.602  1.00  0.00     0.210 C 
ENDBRANCH   1  22
BRANCH  11  24
HETATM   24  O2  UNL     1      23.701   4.007  52.709  1.00  0.00    -0.348 OA
BRANCH  24  25
HETATM   25  C17 UNL     1      23.562   2.621  52.931  1.00  0.00     0.177 C 
BRANCH  25  26
HETATM   26  C18 UNL     1      24.840   1.917  52.526  1.00  0.00     0.057 C 
BRANCH  26  27
HETATM   27  C19 UNL     1      25.261   0.952  53.597  1.00  0.00     0.274 C 
BRANCH  27  28
HETATM   28  N4  UNL     1      26.604   1.128  54.053  1.00  0.00     0.092 N 
HETATM   29  C20 UNL     1      27.240   2.307  53.557  1.00  0.00     0.298 C 
HETATM   30  C21 UNL     1      28.740   2.199  53.702  1.00  0.00     0.198 C 
HETATM   31  O3  UNL     1      29.101   1.514  54.844  1.00  0.00    -0.388 OA
HETATM   32  C22 UNL     1      28.666   0.195  54.829  1.00  0.00     0.198 C 
HETATM   33  C23 UNL     1      27.455  -0.015  53.933  1.00  0.00     0.298 C 
ENDBRANCH  27  28
ENDBRANCH  26  27
ENDBRANCH  25  26
ENDBRANCH  24  25
ENDBRANCH  11  24
TORSDOF 8
ENDMDL
MODEL 9
REMARK VINA RESULT:      -7.3      3.158      5.293
REMARK  8 active torsions:
REMARK  status: ('A' for Active; 'I' for Inactive)
REMARK    1  A    between atoms: O1_2  and  C2_3 
REMARK    2  A    between atoms: C7_10  and  N3_11 
REMARK    3  A    between atoms: N3_11  and  C8_12 
REMARK    4  A    between atoms: C16_22  and  O2_23 
REMARK    5  A    between atoms: O2_23  and  C17_24 
REMARK    6  A    between atoms: C17_24  and  C18_25 
REMARK    7  A    between atoms: C18_25  and  C19_26 
REMARK    8  A    between atoms: C19_26  and  N4_27 
ROOT
HETATM    1  C2  UNL     1      26.230   3.065  50.144  1.00  0.00     0.078 C 
HETATM    2  C3  UNL     1      26.708   4.008  49.281  1.00  0.00     0.017 C 
HETATM    3  C4  UNL     1      25.968   5.316  49.602  1.00  0.00     0.092 C 
HETATM    4  C5  UNL     1      24.592   4.985  50.156  1.00  0.00     0.073 C 
HETATM    5  N1  UNL     1      24.079   5.569  51.241  1.00  0.00    -0.243 NA
HETATM    6  C6  UNL     1      23.569   4.943  52.488  1.00  0.00     0.235 C 
HETATM    7  N2  UNL     1      23.005   3.757  52.811  1.00  0.00    -0.224 NA
HETATM    8  C7  UNL     1      23.607   2.462  52.409  1.00  0.00     0.130 C 
HETATM    9  C14 UNL     1      24.441   2.115  51.336  1.00  0.00     0.067 C 
HETATM   10  C15 UNL     1      24.698   3.047  50.161  1.00  0.00     0.036 C 
HETATM   11  C16 UNL     1      23.952   3.888  49.349  1.00  0.00     0.106 C 
ENDROOT
BRANCH   8  12
HETATM   12  N3  UNL     1      23.472   1.230  53.075  1.00  0.00    -0.341 N 
HETATM   13  H8  UNL     1      24.420   0.928  53.442  1.00  0.00     0.167 HD
BRANCH  12  14
HETATM   14  C8  UNL     1      22.399   0.363  53.341  1.00  0.00     0.035 A 
HETATM   15  C9  UNL     1      22.407  -0.636  54.292  1.00  0.00     0.032 A 
HETATM   16  C10 UNL     1      21.321  -1.471  54.520  1.00  0.00     0.046 A 
HETATM   17  C11 UNL     1      20.196  -1.240  53.720  1.00  0.00     0.138 A 
HETATM   18  F1  UNL     1      19.109  -2.054  53.926  1.00  0.00    -0.204 F 
HETATM   19  C12 UNL     1      20.146  -0.249  52.755  1.00  0.00     0.074 A 
HETATM   20 CL1  UNL     1      18.655  -0.082  51.828  1.00  0.00    -0.081 Cl
HETATM   21  C13 UNL     1      21.260   0.569  52.557  1.00  0.00     0.056 A 
ENDBRANCH  12  14
ENDBRANCH   8  12
BRANCH   1  22
HETATM   22  O1  UNL     1      26.878   2.130  50.987  1.00  0.00    -0.355 OA
HETATM   23  C1  UNL     1      27.445   2.456  52.209  1.00  0.00     0.210 C 
ENDBRANCH   1  22
BRANCH  11  24
HETATM   24  O2  UNL     1      23.020   3.630  48.253  1.00  0.00    -0.348 OA
BRANCH  24  25
HETATM   25  C17 UNL     1      22.482   4.738  47.564  1.00  0.00     0.177 C 
BRANCH  25  26
HETATM   26  C18 UNL     1      21.361   5.342  48.383  1.00  0.00     0.057 C 
BRANCH  26  27
HETATM   27  C19 UNL     1      20.107   4.531  48.222  1.00  0.00     0.274 C 
BRANCH  27  28
HETATM   28  N4  UNL     1      19.415   4.268  49.445  1.00  0.00     0.092 N 
HETATM   29  C20 UNL     1      20.233   4.367  50.612  1.00  0.00     0.298 C 
HETATM   30  C21 UNL     1      19.579   3.660  51.776  1.00  0.00     0.198 C 
HETATM   31  O3  UNL     1      18.205   3.780  51.748  1.00  0.00    -0.388 OA
HETATM   32  C22 UNL     1      17.644   3.179  50.628  1.00  0.00     0.198 C 
HETATM   33  C23 UNL     1      18.618   3.082  49.463  1.00  0.00     0.298 C 
ENDBRANCH  27  28
ENDBRANCH  26  27
ENDBRANCH  25  26
ENDBRANCH  24  25
ENDBRANCH  11  24
TORSDOF 8
ENDMDL
