MODEL 1
REMARK VINA RESULT:      -8.0      0.000      0.000
REMARK  7 active torsions:
REMARK  status: ('A' for Active; 'I' for Inactive)
REMARK    1  A    between atoms: C2_2  and  N1_3 
REMARK    2  A    between atoms: C3_4  and  C4_5 
REMARK    3  A    between atoms: C8_9  and  O1_10 
REMARK    4  A    between atoms: O1_10  and  C9_11 
REMARK    5  A    between atoms: C13_18  and  O2_19 
REMARK    6  A    between atoms: O2_19  and  C14_20 
REMARK    7  A    between atoms: C14_20  and  C15_21 
ROOT
HETATM    1  C9  UNL     1      26.460  -0.541  53.026  1.00  0.00     0.175 A 
HETATM    2  N2  UNL     1      26.907  -1.726  52.951  1.00  0.00    -0.218 NA
HETATM    3  C10 UNL     1      28.249  -2.073  53.369  1.00  0.00     0.257 A 
HETATM    4  N3  UNL     1      29.038  -1.134  53.833  1.00  0.00    -0.165 NA
HETATM    5  N4  UNL     1      28.600   0.192  53.922  1.00  0.00    -0.265 N 
HETATM    6  C11 UNL     1      29.167   1.466  54.299  1.00  0.00     0.112 C 
HETATM    7  C12 UNL     1      28.571   2.390  53.514  1.00  0.00     0.026 C 
HETATM    8  C13 UNL     1      27.584   1.682  52.598  1.00  0.00     0.178 C 
HETATM    9  C18 UNL     1      27.228   0.565  53.541  1.00  0.00     0.219 A 
ENDROOT
BRANCH   1  10
HETATM   10  O1  UNL     1      25.181  -0.494  52.563  1.00  0.00    -0.290 OA
BRANCH  10  11
HETATM   11  C8  UNL     1      24.008  -0.386  53.249  1.00  0.00     0.117 A 
HETATM   12  C7  UNL     1      23.662  -1.090  54.384  1.00  0.00     0.040 A 
HETATM   13  C6  UNL     1      22.477  -0.983  55.079  1.00  0.00     0.004 A 
HETATM   14  C5  UNL     1      21.545  -0.088  54.597  1.00  0.00     0.015 A 
HETATM   15  C4  UNL     1      21.851   0.651  53.447  1.00  0.00     0.007 A 
HETATM   16  C19 UNL     1      23.055   0.503  52.791  1.00  0.00     0.160 A 
HETATM   17  F1  UNL     1      23.336   1.238  51.663  1.00  0.00    -0.202 F 
BRANCH  15  18
HETATM   18  C3  UNL     1      20.930   1.624  52.870  1.00  0.00     0.038 C 
HETATM   19  C2  UNL     1      19.904   1.435  52.058  1.00  0.00    -0.001 C 
HETATM   20  C1  UNL     1      18.870   2.209  51.368  1.00  0.00     0.067 C 
BRANCH  19  21
HETATM   21  N1  UNL     1      19.719   0.053  51.738  1.00  0.00    -0.403 N 
HETATM   22  H4  UNL     1      19.839  -0.937  52.110  1.00  0.00     0.156 HD
HETATM   23  H5  UNL     1      19.554  -0.945  51.427  1.00  0.00     0.156 HD
ENDBRANCH  19  21
ENDBRANCH  15  18
ENDBRANCH  10  11
ENDBRANCH   1  10
BRANCH   8  24
HETATM   24  O2  UNL     1      26.541   2.476  52.224  1.00  0.00    -0.379 OA
BRANCH  24  25
HETATM   25  C14 UNL     1      26.223   2.447  50.872  1.00  0.00     0.172 C 
BRANCH  25  26
HETATM   26  C15 UNL     1      25.964   3.830  50.311  1.00  0.00     0.001 C 
HETATM   27  C16 UNL     1      24.551   3.941  49.770  1.00  0.00     0.011 C 
HETATM   28  C17 UNL     1      26.944   4.185  49.222  1.00  0.00     0.011 C 
ENDBRANCH  25  26
ENDBRANCH  24  25
ENDBRANCH   8  24
TORSDOF 7
ENDMDL
MODEL 2
REMARK VINA RESULT:      -7.9      2.583      5.659
REMARK  7 active torsions:
REMARK  status: ('A' for Active; 'I' for Inactive)
REMARK    1  A    between atoms: C2_2  and  N1_3 
REMARK    2  A    between atoms: C3_4  and  C4_5 
REMARK    3  A    between atoms: C8_9  and  O1_10 
REMARK    4  A    between atoms: O1_10  and  C9_11 
REMARK    5  A    between atoms: C13_18  and  O2_19 
REMARK    6  A    between atoms: O2_19  and  C14_20 
REMARK    7  A    between atoms: C14_20  and  C15_21 
ROOT
HETATM    1  C9  UNL     1      26.628   1.839  51.608  1.00  0.00     0.175 A 
HETATM    2  N2  UNL     1      27.596   2.520  52.064  1.00  0.00    -0.218 NA
HETATM    3  C10 UNL     1      28.117   2.323  53.400  1.00  0.00     0.257 A 
HETATM    4  N3  UNL     1      27.569   1.416  54.174  1.00  0.00    -0.165 NA
HETATM    5  N4  UNL     1      26.490   0.649  53.726  1.00  0.00    -0.265 N 
HETATM    6  C11 UNL     1      25.610  -0.357  54.277  1.00  0.00     0.112 C 
HETATM    7  C12 UNL     1      24.408  -0.168  53.689  1.00  0.00     0.026 C 
HETATM    8  C13 UNL     1      24.521   1.004  52.725  1.00  0.00     0.178 C 
HETATM    9  C18 UNL     1      25.966   0.802  52.358  1.00  0.00     0.219 A 
ENDROOT
BRANCH   1  10
HETATM   10  O1  UNL     1      26.338   2.232  50.338  1.00  0.00    -0.290 OA
BRANCH  10  11
HETATM   11  C8  UNL     1      26.237   3.487  49.814  1.00  0.00     0.117 A 
HETATM   12  C7  UNL     1      27.244   4.188  49.185  1.00  0.00     0.040 A 
HETATM   13  C6  UNL     1      27.145   5.456  48.654  1.00  0.00     0.004 A 
HETATM   14  C5  UNL     1      25.923   6.086  48.760  1.00  0.00     0.015 A 
HETATM   15  C4  UNL     1      24.869   5.414  49.390  1.00  0.00     0.007 A 
HETATM   16  C19 UNL     1      25.025   4.143  49.904  1.00  0.00     0.160 A 
HETATM   17  F1  UNL     1      23.977   3.501  50.519  1.00  0.00    -0.202 F 
BRANCH  15  18
HETATM   18  C3  UNL     1      23.542   6.001  49.541  1.00  0.00     0.038 C 
HETATM   19  C2  UNL     1      23.071   6.784  50.495  1.00  0.00    -0.001 C 
HETATM   20  C1  UNL     1      21.833   7.475  50.861  1.00  0.00     0.067 C 
BRANCH  19  21
HETATM   21  N1  UNL     1      24.055   7.066  51.495  1.00  0.00    -0.403 N 
HETATM   22  H4  UNL     1      25.101   7.071  51.691  1.00  0.00     0.156 HD
HETATM   23  H5  UNL     1      24.720   7.293  52.285  1.00  0.00     0.156 HD
ENDBRANCH  19  21
ENDBRANCH  15  18
ENDBRANCH  10  11
ENDBRANCH   1  10
BRANCH   8  24
HETATM   24  O2  UNL     1      23.644   0.922  51.684  1.00  0.00    -0.379 OA
BRANCH  24  25
HETATM   25  C14 UNL     1      22.300   0.980  52.029  1.00  0.00     0.172 C 
BRANCH  25  26
HETATM   26  C15 UNL     1      21.406   0.371  50.969  1.00  0.00     0.001 C 
HETATM   27  C16 UNL     1      21.625   1.036  49.624  1.00  0.00     0.011 C 
HETATM   28  C17 UNL     1      19.948   0.470  51.342  1.00  0.00     0.011 C 
ENDBRANCH  25  26
ENDBRANCH  24  25
ENDBRANCH   8  24
TORSDOF 7
ENDMDL
MODEL 3
REMARK VINA RESULT:      -7.9      2.590      5.914
REMARK  7 active torsions:
REMARK  status: ('A' for Active; 'I' for Inactive)
REMARK    1  A    between atoms: C2_2  and  N1_3 
REMARK    2  A    between atoms: C3_4  and  C4_5 
REMARK    3  A    between atoms: C8_9  and  O1_10 
REMARK    4  A    between atoms: O1_10  and  C9_11 
REMARK    5  A    between atoms: C13_18  and  O2_19 
REMARK    6  A    between atoms: O2_19  and  C14_20 
REMARK    7  A    between atoms: C14_20  and  C15_21 
ROOT
HETATM    1  C9  UNL     1      26.993   1.715  52.046  1.00  0.00     0.175 A 
HETATM    2  N2  UNL     1      27.925   2.527  52.334  1.00  0.00    -0.218 NA
HETATM    3  C10 UNL     1      28.623   2.483  53.601  1.00  0.00     0.257 A 
HETATM    4  N3  UNL     1      28.279   1.582  54.491  1.00  0.00    -0.165 NA
HETATM    5  N4  UNL     1      27.247   0.675  54.231  1.00  0.00    -0.265 N 
HETATM    6  C11 UNL     1      26.561  -0.375  54.948  1.00  0.00     0.112 C 
HETATM    7  C12 UNL     1      25.283  -0.357  54.509  1.00  0.00     0.026 C 
HETATM    8  C13 UNL     1      25.144   0.747  53.472  1.00  0.00     0.178 C 
HETATM    9  C18 UNL     1      26.548   0.672  52.935  1.00  0.00     0.219 A 
ENDROOT
BRANCH   1  10
HETATM   10  O1  UNL     1      26.508   1.982  50.803  1.00  0.00    -0.290 OA
BRANCH  10  11
HETATM   11  C8  UNL     1      25.655   2.962  50.390  1.00  0.00     0.117 A 
HETATM   12  C7  UNL     1      24.284   2.961  50.538  1.00  0.00     0.040 A 
HETATM   13  C6  UNL     1      23.419   3.950  50.121  1.00  0.00     0.004 A 
HETATM   14  C5  UNL     1      23.975   5.047  49.498  1.00  0.00     0.015 A 
HETATM   15  C4  UNL     1      25.363   5.095  49.325  1.00  0.00     0.007 A 
HETATM   16  C19 UNL     1      26.182   4.074  49.763  1.00  0.00     0.160 A 
HETATM   17  F1  UNL     1      27.544   4.140  49.583  1.00  0.00    -0.202 F 
BRANCH  15  18
HETATM   18  C3  UNL     1      26.037   6.217  48.683  1.00  0.00     0.038 C 
HETATM   19  C2  UNL     1      26.481   7.346  49.207  1.00  0.00    -0.001 C 
HETATM   20  C1  UNL     1      27.162   8.576  48.795  1.00  0.00     0.067 C 
BRANCH  19  21
HETATM   21  N1  UNL     1      26.239   7.417  50.615  1.00  0.00    -0.403 N 
HETATM   22  H4  UNL     1      25.503   7.259  51.367  1.00  0.00     0.156 HD
HETATM   23  H5  UNL     1      26.137   7.497  51.665  1.00  0.00     0.156 HD
ENDBRANCH  19  21
ENDBRANCH  15  18
ENDBRANCH  10  11
ENDBRANCH   1  10
BRANCH   8  24
HETATM   24  O2  UNL     1      24.164   0.497  52.558  1.00  0.00    -0.379 OA
BRANCH  24  25
HETATM   25  C14 UNL     1      23.045  -0.163  53.048  1.00  0.00     0.172 C 
BRANCH  25  26
HETATM   26  C15 UNL     1      21.784   0.667  52.924  1.00  0.00     0.001 C 
HETATM   27  C16 UNL     1      20.822   0.368  54.059  1.00  0.00     0.011 C 
HETATM   28  C17 UNL     1      21.088   0.435  51.607  1.00  0.00     0.011 C 
ENDBRANCH  25  26
ENDBRANCH  24  25
ENDBRANCH   8  24
TORSDOF 7
ENDMDL
MODEL 4
REMARK VINA RESULT:      -7.9      1.792      4.522
REMARK  7 active torsions:
REMARK  status: ('A' for Active; 'I' for Inactive)
REMARK    1  A    between atoms: C2_2  and  N1_3 
REMARK    2  A    between atoms: C3_4  and  C4_5 
REMARK    3  A    between atoms: C8_9  and  O1_10 
REMARK    4  A    between atoms: O1_10  and  C9_11 
REMARK    5  A    between atoms: C13_18  and  O2_19 
REMARK    6  A    between atoms: O2_19  and  C14_20 
REMARK    7  A    between atoms: C14_20  and  C15_21 
ROOT
HETATM    1  C9  UNL     1      27.176   1.624  53.277  1.00  0.00     0.175 A 
HETATM    2  N2  UNL     1      28.074   2.193  53.969  1.00  0.00    -0.218 NA
HETATM    3  C10 UNL     1      29.271   1.502  54.400  1.00  0.00     0.257 A 
HETATM    4  N3  UNL     1      29.436   0.242  54.073  1.00  0.00    -0.165 NA
HETATM    5  N4  UNL     1      28.469  -0.437  53.324  1.00  0.00    -0.265 N 
HETATM    6  C11 UNL     1      28.263  -1.783  52.843  1.00  0.00     0.112 C 
HETATM    7  C12 UNL     1      26.928  -1.989  52.862  1.00  0.00     0.026 C 
HETATM    8  C13 UNL     1      26.252  -0.726  53.375  1.00  0.00     0.178 C 
HETATM    9  C18 UNL     1      27.262   0.253  52.841  1.00  0.00     0.219 A 
ENDROOT
BRANCH   1  10
HETATM   10  O1  UNL     1      26.163   2.495  53.019  1.00  0.00    -0.290 OA
BRANCH  10  11
HETATM   11  C8  UNL     1      25.550   2.797  51.839  1.00  0.00     0.117 A 
HETATM   12  C7  UNL     1      26.180   3.107  50.652  1.00  0.00     0.040 A 
HETATM   13  C6  UNL     1      25.563   3.413  49.458  1.00  0.00     0.004 A 
HETATM   14  C5  UNL     1      24.184   3.409  49.446  1.00  0.00     0.015 A 
HETATM   15  C4  UNL     1      23.499   3.100  50.627  1.00  0.00     0.007 A 
HETATM   16  C19 UNL     1      24.170   2.801  51.796  1.00  0.00     0.160 A 
HETATM   17  F1  UNL     1      23.478   2.501  52.946  1.00  0.00    -0.202 F 
BRANCH  15  18
HETATM   18  C3  UNL     1      22.043   3.067  50.706  1.00  0.00     0.038 C 
HETATM   19  C2  UNL     1      21.195   4.020  51.049  1.00  0.00    -0.001 C 
HETATM   20  C1  UNL     1      19.754   4.231  51.201  1.00  0.00     0.067 C 
BRANCH  19  21
HETATM   21  N1  UNL     1      21.864   5.242  51.377  1.00  0.00    -0.403 N 
HETATM   22  H4  UNL     1      21.733   6.295  51.463  1.00  0.00     0.156 HD
HETATM   23  H5  UNL     1      22.427   6.101  51.631  1.00  0.00     0.156 HD
ENDBRANCH  19  21
ENDBRANCH  15  18
ENDBRANCH  10  11
ENDBRANCH   1  10
BRANCH   8  24
HETATM   24  O2  UNL     1      24.985  -0.568  52.895  1.00  0.00    -0.379 OA
BRANCH  24  25
HETATM   25  C14 UNL     1      23.988  -0.484  53.858  1.00  0.00     0.172 C 
BRANCH  25  26
HETATM   26  C15 UNL     1      22.688  -1.111  53.399  1.00  0.00     0.001 C 
HETATM   27  C16 UNL     1      21.993  -0.235  52.374  1.00  0.00     0.011 C 
HETATM   28  C17 UNL     1      21.752  -1.368  54.552  1.00  0.00     0.011 C 
ENDBRANCH  25  26
ENDBRANCH  24  25
ENDBRANCH   8  24
TORSDOF 7
ENDMDL
MODEL 5
REMARK VINA RESULT:      -7.7      2.492      6.394
REMARK  7 active torsions:
REMARK  status: ('A' for Active; 'I' for Inactive)
REMARK    1  A    between atoms: C2_2  and  N1_3 
REMARK    2  A    between atoms: C3_4  and  C4_5 
REMARK    3  A    between atoms: C8_9  and  O1_10 
REMARK    4  A    between atoms: O1_10  and  C9_11 
REMARK    5  A    between atoms: C13_18  and  O2_19 
REMARK    6  A    between atoms: O2_19  and  C14_20 
REMARK    7  A    between atoms: C14_20  and  C15_21 
ROOT
HETATM    1  C9  UNL     1      23.059   2.179  50.172  1.00  0.00     0.175 A 
HETATM    2  N2  UNL     1      22.190   1.279  50.385  1.00  0.00    -0.218 NA
HETATM    3  C10 UNL     1      21.110   1.014  49.459  1.00  0.00     0.257 A 
HETATM    4  N3  UNL     1      21.015   1.729  48.364  1.00  0.00    -0.165 NA
HETATM    5  N4  UNL     1      21.937   2.744  48.088  1.00  0.00    -0.265 N 
HETATM    6  C11 UNL     1      22.124   3.749  47.067  1.00  0.00     0.112 C 
HETATM    7  C12 UNL     1      22.670   4.818  47.688  1.00  0.00     0.026 C 
HETATM    8  C13 UNL     1      22.839   4.486  49.163  1.00  0.00     0.178 C 
HETATM    9  C18 UNL     1      23.068   3.008  48.993  1.00  0.00     0.219 A 
ENDROOT
BRANCH   1  10
HETATM   10  O1  UNL     1      23.950   2.221  51.199  1.00  0.00    -0.290 OA
BRANCH  10  11
HETATM   11  C8  UNL     1      24.306   1.250  52.087  1.00  0.00     0.117 A 
HETATM   12  C7  UNL     1      23.479   0.654  53.015  1.00  0.00     0.040 A 
HETATM   13  C6  UNL     1      23.836  -0.329  53.913  1.00  0.00     0.004 A 
HETATM   14  C5  UNL     1      25.146  -0.759  53.883  1.00  0.00     0.015 A 
HETATM   15  C4  UNL     1      26.025  -0.185  52.957  1.00  0.00     0.007 A 
HETATM   16  C19 UNL     1      25.611   0.797  52.080  1.00  0.00     0.160 A 
HETATM   17  F1  UNL     1      26.490   1.350  51.179  1.00  0.00    -0.202 F 
BRANCH  15  18
HETATM   18  C3  UNL     1      27.424  -0.582  52.850  1.00  0.00     0.038 C 
HETATM   19  C2  UNL     1      28.466  -0.197  53.566  1.00  0.00    -0.001 C 
HETATM   20  C1  UNL     1      29.908  -0.437  53.655  1.00  0.00     0.067 C 
BRANCH  19  21
HETATM   21  N1  UNL     1      28.104   0.744  54.581  1.00  0.00    -0.403 N 
HETATM   22  H4  UNL     1      27.996   0.872  55.632  1.00  0.00     0.156 HD
HETATM   23  H5  UNL     1      27.821   1.494  55.271  1.00  0.00     0.156 HD
ENDBRANCH  19  21
ENDBRANCH  15  18
ENDBRANCH  10  11
ENDBRANCH   1  10
BRANCH   8  24
HETATM   24  O2  UNL     1      23.866   5.165  49.747  1.00  0.00    -0.379 OA
BRANCH  24  25
HETATM   25  C14 UNL     1      24.784   5.730  48.870  1.00  0.00     0.172 C 
BRANCH  25  26
HETATM   26  C15 UNL     1      26.215   5.516  49.315  1.00  0.00     0.001 C 
HETATM   27  C16 UNL     1      27.183   6.254  48.410  1.00  0.00     0.011 C 
HETATM   28  C17 UNL     1      26.579   4.053  49.346  1.00  0.00     0.011 C 
ENDBRANCH  25  26
ENDBRANCH  24  25
ENDBRANCH   8  24
TORSDOF 7
ENDMDL
MODEL 6
REMARK VINA RESULT:      -7.5      2.244      7.659
REMARK  7 active torsions:
REMARK  status: ('A' for Active; 'I' for Inactive)
REMARK    1  A    between atoms: C2_2  and  N1_3 
REMARK    2  A    between atoms: C3_4  and  C4_5 
REMARK    3  A    between atoms: C8_9  and  O1_10 
REMARK    4  A    between atoms: O1_10  and  C9_11 
REMARK    5  A    between atoms: C13_18  and  O2_19 
REMARK    6  A    between atoms: O2_19  and  C14_20 
REMARK    7  A    between atoms: C14_20  and  C15_21 
ROOT
HETATM    1  C9  UNL     1      21.782   3.783  51.893  1.00  0.00     0.175 A 
HETATM    2  N2  UNL     1      21.560   4.834  51.217  1.00  0.00    -0.218 NA
HETATM    3  C10 UNL     1      20.285   5.089  50.582  1.00  0.00     0.257 A 
HETATM    4  N3  UNL     1      19.324   4.203  50.698  1.00  0.00    -0.165 NA
HETATM    5  N4  UNL     1      19.521   3.021  51.418  1.00  0.00    -0.265 N 
HETATM    6  C11 UNL     1      18.765   1.824  51.706  1.00  0.00     0.112 C 
HETATM    7  C12 UNL     1      19.665   0.818  51.775  1.00  0.00     0.026 C 
HETATM    8  C13 UNL     1      21.051   1.392  51.521  1.00  0.00     0.178 C 
HETATM    9  C18 UNL     1      20.795   2.755  52.106  1.00  0.00     0.219 A 
ENDROOT
BRANCH   1  10
HETATM   10  O1  UNL     1      23.057   3.794  52.368  1.00  0.00    -0.290 OA
BRANCH  10  11
HETATM   11  C8  UNL     1      24.223   3.451  51.751  1.00  0.00     0.117 A 
HETATM   12  C7  UNL     1      24.693   3.965  50.560  1.00  0.00     0.040 A 
HETATM   13  C6  UNL     1      25.872   3.621  49.933  1.00  0.00     0.004 A 
HETATM   14  C5  UNL     1      26.658   2.672  50.554  1.00  0.00     0.015 A 
HETATM   15  C4  UNL     1      26.223   2.122  51.765  1.00  0.00     0.007 A 
HETATM   16  C19 UNL     1      25.032   2.504  52.348  1.00  0.00     0.160 A 
HETATM   17  F1  UNL     1      24.622   1.951  53.538  1.00  0.00    -0.202 F 
BRANCH  15  18
HETATM   18  C3  UNL     1      26.991   1.118  52.493  1.00  0.00     0.038 C 
HETATM   19  C2  UNL     1      27.860   1.272  53.476  1.00  0.00    -0.001 C 
HETATM   20  C1  UNL     1      28.726   0.463  54.337  1.00  0.00     0.067 C 
BRANCH  19  21
HETATM   21  N1  UNL     1      28.026   2.647  53.837  1.00  0.00    -0.403 N 
HETATM   22  H4  UNL     1      28.432   3.296  54.576  1.00  0.00     0.156 HD
HETATM   23  H5  UNL     1      28.107   3.682  54.036  1.00  0.00     0.156 HD
ENDBRANCH  19  21
ENDBRANCH  15  18
ENDBRANCH  10  11
ENDBRANCH   1  10
BRANCH   8  24
HETATM   24  O2  UNL     1      22.041   0.680  52.130  1.00  0.00    -0.379 OA
BRANCH  24  25
HETATM   25  C14 UNL     1      21.858   0.441  53.486  1.00  0.00     0.172 C 
BRANCH  25  26
HETATM   26  C15 UNL     1      22.153  -0.996  53.863  1.00  0.00     0.001 C 
HETATM   27  C16 UNL     1      20.889  -1.718  54.288  1.00  0.00     0.011 C 
HETATM   28  C17 UNL     1      23.174  -1.087  54.969  1.00  0.00     0.011 C 
ENDBRANCH  25  26
ENDBRANCH  24  25
ENDBRANCH   8  24
TORSDOF 7
ENDMDL
MODEL 7
REMARK VINA RESULT:      -7.5      3.087      6.769
REMARK  7 active torsions:
REMARK  status: ('A' for Active; 'I' for Inactive)
REMARK    1  A    between atoms: C2_2  and  N1_3 
REMARK    2  A    between atoms: C3_4  and  C4_5 
REMARK    3  A    between atoms: C8_9  and  O1_10 
REMARK    4  A    between atoms: O1_10  and  C9_11 
REMARK    5  A    between atoms: C13_18  and  O2_19 
REMARK    6  A    between atoms: O2_19  and  C14_20 
REMARK    7  A    between atoms: C14_20  and  C15_21 
ROOT
HETATM    1  C9  UNL     1      24.059   3.114  50.931  1.00  0.00     0.175 A 
HETATM    2  N2  UNL     1      25.112   3.714  50.554  1.00  0.00    -0.218 NA
HETATM    3  C10 UNL     1      25.177   5.154  50.424  1.00  0.00     0.257 A 
HETATM    4  N3  UNL     1      24.112   5.869  50.696  1.00  0.00    -0.165 NA
HETATM    5  N4  UNL     1      22.921   5.258  51.100  1.00  0.00    -0.265 N 
HETATM    6  C11 UNL     1      21.574   5.677  51.412  1.00  0.00     0.112 C 
HETATM    7  C12 UNL     1      20.765   4.672  51.012  1.00  0.00     0.026 C 
HETATM    8  C13 UNL     1      21.626   3.565  50.421  1.00  0.00     0.178 C 
HETATM    9  C18 UNL     1      22.840   3.799  51.279  1.00  0.00     0.219 A 
ENDROOT
BRANCH   1  10
HETATM   10  O1  UNL     1      24.271   1.771  50.959  1.00  0.00    -0.290 OA
BRANCH  10  11
HETATM   11  C8  UNL     1      24.588   0.958  52.007  1.00  0.00     0.117 A 
HETATM   12  C7  UNL     1      23.734   0.563  53.016  1.00  0.00     0.040 A 
HETATM   13  C6  UNL     1      24.051  -0.259  54.076  1.00  0.00     0.004 A 
HETATM   14  C5  UNL     1      25.345  -0.733  54.136  1.00  0.00     0.015 A 
HETATM   15  C4  UNL     1      26.249  -0.360  53.135  1.00  0.00     0.007 A 
HETATM   16  C19 UNL     1      25.875   0.467  52.094  1.00  0.00     0.160 A 
HETATM   17  F1  UNL     1      26.779   0.822  51.120  1.00  0.00    -0.202 F 
BRANCH  15  18
HETATM   18  C3  UNL     1      27.634  -0.818  53.115  1.00  0.00     0.038 C 
HETATM   19  C2  UNL     1      28.691  -0.332  53.740  1.00  0.00    -0.001 C 
HETATM   20  C1  UNL     1      30.124  -0.597  53.880  1.00  0.00     0.067 C 
BRANCH  19  21
HETATM   21  N1  UNL     1      28.365   0.808  54.541  1.00  0.00    -0.403 N 
HETATM   22  H4  UNL     1      28.398   1.872  54.573  1.00  0.00     0.156 HD
HETATM   23  H5  UNL     1      28.097   1.599  55.191  1.00  0.00     0.156 HD
ENDBRANCH  19  21
ENDBRANCH  15  18
ENDBRANCH  10  11
ENDBRANCH   1  10
BRANCH   8  24
HETATM   24  O2  UNL     1      21.062   2.330  50.542  1.00  0.00    -0.379 OA
BRANCH  24  25
HETATM   25  C14 UNL     1      20.636   1.991  51.820  1.00  0.00     0.172 C 
BRANCH  25  26
HETATM   26  C15 UNL     1      20.218   0.539  51.923  1.00  0.00     0.001 C 
HETATM   27  C16 UNL     1      18.911   0.296  51.194  1.00  0.00     0.011 C 
HETATM   28  C17 UNL     1      20.079   0.096  53.357  1.00  0.00     0.011 C 
ENDBRANCH  25  26
ENDBRANCH  24  25
ENDBRANCH   8  24
TORSDOF 7
ENDMDL
MODEL 8
REMARK VINA RESULT:      -7.4      6.513      8.558
REMARK  7 active torsions:
REMARK  status: ('A' for Active; 'I' for Inactive)
REMARK    1  A    between atoms: C2_2  and  N1_3 
REMARK    2  A    between atoms: C3_4  and  C4_5 
REMARK    3  A    between atoms: C8_9  and  O1_10 
REMARK    4  A    between atoms: O1_10  and  C9_11 
REMARK    5  A    between atoms: C13_18  and  O2_19 
REMARK    6  A    between atoms: O2_19  and  C14_20 
REMARK    7  A    between atoms: C14_20  and  C15_21 
ROOT
HETATM    1  C9  UNL     1      29.313   7.551  48.275  1.00  0.00     0.175 A 
HETATM    2  N2  UNL     1      28.739   8.518  48.863  1.00  0.00    -0.218 NA
HETATM    3  C10 UNL     1      29.481   9.560  49.540  1.00  0.00     0.257 A 
HETATM    4  N3  UNL     1      30.792   9.505  49.557  1.00  0.00    -0.165 NA
HETATM    5  N4  UNL     1      31.474   8.453  48.939  1.00  0.00    -0.265 N 
HETATM    6  C11 UNL     1      32.846   8.022  48.802  1.00  0.00     0.112 C 
HETATM    7  C12 UNL     1      32.815   6.671  48.776  1.00  0.00     0.026 C 
HETATM    8  C13 UNL     1      31.368   6.219  48.900  1.00  0.00     0.178 C 
HETATM    9  C18 UNL     1      30.745   7.402  48.209  1.00  0.00     0.219 A 
ENDROOT
BRANCH   1  10
HETATM   10  O1  UNL     1      28.385   6.718  47.731  1.00  0.00    -0.290 OA
BRANCH  10  11
HETATM   11  C8  UNL     1      27.482   5.900  48.342  1.00  0.00     0.117 A 
HETATM   12  C7  UNL     1      27.717   4.614  48.781  1.00  0.00     0.040 A 
HETATM   13  C6  UNL     1      26.805   3.785  49.400  1.00  0.00     0.004 A 
HETATM   14  C5  UNL     1      25.536   4.287  49.600  1.00  0.00     0.015 A 
HETATM   15  C4  UNL     1      25.250   5.588  49.171  1.00  0.00     0.007 A 
HETATM   16  C19 UNL     1      26.203   6.375  48.557  1.00  0.00     0.160 A 
HETATM   17  F1  UNL     1      25.901   7.651  48.143  1.00  0.00    -0.202 F 
BRANCH  15  18
HETATM   18  C3  UNL     1      23.938   6.203  49.346  1.00  0.00     0.038 C 
HETATM   19  C2  UNL     1      23.436   6.835  50.393  1.00  0.00    -0.001 C 
HETATM   20  C1  UNL     1      22.204   7.511  50.802  1.00  0.00     0.067 C 
BRANCH  19  21
HETATM   21  N1  UNL     1      24.364   6.896  51.480  1.00  0.00    -0.403 N 
HETATM   22  H4  UNL     1      24.717   7.512  52.273  1.00  0.00     0.156 HD
HETATM   23  H5  UNL     1      25.076   6.866  52.262  1.00  0.00     0.156 HD
ENDBRANCH  19  21
ENDBRANCH  15  18
ENDBRANCH  10  11
ENDBRANCH   1  10
BRANCH   8  24
HETATM   24  O2  UNL     1      31.134   5.015  48.306  1.00  0.00    -0.379 OA
BRANCH  24  25
HETATM   25  C14 UNL     1      32.264   4.263  48.014  1.00  0.00     0.172 C 
BRANCH  25  26
HETATM   26  C15 UNL     1      32.111   3.462  46.738  1.00  0.00     0.001 C 
HETATM   27  C16 UNL     1      32.700   2.073  46.893  1.00  0.00     0.011 C 
HETATM   28  C17 UNL     1      32.759   4.149  45.563  1.00  0.00     0.011 C 
ENDBRANCH  25  26
ENDBRANCH  24  25
ENDBRANCH   8  24
TORSDOF 7
ENDMDL
MODEL 9
REMARK VINA RESULT:      -7.3      3.161      5.391
REMARK  7 active torsions:
REMARK  status: ('A' for Active; 'I' for Inactive)
REMARK    1  A    between atoms: C2_2  and  N1_3 
REMARK    2  A    between atoms: C3_4  and  C4_5 
REMARK    3  A    between atoms: C8_9  and  O1_10 
REMARK    4  A    between atoms: O1_10  and  C9_11 
REMARK    5  A    between atoms: C13_18  and  O2_19 
REMARK    6  A    between atoms: O2_19  and  C14_20 
REMARK    7  A    between atoms: C14_20  and  C15_21 
ROOT
HETATM    1  C9  UNL     1      23.974   4.833  51.232  1.00  0.00     0.175 A 
HETATM    2  N2  UNL     1      23.701   6.024  51.575  1.00  0.00    -0.218 NA
HETATM    3  C10 UNL     1      24.355   7.169  50.978  1.00  0.00     0.257 A 
HETATM    4  N3  UNL     1      25.267   6.976  50.055  1.00  0.00    -0.165 NA
HETATM    5  N4  UNL     1      25.617   5.684  49.652  1.00  0.00    -0.265 N 
HETATM    6  C11 UNL     1      26.578   5.084  48.755  1.00  0.00     0.112 C 
HETATM    7  C12 UNL     1      26.935   3.909  49.318  1.00  0.00     0.026 C 
HETATM    8  C13 UNL     1      26.176   3.750  50.627  1.00  0.00     0.178 C 
HETATM    9  C18 UNL     1      24.940   4.504  50.215  1.00  0.00     0.219 A 
ENDROOT
BRANCH   1  10
HETATM   10  O1  UNL     1      23.225   3.956  51.953  1.00  0.00    -0.290 OA
BRANCH  10  11
HETATM   11  C8  UNL     1      22.541   2.850  51.544  1.00  0.00     0.117 A 
HETATM   12  C7  UNL     1      21.717   2.765  50.442  1.00  0.00     0.040 A 
HETATM   13  C6  UNL     1      21.024   1.648  50.026  1.00  0.00     0.004 A 
HETATM   14  C5  UNL     1      21.169   0.504  50.782  1.00  0.00     0.015 A 
HETATM   15  C4  UNL     1      21.996   0.540  51.910  1.00  0.00     0.007 A 
HETATM   16  C19 UNL     1      22.666   1.688  52.280  1.00  0.00     0.160 A 
HETATM   17  F1  UNL     1      23.474   1.702  53.393  1.00  0.00    -0.202 F 
BRANCH  15  18
HETATM   18  C3  UNL     1      22.212  -0.623  52.764  1.00  0.00     0.038 C 
HETATM   19  C2  UNL     1      21.587  -0.984  53.871  1.00  0.00    -0.001 C 
HETATM   20  C1  UNL     1      21.612  -2.056  54.868  1.00  0.00     0.067 C 
BRANCH  19  21
HETATM   21  N1  UNL     1      20.555  -0.060  54.231  1.00  0.00    -0.403 N 
HETATM   22  H4  UNL     1      19.645   0.381  53.899  1.00  0.00     0.156 HD
HETATM   23  H5  UNL     1      19.833   0.637  54.567  1.00  0.00     0.156 HD
ENDBRANCH  19  21
ENDBRANCH  15  18
ENDBRANCH  10  11
ENDBRANCH   1  10
BRANCH   8  24
HETATM   24  O2  UNL     1      25.969   2.446  50.966  1.00  0.00    -0.379 OA
BRANCH  24  25
HETATM   25  C14 UNL     1      26.343   2.098  52.257  1.00  0.00     0.172 C 
BRANCH  25  26
HETATM   26  C15 UNL     1      27.147   0.815  52.300  1.00  0.00     0.001 C 
HETATM   27  C16 UNL     1      26.235  -0.396  52.357  1.00  0.00     0.011 C 
HETATM   28  C17 UNL     1      28.091   0.783  53.475  1.00  0.00     0.011 C 
ENDBRANCH  25  26
ENDBRANCH  24  25
ENDBRANCH   8  24
TORSDOF 7
ENDMDL
