MODEL 1
REMARK VINA RESULT:      -8.1      0.000      0.000
REMARK  0 active torsions:
REMARK  status: ('A' for Active; 'I' for Inactive)
ROOT
HETATM    1  C1  UNL     1      27.069  -0.887  53.088  1.00  0.00     0.043 C 
HETATM    2  C2  UNL     1      26.377   0.339  52.689  1.00  0.00    -0.082 C 
HETATM    3  C3  UNL     1      25.064   0.035  52.953  1.00  0.00     0.033 C 
HETATM    4  C4  UNL     1      23.970   1.046  52.690  1.00  0.00     0.044 C 
HETATM    5  C5  UNL     1      24.077   2.427  52.801  1.00  0.00     0.010 C 
HETATM    6  C6  UNL     1      24.466   2.816  51.434  1.00  0.00     0.025 C 
HETATM    7  C7  UNL     1      25.780   2.128  51.026  1.00  0.00     0.014 C 
HETATM    8  C8  UNL     1      26.715   1.721  52.109  1.00  0.00     0.034 C 
HETATM    9  C9  UNL     1      23.418   2.518  50.463  1.00  0.00     0.035 A 
HETATM   10  C10 UNL     1      23.067   3.079  49.297  1.00  0.00     0.069 A 
HETATM   11  C11 UNL     1      22.483   3.309  48.117  1.00  0.00    -0.003 A 
HETATM   12  C12 UNL     1      21.635   2.168  48.035  1.00  0.00    -0.004 A 
HETATM   13  C13 UNL     1      21.613   1.219  49.075  1.00  0.00     0.008 A 
HETATM   14  C14 UNL     1      22.464   1.569  50.037  1.00  0.00     0.099 A 
HETATM   15  N1  UNL     1      22.080   0.817  51.240  1.00  0.00    -0.302 N 
HETATM   16  C15 UNL     1      20.663   0.731  51.548  1.00  0.00     0.217 C 
HETATM   17  S1  UNL     1      20.430   2.102  52.772  1.00  0.00    -0.146 SA
HETATM   18  C16 UNL     1      21.008   3.699  52.029  1.00  0.00     0.049 C 
HETATM   19  C17 UNL     1      21.701   4.717  51.331  1.00  0.00     0.114 C 
HETATM   20  S2  UNL     1      23.250   4.677  50.271  1.00  0.00    -0.144 SA
HETATM   21  N2  UNL     1      22.822   0.203  52.268  1.00  0.00    -0.301 N 
HETATM   22  H18 UNL     1      22.705  -0.682  52.743  1.00  0.00     0.187 HD
ENDROOT
TORSDOF 0
ENDMDL
MODEL 2
REMARK VINA RESULT:      -7.2      1.916      3.453
REMARK  0 active torsions:
REMARK  status: ('A' for Active; 'I' for Inactive)
ROOT
HETATM    1  C1  UNL     1      26.402   0.266  55.317  1.00  0.00     0.043 C 
HETATM    2  C2  UNL     1      25.633   0.373  54.076  1.00  0.00    -0.082 C 
HETATM    3  C3  UNL     1      25.773   1.701  53.757  1.00  0.00     0.033 C 
HETATM    4  C4  UNL     1      25.130   2.267  52.511  1.00  0.00     0.044 C 
HETATM    5  C5  UNL     1      24.927   1.600  51.310  1.00  0.00     0.010 C 
HETATM    6  C6  UNL     1      23.576   1.040  51.492  1.00  0.00     0.025 C 
HETATM    7  C7  UNL     1      23.530   0.119  52.723  1.00  0.00     0.014 C 
HETATM    8  C8  UNL     1      24.799  -0.527  53.152  1.00  0.00     0.034 C 
HETATM    9  C9  UNL     1      22.564   2.086  51.607  1.00  0.00     0.035 A 
HETATM   10  C10 UNL     1      21.261   2.135  51.293  1.00  0.00     0.069 A 
HETATM   11  C11 UNL     1      19.990   2.532  51.183  1.00  0.00    -0.003 A 
HETATM   12  C12 UNL     1      20.059   3.774  51.876  1.00  0.00    -0.004 A 
HETATM   13  C13 UNL     1      21.279   4.222  52.419  1.00  0.00     0.008 A 
HETATM   14  C14 UNL     1      22.242   3.333  52.183  1.00  0.00     0.099 A 
HETATM   15  N1  UNL     1      23.521   4.034  52.366  1.00  0.00    -0.302 N 
HETATM   16  C15 UNL     1      23.638   5.368  51.803  1.00  0.00     0.217 C 
HETATM   17  S1  UNL     1      24.461   5.049  50.174  1.00  0.00    -0.146 SA
HETATM   18  C16 UNL     1      23.453   3.837  49.198  1.00  0.00     0.049 C 
HETATM   19  C17 UNL     1      22.640   2.761  48.765  1.00  0.00     0.114 C 
HETATM   20  S2  UNL     1      21.849   1.336  49.696  1.00  0.00    -0.144 SA
HETATM   21  N2  UNL     1      24.759   3.647  52.917  1.00  0.00    -0.301 N 
HETATM   22  H18 UNL     1      25.407   4.137  53.520  1.00  0.00     0.187 HD
ENDROOT
TORSDOF 0
ENDMDL
MODEL 3
REMARK VINA RESULT:      -6.8      9.750     11.932
REMARK  0 active torsions:
REMARK  status: ('A' for Active; 'I' for Inactive)
ROOT
HETATM    1  C1  UNL     1      27.624   7.768  47.778  1.00  0.00     0.043 C 
HETATM    2  C2  UNL     1      28.835   6.980  48.011  1.00  0.00    -0.082 C 
HETATM    3  C3  UNL     1      29.830   7.910  47.833  1.00  0.00     0.033 C 
HETATM    4  C4  UNL     1      31.283   7.524  47.990  1.00  0.00     0.044 C 
HETATM    5  C5  UNL     1      31.797   6.571  48.860  1.00  0.00     0.010 C 
HETATM    6  C6  UNL     1      31.787   5.356  48.028  1.00  0.00     0.025 C 
HETATM    7  C7  UNL     1      30.363   5.040  47.540  1.00  0.00     0.014 C 
HETATM    8  C8  UNL     1      29.225   5.536  48.360  1.00  0.00     0.034 C 
HETATM    9  C9  UNL     1      32.696   5.468  46.891  1.00  0.00     0.035 A 
HETATM   10  C10 UNL     1      33.397   4.565  46.190  1.00  0.00     0.069 A 
HETATM   11  C11 UNL     1      34.157   3.987  45.254  1.00  0.00    -0.003 A 
HETATM   12  C12 UNL     1      34.404   5.107  44.411  1.00  0.00    -0.004 A 
HETATM   13  C13 UNL     1      33.875   6.373  44.731  1.00  0.00     0.008 A 
HETATM   14  C14 UNL     1      33.165   6.304  45.856  1.00  0.00     0.099 A 
HETATM   15  N1  UNL     1      33.025   7.679  46.355  1.00  0.00    -0.302 N 
HETATM   16  C15 UNL     1      34.205   8.526  46.315  1.00  0.00     0.217 C 
HETATM   17  S1  UNL     1      34.883   8.358  48.031  1.00  0.00    -0.146 SA
HETATM   18  C16 UNL     1      35.177   6.566  48.407  1.00  0.00     0.049 C 
HETATM   19  C17 UNL     1      35.103   5.157  48.519  1.00  0.00     0.114 C 
HETATM   20  S2  UNL     1      33.839   3.915  47.898  1.00  0.00    -0.144 SA
HETATM   21  N2  UNL     1      31.971   8.372  46.982  1.00  0.00    -0.301 N 
HETATM   22  H18 UNL     1      31.621   9.313  46.860  1.00  0.00     0.187 HD
ENDROOT
TORSDOF 0
ENDMDL
MODEL 4
REMARK VINA RESULT:      -6.8      3.171      4.415
REMARK  0 active torsions:
REMARK  status: ('A' for Active; 'I' for Inactive)
ROOT
HETATM    1  C1  UNL     1      28.799   5.449  48.176  1.00  0.00     0.043 C 
HETATM    2  C2  UNL     1      27.442   5.877  48.517  1.00  0.00    -0.082 C 
HETATM    3  C3  UNL     1      26.949   4.785  49.188  1.00  0.00     0.033 C 
HETATM    4  C4  UNL     1      25.542   4.792  49.742  1.00  0.00     0.044 C 
HETATM    5  C5  UNL     1      24.852   5.892  50.235  1.00  0.00     0.010 C 
HETATM    6  C6  UNL     1      24.150   6.379  49.035  1.00  0.00     0.025 C 
HETATM    7  C7  UNL     1      25.153   6.729  47.922  1.00  0.00     0.014 C 
HETATM    8  C8  UNL     1      26.534   7.102  48.327  1.00  0.00     0.034 C 
HETATM    9  C9  UNL     1      23.172   5.412  48.546  1.00  0.00     0.035 A 
HETATM   10  C10 UNL     1      22.016   5.540  47.879  1.00  0.00     0.069 A 
HETATM   11  C11 UNL     1      20.904   5.266  47.189  1.00  0.00    -0.003 A 
HETATM   12  C12 UNL     1      21.010   3.849  47.104  1.00  0.00    -0.004 A 
HETATM   13  C13 UNL     1      22.098   3.177  47.694  1.00  0.00     0.008 A 
HETATM   14  C14 UNL     1      22.919   4.051  48.273  1.00  0.00     0.099 A 
HETATM   15  N1  UNL     1      23.753   3.290  49.216  1.00  0.00    -0.302 N 
HETATM   16  C15 UNL     1      23.090   2.292  50.037  1.00  0.00     0.217 C 
HETATM   17  S1  UNL     1      22.778   3.209  51.616  1.00  0.00    -0.146 SA
HETATM   18  C16 UNL     1      21.807   4.747  51.257  1.00  0.00     0.049 C 
HETATM   19  C17 UNL     1      21.271   5.934  50.702  1.00  0.00     0.114 C 
HETATM   20  S2  UNL     1      21.696   6.892  49.145  1.00  0.00    -0.144 SA
HETATM   21  N2  UNL     1      25.109   3.378  49.586  1.00  0.00    -0.301 N 
HETATM   22  H18 UNL     1      25.806   2.665  49.755  1.00  0.00     0.187 HD
ENDROOT
TORSDOF 0
ENDMDL
MODEL 5
REMARK VINA RESULT:      -6.7      2.690      5.829
REMARK  0 active torsions:
REMARK  status: ('A' for Active; 'I' for Inactive)
ROOT
HETATM    1  C1  UNL     1      21.307   3.939  44.950  1.00  0.00     0.043 C 
HETATM    2  C2  UNL     1      21.446   3.748  46.395  1.00  0.00    -0.082 C 
HETATM    3  C3  UNL     1      22.211   4.827  46.762  1.00  0.00     0.033 C 
HETATM    4  C4  UNL     1      22.602   5.039  48.208  1.00  0.00     0.044 C 
HETATM    5  C5  UNL     1      21.851   4.699  49.325  1.00  0.00     0.010 C 
HETATM    6  C6  UNL     1      22.334   3.339  49.619  1.00  0.00     0.025 C 
HETATM    7  C7  UNL     1      22.105   2.407  48.417  1.00  0.00     0.014 C 
HETATM    8  C8  UNL     1      21.005   2.750  47.476  1.00  0.00     0.034 C 
HETATM    9  C9  UNL     1      23.744   3.332  50.000  1.00  0.00     0.035 A 
HETATM   10  C10 UNL     1      24.472   2.531  50.791  1.00  0.00     0.069 A 
HETATM   11  C11 UNL     1      25.500   1.947  51.415  1.00  0.00    -0.003 A 
HETATM   12  C12 UNL     1      26.579   2.699  50.871  1.00  0.00    -0.004 A 
HETATM   13  C13 UNL     1      26.334   3.736  49.950  1.00  0.00     0.008 A 
HETATM   14  C14 UNL     1      25.027   3.843  49.714  1.00  0.00     0.099 A 
HETATM   15  N1  UNL     1      24.809   5.172  49.125  1.00  0.00    -0.302 N 
HETATM   16  C15 UNL     1      25.512   6.292  49.726  1.00  0.00     0.217 C 
HETATM   17  S1  UNL     1      24.243   6.994  50.879  1.00  0.00    -0.146 SA
HETATM   18  C16 UNL     1      23.667   5.672  52.044  1.00  0.00     0.049 C 
HETATM   19  C17 UNL     1      23.248   4.463  52.648  1.00  0.00     0.114 C 
HETATM   20  S2  UNL     1      23.013   2.732  51.958  1.00  0.00    -0.144 SA
HETATM   21  N2  UNL     1      23.956   5.644  48.108  1.00  0.00    -0.301 N 
HETATM   22  H18 UNL     1      24.110   6.300  47.354  1.00  0.00     0.187 HD
ENDROOT
TORSDOF 0
ENDMDL
MODEL 6
REMARK VINA RESULT:      -6.7      8.844     10.652
REMARK  0 active torsions:
REMARK  status: ('A' for Active; 'I' for Inactive)
ROOT
HETATM    1  C1  UNL     1      25.467   5.681  49.145  1.00  0.00     0.043 C 
HETATM    2  C2  UNL     1      26.222   6.606  48.299  1.00  0.00    -0.082 C 
HETATM    3  C3  UNL     1      27.522   6.294  48.609  1.00  0.00     0.033 C 
HETATM    4  C4  UNL     1      28.669   7.019  47.942  1.00  0.00     0.044 C 
HETATM    5  C5  UNL     1      28.690   7.520  46.647  1.00  0.00     0.010 C 
HETATM    6  C6  UNL     1      28.214   8.900  46.843  1.00  0.00     0.025 C 
HETATM    7  C7  UNL     1      26.816   8.909  47.483  1.00  0.00     0.014 C 
HETATM    8  C8  UNL     1      25.951   7.717  47.273  1.00  0.00     0.034 C 
HETATM    9  C9  UNL     1      29.142   9.688  47.649  1.00  0.00     0.035 A 
HETATM   10  C10 UNL     1      29.434  10.996  47.689  1.00  0.00     0.069 A 
HETATM   11  C11 UNL     1      29.927  12.182  48.058  1.00  0.00    -0.003 A 
HETATM   12  C12 UNL     1      30.664  11.794  49.213  1.00  0.00    -0.004 A 
HETATM   13  C13 UNL     1      30.700  10.445  49.617  1.00  0.00     0.008 A 
HETATM   14  C14 UNL     1      29.971   9.697  48.791  1.00  0.00     0.099 A 
HETATM   15  N1  UNL     1      30.396   8.305  48.990  1.00  0.00    -0.302 N 
HETATM   16  C15 UNL     1      31.823   8.052  49.098  1.00  0.00     0.217 C 
HETATM   17  S1  UNL     1      32.279   7.563  47.370  1.00  0.00    -0.146 SA
HETATM   18  C16 UNL     1      31.774   8.904  46.194  1.00  0.00     0.049 C 
HETATM   19  C17 UNL     1      31.110   9.947  45.504  1.00  0.00     0.114 C 
HETATM   20  S2  UNL     1      29.474  10.814  45.818  1.00  0.00    -0.144 SA
HETATM   21  N2  UNL     1      29.700   7.080  49.012  1.00  0.00    -0.301 N 
HETATM   22  H18 UNL     1      29.784   6.271  49.613  1.00  0.00     0.187 HD
ENDROOT
TORSDOF 0
ENDMDL
MODEL 7
REMARK VINA RESULT:      -6.6      1.621      2.095
REMARK  0 active torsions:
REMARK  status: ('A' for Active; 'I' for Inactive)
ROOT
HETATM    1  C1  UNL     1      23.100  -1.661  54.830  1.00  0.00     0.043 C 
HETATM    2  C2  UNL     1      23.261  -0.415  54.080  1.00  0.00    -0.082 C 
HETATM    3  C3  UNL     1      21.962  -0.074  53.793  1.00  0.00     0.033 C 
HETATM    4  C4  UNL     1      21.649   1.184  53.015  1.00  0.00     0.044 C 
HETATM    5  C5  UNL     1      22.362   2.376  53.048  1.00  0.00     0.010 C 
HETATM    6  C6  UNL     1      23.320   2.192  51.945  1.00  0.00     0.025 C 
HETATM    7  C7  UNL     1      24.191   0.946  52.181  1.00  0.00     0.014 C 
HETATM    8  C8  UNL     1      24.393   0.499  53.586  1.00  0.00     0.034 C 
HETATM    9  C9  UNL     1      22.650   2.099  50.651  1.00  0.00     0.035 A 
HETATM   10  C10 UNL     1      23.024   2.422  49.404  1.00  0.00     0.069 A 
HETATM   11  C11 UNL     1      23.054   2.546  48.074  1.00  0.00    -0.003 A 
HETATM   12  C12 UNL     1      21.845   1.873  47.736  1.00  0.00    -0.004 A 
HETATM   13  C13 UNL     1      21.024   1.331  48.744  1.00  0.00     0.008 A 
HETATM   14  C14 UNL     1      21.563   1.547  49.942  1.00  0.00     0.099 A 
HETATM   15  N1  UNL     1      20.488   1.368  50.929  1.00  0.00    -0.302 N 
HETATM   16  C15 UNL     1      19.195   1.953  50.621  1.00  0.00     0.217 C 
HETATM   17  S1  UNL     1      19.257   3.572  51.520  1.00  0.00    -0.146 SA
HETATM   18  C16 UNL     1      20.741   4.532  50.961  1.00  0.00     0.049 C 
HETATM   19  C17 UNL     1      22.026   4.952  50.539  1.00  0.00     0.114 C 
HETATM   20  S2  UNL     1      23.616   4.002  50.232  1.00  0.00    -0.144 SA
HETATM   21  N2  UNL     1      20.453   0.803  52.220  1.00  0.00    -0.301 N 
HETATM   22  H18 UNL     1      19.774   0.205  52.672  1.00  0.00     0.187 HD
ENDROOT
TORSDOF 0
ENDMDL
MODEL 8
REMARK VINA RESULT:      -6.4     11.065     13.218
REMARK  0 active torsions:
REMARK  status: ('A' for Active; 'I' for Inactive)
ROOT
HETATM    1  C1  UNL     1      35.813   7.664  41.633  1.00  0.00     0.043 C 
HETATM    2  C2  UNL     1      34.935   6.832  42.458  1.00  0.00    -0.082 C 
HETATM    3  C3  UNL     1      34.647   7.663  43.512  1.00  0.00     0.033 C 
HETATM    4  C4  UNL     1      33.740   7.202  44.631  1.00  0.00     0.044 C 
HETATM    5  C5  UNL     1      32.663   6.334  44.518  1.00  0.00     0.010 C 
HETATM    6  C6  UNL     1      33.291   5.027  44.780  1.00  0.00     0.025 C 
HETATM    7  C7  UNL     1      34.414   4.750  43.767  1.00  0.00     0.014 C 
HETATM    8  C8  UNL     1      34.332   5.419  42.441  1.00  0.00     0.034 C 
HETATM    9  C9  UNL     1      33.807   4.935  46.142  1.00  0.00     0.035 A 
HETATM   10  C10 UNL     1      33.982   3.906  46.985  1.00  0.00     0.069 A 
HETATM   11  C11 UNL     1      34.351   3.167  48.035  1.00  0.00    -0.003 A 
HETATM   12  C12 UNL     1      35.028   4.153  48.806  1.00  0.00    -0.004 A 
HETATM   13  C13 UNL     1      35.118   5.482  48.346  1.00  0.00     0.008 A 
HETATM   14  C14 UNL     1      34.514   5.602  47.165  1.00  0.00     0.099 A 
HETATM   15  N1  UNL     1      34.259   7.035  46.962  1.00  0.00    -0.302 N 
HETATM   16  C15 UNL     1      33.751   7.789  48.095  1.00  0.00     0.217 C 
HETATM   17  S1  UNL     1      31.923   7.791  47.794  1.00  0.00    -0.146 SA
HETATM   18  C16 UNL     1      31.320   6.045  47.640  1.00  0.00     0.049 C 
HETATM   19  C17 UNL     1      31.159   4.668  47.349  1.00  0.00     0.114 C 
HETATM   20  S2  UNL     1      32.246   3.447  46.427  1.00  0.00    -0.144 SA
HETATM   21  N2  UNL     1      34.313   7.870  45.829  1.00  0.00    -0.301 N 
HETATM   22  H18 UNL     1      34.665   8.810  45.705  1.00  0.00     0.187 HD
ENDROOT
TORSDOF 0
ENDMDL
MODEL 9
REMARK VINA RESULT:      -6.4      2.788      4.742
REMARK  0 active torsions:
REMARK  status: ('A' for Active; 'I' for Inactive)
ROOT
HETATM    1  C1  UNL     1      23.259   0.637  52.940  1.00  0.00     0.043 C 
HETATM    2  C2  UNL     1      23.083   1.427  51.721  1.00  0.00    -0.082 C 
HETATM    3  C3  UNL     1      23.882   2.518  51.959  1.00  0.00     0.033 C 
HETATM    4  C4  UNL     1      24.011   3.619  50.931  1.00  0.00     0.044 C 
HETATM    5  C5  UNL     1      23.959   3.472  49.551  1.00  0.00     0.010 C 
HETATM    6  C6  UNL     1      22.527   3.675  49.273  1.00  0.00     0.025 C 
HETATM    7  C7  UNL     1      21.673   2.646  50.034  1.00  0.00     0.014 C 
HETATM    8  C8  UNL     1      22.309   1.352  50.396  1.00  0.00     0.034 C 
HETATM    9  C9  UNL     1      22.095   5.030  49.601  1.00  0.00     0.035 A 
HETATM   10  C10 UNL     1      21.134   5.826  49.111  1.00  0.00     0.069 A 
HETATM   11  C11 UNL     1      20.281   6.842  48.943  1.00  0.00    -0.003 A 
HETATM   12  C12 UNL     1      20.641   7.652  50.057  1.00  0.00    -0.004 A 
HETATM   13  C13 UNL     1      21.671   7.250  50.930  1.00  0.00     0.008 A 
HETATM   14  C14 UNL     1      22.171   6.078  50.542  1.00  0.00     0.099 A 
HETATM   15  N1  UNL     1      23.481   5.939  51.195  1.00  0.00    -0.302 N 
HETATM   16  C15 UNL     1      24.346   7.106  51.209  1.00  0.00     0.217 C 
HETATM   17  S1  UNL     1      25.447   6.812  49.748  1.00  0.00    -0.146 SA
HETATM   18  C16 UNL     1      24.411   6.584  48.229  1.00  0.00     0.049 C 
HETATM   19  C17 UNL     1      23.413   6.233  47.287  1.00  0.00     0.114 C 
HETATM   20  S2  UNL     1      21.819   5.255  47.456  1.00  0.00    -0.144 SA
HETATM   21  N2  UNL     1      24.161   4.843  51.761  1.00  0.00    -0.301 N 
HETATM   22  H18 UNL     1      24.710   4.758  52.606  1.00  0.00     0.187 HD
ENDROOT
TORSDOF 0
ENDMDL
