MODEL 1
REMARK VINA RESULT:      -8.6      0.000      0.000
REMARK  1 active torsions:
REMARK  status: ('A' for Active; 'I' for Inactive)
REMARK    1  A    between atoms: C3_4  and  N2_5 
ROOT
HETATM    1  N2  UNL     1      28.335   0.831  53.397  1.00  0.00    -0.365 N 
HETATM    2  C4  UNL     1      29.046  -0.422  53.348  1.00  0.00     0.151 C 
HETATM    3  C5  UNL     1      29.076   1.688  54.288  1.00  0.00     0.472 C 
HETATM    4  O1  UNL     1      29.791   2.383  55.093  1.00  0.00    -0.392 OA
ENDROOT
BRANCH   1   5
HETATM    5  C3  UNL     1      27.376   1.908  53.195  1.00  0.00     0.128 C 
HETATM    6  C2  UNL     1      26.282   1.734  54.235  1.00  0.00     0.173 C 
HETATM    7  N1  UNL     1      25.579   0.498  54.098  1.00  0.00    -0.306 N 
HETATM    8  C1  UNL     1      25.610  -0.923  54.357  1.00  0.00     0.173 C 
HETATM    9  N6  UNL     1      24.456   0.529  53.279  1.00  0.00    -0.162 NA
HETATM   10  C16 UNL     1      24.265   1.615  52.622  1.00  0.00     0.142 C 
HETATM   11  N5  UNL     1      23.144   0.824  52.173  1.00  0.00    -0.341 N 
HETATM   12  C17 UNL     1      24.585   3.000  52.164  1.00  0.00     0.204 C 
HETATM   13  C15 UNL     1      21.749   0.579  52.048  1.00  0.00     0.041 A 
HETATM   14  H20 UNL     1      23.192  -0.108  51.610  1.00  0.00     0.167 HD
HETATM   15  C10 UNL     1      21.166   1.081  50.852  1.00  0.00    -0.012 A 
HETATM   16  C14 UNL     1      20.992  -0.033  52.975  1.00  0.00     0.030 A 
HETATM   17  C9  UNL     1      21.933   1.754  49.744  1.00  0.00     0.186 C 
HETATM   18  C11 UNL     1      19.812   0.910  50.702  1.00  0.00     0.011 A 
HETATM   19  N4  UNL     1      23.245   2.158  50.199  1.00  0.00    -0.296 NA
HETATM   20  C8  UNL     1      23.867   3.221  49.830  1.00  0.00     0.246 C 
HETATM   21  N3  UNL     1      24.859   2.736  50.709  1.00  0.00    -0.358 N 
HETATM   22  C7  UNL     1      26.084   2.022  50.828  1.00  0.00     0.086 C 
HETATM   23  C6  UNL     1      26.904   1.799  51.803  1.00  0.00     0.017 C 
HETATM   24  C12 UNL     1      19.129   0.275  51.708  1.00  0.00     0.001 A 
HETATM   25  C13 UNL     1      19.635  -0.232  52.881  1.00  0.00     0.002 A 
ENDBRANCH   1   5
TORSDOF 1
ENDMDL
MODEL 2
REMARK VINA RESULT:      -8.2      1.592      3.473
REMARK  1 active torsions:
REMARK  status: ('A' for Active; 'I' for Inactive)
REMARK    1  A    between atoms: C3_4  and  N2_5 
ROOT
HETATM    1  N2  UNL     1      28.398   1.111  53.698  1.00  0.00    -0.365 N 
HETATM    2  C4  UNL     1      28.897   2.462  53.765  1.00  0.00     0.151 C 
HETATM    3  C5  UNL     1      29.551   0.254  53.589  1.00  0.00     0.472 C 
HETATM    4  O1  UNL     1      30.627  -0.436  53.493  1.00  0.00    -0.392 OA
ENDROOT
BRANCH   1   5
HETATM    5  C3  UNL     1      27.545  -0.069  53.660  1.00  0.00     0.128 C 
HETATM    6  C2  UNL     1      26.996  -0.178  52.248  1.00  0.00     0.173 C 
HETATM    7  N1  UNL     1      26.196   0.946  51.876  1.00  0.00    -0.306 N 
HETATM    8  C1  UNL     1      26.209   2.318  51.422  1.00  0.00     0.173 C 
HETATM    9  N6  UNL     1      24.838   0.837  52.150  1.00  0.00    -0.162 NA
HETATM   10  C16 UNL     1      24.479  -0.184  52.838  1.00  0.00     0.142 C 
HETATM   11  N5  UNL     1      23.209   0.474  52.646  1.00  0.00    -0.341 N 
HETATM   12  C17 UNL     1      24.691  -1.446  53.609  1.00  0.00     0.204 C 
HETATM   13  C15 UNL     1      21.880   0.519  52.140  1.00  0.00     0.041 A 
HETATM   14  H20 UNL     1      22.927   1.460  53.016  1.00  0.00     0.167 HD
HETATM   15  C10 UNL     1      20.886   0.071  53.052  1.00  0.00    -0.012 A 
HETATM   16  C14 UNL     1      21.546   0.903  50.896  1.00  0.00     0.030 A 
HETATM   17  C9  UNL     1      21.157  -0.351  54.473  1.00  0.00     0.186 C 
HETATM   18  C11 UNL     1      19.590   0.052  52.598  1.00  0.00     0.011 A 
HETATM   19  N4  UNL     1      22.566  -0.601  54.675  1.00  0.00    -0.296 NA
HETATM   20  C8  UNL     1      23.060  -1.511  55.438  1.00  0.00     0.246 C 
HETATM   21  N3  UNL     1      24.287  -0.983  54.981  1.00  0.00    -0.358 N 
HETATM   22  C7  UNL     1      25.375  -0.110  55.264  1.00  0.00     0.086 C 
HETATM   23  C6  UNL     1      26.512   0.123  54.693  1.00  0.00     0.017 C 
HETATM   24  C12 UNL     1      19.355   0.462  51.311  1.00  0.00     0.001 A 
HETATM   25  C13 UNL     1      20.269   0.904  50.386  1.00  0.00     0.002 A 
ENDBRANCH   1   5
TORSDOF 1
ENDMDL
MODEL 3
REMARK VINA RESULT:      -7.9      3.007      6.749
REMARK  1 active torsions:
REMARK  status: ('A' for Active; 'I' for Inactive)
REMARK    1  A    between atoms: C3_4  and  N2_5 
ROOT
HETATM    1  N2  UNL     1      22.099   4.051  49.149  1.00  0.00    -0.365 N 
HETATM    2  C4  UNL     1      22.400   4.179  47.745  1.00  0.00     0.151 C 
HETATM    3  C5  UNL     1      21.126   5.069  49.453  1.00  0.00     0.472 C 
HETATM    4  O1  UNL     1      20.265   6.000  49.639  1.00  0.00    -0.392 OA
ENDROOT
BRANCH   1   5
HETATM    5  C3  UNL     1      22.057   3.627  50.542  1.00  0.00     0.128 C 
HETATM    6  C2  UNL     1      23.078   4.462  51.295  1.00  0.00     0.173 C 
HETATM    7  N1  UNL     1      24.412   4.264  50.823  1.00  0.00    -0.306 N 
HETATM    8  C1  UNL     1      25.372   4.596  49.795  1.00  0.00     0.173 C 
HETATM    9  N6  UNL     1      25.133   3.258  51.454  1.00  0.00    -0.162 NA
HETATM   10  C16 UNL     1      24.478   2.524  52.277  1.00  0.00     0.142 C 
HETATM   11  N5  UNL     1      25.787   1.922  52.359  1.00  0.00    -0.341 N 
HETATM   12  C17 UNL     1      23.266   2.060  53.016  1.00  0.00     0.204 C 
HETATM   13  C15 UNL     1      26.963   1.563  53.074  1.00  0.00     0.041 A 
HETATM   14  H20 UNL     1      26.325   1.425  51.551  1.00  0.00     0.167 HD
HETATM   15  C10 UNL     1      26.935   0.258  53.639  1.00  0.00    -0.012 A 
HETATM   16  C14 UNL     1      28.021   2.369  53.265  1.00  0.00     0.030 A 
HETATM   17  C9  UNL     1      25.810  -0.728  53.458  1.00  0.00     0.186 C 
HETATM   18  C11 UNL     1      28.027  -0.123  54.378  1.00  0.00     0.011 A 
HETATM   19  N4  UNL     1      24.622  -0.068  52.966  1.00  0.00    -0.296 NA
HETATM   20  C8  UNL     1      23.414  -0.373  53.284  1.00  0.00     0.246 C 
HETATM   21  N3  UNL     1      23.100   0.693  52.414  1.00  0.00    -0.358 N 
HETATM   22  C7  UNL     1      22.694   1.065  51.101  1.00  0.00     0.086 C 
HETATM   23  C6  UNL     1      22.339   2.181  50.552  1.00  0.00     0.017 C 
HETATM   24  C12 UNL     1      29.054   0.776  54.516  1.00  0.00     0.001 A 
HETATM   25  C13 UNL     1      29.140   2.044  53.995  1.00  0.00     0.002 A 
ENDBRANCH   1   5
TORSDOF 1
ENDMDL
MODEL 4
REMARK VINA RESULT:      -7.9      8.158     11.215
REMARK  1 active torsions:
REMARK  status: ('A' for Active; 'I' for Inactive)
REMARK    1  A    between atoms: C3_4  and  N2_5 
ROOT
HETATM    1  N2  UNL     1      27.636   8.829  49.156  1.00  0.00    -0.365 N 
HETATM    2  C4  UNL     1      26.611   8.317  50.031  1.00  0.00     0.151 C 
HETATM    3  C5  UNL     1      27.378  10.239  49.005  1.00  0.00     0.472 C 
HETATM    4  O1  UNL     1      27.078  11.482  48.923  1.00  0.00    -0.392 OA
ENDROOT
BRANCH   1   5
HETATM    5  C3  UNL     1      28.789   8.969  48.278  1.00  0.00     0.128 C 
HETATM    6  C2  UNL     1      28.681   7.882  47.222  1.00  0.00     0.173 C 
HETATM    7  N1  UNL     1      28.716   6.566  47.775  1.00  0.00    -0.306 N 
HETATM    8  C1  UNL     1      27.957   5.539  48.452  1.00  0.00     0.173 C 
HETATM    9  N6  UNL     1      29.977   5.991  47.886  1.00  0.00    -0.162 NA
HETATM   10  C16 UNL     1      30.972   6.756  47.625  1.00  0.00     0.142 C 
HETATM   11  N5  UNL     1      31.654   5.531  47.967  1.00  0.00    -0.341 N 
HETATM   12  C17 UNL     1      31.638   8.039  47.248  1.00  0.00     0.204 C 
HETATM   13  C15 UNL     1      32.498   4.431  47.649  1.00  0.00     0.041 A 
HETATM   14  H20 UNL     1      31.639   5.029  48.934  1.00  0.00     0.167 HD
HETATM   15  C10 UNL     1      33.871   4.633  47.957  1.00  0.00    -0.012 A 
HETATM   16  C14 UNL     1      32.087   3.292  47.065  1.00  0.00     0.030 A 
HETATM   17  C9  UNL     1      34.424   5.859  48.635  1.00  0.00     0.186 C 
HETATM   18  C11 UNL     1      34.737   3.619  47.628  1.00  0.00     0.011 A 
HETATM   19  N4  UNL     1      33.469   6.944  48.595  1.00  0.00    -0.296 NA
HETATM   20  C8  UNL     1      33.761   8.189  48.466  1.00  0.00     0.246 C 
HETATM   21  N3  UNL     1      32.359   8.345  48.531  1.00  0.00    -0.358 N 
HETATM   22  C7  UNL     1      31.243   8.658  49.357  1.00  0.00     0.086 C 
HETATM   23  C6  UNL     1      29.986   8.860  49.131  1.00  0.00     0.017 C 
HETATM   24  C12 UNL     1      34.217   2.498  47.033  1.00  0.00     0.001 A 
HETATM   25  C13 UNL     1      32.906   2.245  46.713  1.00  0.00     0.002 A 
ENDBRANCH   1   5
TORSDOF 1
ENDMDL
MODEL 5
REMARK VINA RESULT:      -7.4      2.986      4.893
REMARK  1 active torsions:
REMARK  status: ('A' for Active; 'I' for Inactive)
REMARK    1  A    between atoms: C3_4  and  N2_5 
ROOT
HETATM    1  N2  UNL     1      24.220   5.383  50.885  1.00  0.00    -0.365 N 
HETATM    2  C4  UNL     1      23.831   6.721  51.256  1.00  0.00     0.151 C 
HETATM    3  C5  UNL     1      25.212   5.518  49.850  1.00  0.00     0.472 C 
HETATM    4  O1  UNL     1      26.084   5.725  48.934  1.00  0.00    -0.392 OA
ENDROOT
BRANCH   1   5
HETATM    5  C3  UNL     1      24.348   3.935  50.790  1.00  0.00     0.128 C 
HETATM    6  C2  UNL     1      23.251   3.450  49.857  1.00  0.00     0.173 C 
HETATM    7  N1  UNL     1      21.941   3.736  50.348  1.00  0.00    -0.306 N 
HETATM    8  C1  UNL     1      20.922   4.749  50.500  1.00  0.00     0.173 C 
HETATM    9  N6  UNL     1      21.364   2.750  51.141  1.00  0.00    -0.162 NA
HETATM   10  C16 UNL     1      22.125   1.770  51.467  1.00  0.00     0.142 C 
HETATM   11  N5  UNL     1      20.902   1.400  52.138  1.00  0.00    -0.341 N 
HETATM   12  C17 UNL     1      23.403   0.998  51.512  1.00  0.00     0.204 C 
HETATM   13  C15 UNL     1      19.797   0.528  52.348  1.00  0.00     0.041 A 
HETATM   14  H20 UNL     1      20.409   1.950  52.940  1.00  0.00     0.167 HD
HETATM   15  C10 UNL     1      20.000  -0.448  53.361  1.00  0.00    -0.012 A 
HETATM   16  C14 UNL     1      18.653   0.557  51.643  1.00  0.00     0.030 A 
HETATM   17  C9  UNL     1      21.232  -0.543  54.223  1.00  0.00     0.186 C 
HETATM   18  C11 UNL     1      18.981  -1.343  53.574  1.00  0.00     0.011 A 
HETATM   19  N4  UNL     1      22.318   0.224  53.654  1.00  0.00    -0.296 NA
HETATM   20  C8  UNL     1      23.561  -0.099  53.699  1.00  0.00     0.246 C 
HETATM   21  N3  UNL     1      23.720   1.104  52.977  1.00  0.00    -0.358 N 
HETATM   22  C7  UNL     1      24.044   2.488  53.047  1.00  0.00     0.086 C 
HETATM   23  C6  UNL     1      24.246   3.410  52.162  1.00  0.00     0.017 C 
HETATM   24  C12 UNL     1      17.855  -1.231  52.798  1.00  0.00     0.001 A 
HETATM   25  C13 UNL     1      17.601  -0.313  51.809  1.00  0.00     0.002 A 
ENDBRANCH   1   5
TORSDOF 1
ENDMDL
MODEL 6
REMARK VINA RESULT:      -7.3      7.038     10.331
REMARK  1 active torsions:
REMARK  status: ('A' for Active; 'I' for Inactive)
REMARK    1  A    between atoms: C3_4  and  N2_5 
ROOT
HETATM    1  N2  UNL     1      24.340   8.114  49.889  1.00  0.00    -0.365 N 
HETATM    2  C4  UNL     1      23.658   7.361  50.912  1.00  0.00     0.151 C 
HETATM    3  C5  UNL     1      23.317   8.699  49.061  1.00  0.00     0.472 C 
HETATM    4  O1  UNL     1      22.346   9.179  48.374  1.00  0.00    -0.392 OA
ENDROOT
BRANCH   1   5
HETATM    5  C3  UNL     1      25.349   8.743  49.049  1.00  0.00     0.128 C 
HETATM    6  C2  UNL     1      25.709   7.747  47.960  1.00  0.00     0.173 C 
HETATM    7  N1  UNL     1      26.270   6.540  48.478  1.00  0.00    -0.306 N 
HETATM    8  C1  UNL     1      25.986   5.268  49.104  1.00  0.00     0.173 C 
HETATM    9  N6  UNL     1      27.654   6.524  48.609  1.00  0.00    -0.162 NA
HETATM   10  C16 UNL     1      28.254   7.637  48.397  1.00  0.00     0.142 C 
HETATM   11  N5  UNL     1      29.372   6.783  48.725  1.00  0.00    -0.341 N 
HETATM   12  C17 UNL     1      28.345   9.093  48.075  1.00  0.00     0.204 C 
HETATM   13  C15 UNL     1      30.595   6.135  48.401  1.00  0.00     0.041 A 
HETATM   14  H20 UNL     1      29.548   6.284  49.677  1.00  0.00     0.167 HD
HETATM   15  C10 UNL     1      31.762   6.867  48.753  1.00  0.00    -0.012 A 
HETATM   16  C14 UNL     1      30.693   4.950  47.775  1.00  0.00     0.030 A 
HETATM   17  C9  UNL     1      31.757   8.187  49.480  1.00  0.00     0.186 C 
HETATM   18  C11 UNL     1      32.971   6.306  48.422  1.00  0.00     0.011 A 
HETATM   19  N4  UNL     1      30.443   8.789  49.443  1.00  0.00    -0.296 NA
HETATM   20  C8  UNL     1      30.203  10.049  49.357  1.00  0.00     0.246 C 
HETATM   21  N3  UNL     1      28.859   9.618  49.386  1.00  0.00    -0.358 N 
HETATM   22  C7  UNL     1      27.700   9.420  50.188  1.00  0.00     0.086 C 
HETATM   23  C6  UNL     1      26.473   9.100  49.932  1.00  0.00     0.017 C 
HETATM   24  C12 UNL     1      32.962   5.094  47.782  1.00  0.00     0.001 A 
HETATM   25  C13 UNL     1      31.873   4.340  47.418  1.00  0.00     0.002 A 
ENDBRANCH   1   5
TORSDOF 1
ENDMDL
MODEL 7
REMARK VINA RESULT:      -7.2      3.919      7.767
REMARK  1 active torsions:
REMARK  status: ('A' for Active; 'I' for Inactive)
REMARK    1  A    between atoms: C3_4  and  N2_5 
ROOT
HETATM    1  N2  UNL     1      19.139   2.901  50.354  1.00  0.00    -0.365 N 
HETATM    2  C4  UNL     1      18.316   2.503  49.240  1.00  0.00     0.151 C 
HETATM    3  C5  UNL     1      18.245   3.416  51.360  1.00  0.00     0.472 C 
HETATM    4  O1  UNL     1      17.383   3.858  52.199  1.00  0.00    -0.392 OA
ENDROOT
BRANCH   1   5
HETATM    5  C3  UNL     1      20.260   3.172  51.243  1.00  0.00     0.128 C 
HETATM    6  C2  UNL     1      20.617   4.640  51.079  1.00  0.00     0.173 C 
HETATM    7  N1  UNL     1      21.031   4.963  49.751  1.00  0.00    -0.306 N 
HETATM    8  C1  UNL     1      20.592   5.248  48.403  1.00  0.00     0.173 C 
HETATM    9  N6  UNL     1      22.394   4.857  49.500  1.00  0.00    -0.162 NA
HETATM   10  C16 UNL     1      23.102   4.338  50.435  1.00  0.00     0.142 C 
HETATM   11  N5  UNL     1      24.114   4.591  49.437  1.00  0.00    -0.341 N 
HETATM   12  C17 UNL     1      23.341   3.702  51.765  1.00  0.00     0.204 C 
HETATM   13  C15 UNL     1      25.299   5.233  48.983  1.00  0.00     0.041 A 
HETATM   14  H20 UNL     1      24.173   4.142  48.446  1.00  0.00     0.167 HD
HETATM   15  C10 UNL     1      26.493   4.496  49.211  1.00  0.00    -0.012 A 
HETATM   16  C14 UNL     1      25.343   6.452  48.419  1.00  0.00     0.030 A 
HETATM   17  C9  UNL     1      26.544   3.114  49.808  1.00  0.00     0.186 C 
HETATM   18  C11 UNL     1      27.671   5.091  48.832  1.00  0.00     0.011 A 
HETATM   19  N4  UNL     1      25.293   2.787  50.455  1.00  0.00    -0.296 NA
HETATM   20  C8  UNL     1      25.170   2.087  51.527  1.00  0.00     0.246 C 
HETATM   21  N3  UNL     1      23.796   2.339  51.324  1.00  0.00    -0.358 N 
HETATM   22  C7  UNL     1      22.565   1.836  50.814  1.00  0.00     0.086 C 
HETATM   23  C6  UNL     1      21.339   2.245  50.859  1.00  0.00     0.017 C 
HETATM   24  C12 UNL     1      27.609   6.339  48.268  1.00  0.00     0.001 A 
HETATM   25  C13 UNL     1      26.490   7.098  48.022  1.00  0.00     0.002 A 
ENDBRANCH   1   5
TORSDOF 1
ENDMDL
MODEL 8
REMARK VINA RESULT:      -7.2      3.275      7.057
REMARK  1 active torsions:
REMARK  status: ('A' for Active; 'I' for Inactive)
REMARK    1  A    between atoms: C3_4  and  N2_5 
ROOT
HETATM    1  N2  UNL     1      18.795   0.507  51.444  1.00  0.00    -0.365 N 
HETATM    2  C4  UNL     1      17.893   0.209  50.359  1.00  0.00     0.151 C 
HETATM    3  C5  UNL     1      18.561  -0.493  52.455  1.00  0.00     0.472 C 
HETATM    4  O1  UNL     1      18.291  -1.415  53.303  1.00  0.00    -0.392 OA
ENDROOT
BRANCH   1   5
HETATM    5  C3  UNL     1      19.812   1.103  52.298  1.00  0.00     0.128 C 
HETATM    6  C2  UNL     1      19.886   2.578  51.943  1.00  0.00     0.173 C 
HETATM    7  N1  UNL     1      20.275   2.802  50.587  1.00  0.00    -0.306 N 
HETATM    8  C1  UNL     1      19.836   2.820  49.210  1.00  0.00     0.173 C 
HETATM    9  N6  UNL     1      21.641   2.931  50.365  1.00  0.00    -0.162 NA
HETATM   10  C16 UNL     1      22.403   2.685  51.367  1.00  0.00     0.142 C 
HETATM   11  N5  UNL     1      23.381   2.999  50.352  1.00  0.00    -0.341 N 
HETATM   12  C17 UNL     1      22.714   2.284  52.771  1.00  0.00     0.204 C 
HETATM   13  C15 UNL     1      24.436   3.796  49.827  1.00  0.00     0.041 A 
HETATM   14  H20 UNL     1      23.559   2.447  49.430  1.00  0.00     0.167 HD
HETATM   15  C10 UNL     1      25.741   3.341  50.162  1.00  0.00    -0.012 A 
HETATM   16  C14 UNL     1      24.265   4.917  49.107  1.00  0.00     0.030 A 
HETATM   17  C9  UNL     1      26.036   2.084  50.938  1.00  0.00     0.186 C 
HETATM   18  C11 UNL     1      26.796   4.099  49.717  1.00  0.00     0.011 A 
HETATM   19  N4  UNL     1      24.849   1.605  51.612  1.00  0.00    -0.296 NA
HETATM   20  C8  UNL     1      24.825   1.038  52.765  1.00  0.00     0.246 C 
HETATM   21  N3  UNL     1      23.436   0.990  52.519  1.00  0.00    -0.358 N 
HETATM   22  C7  UNL     1      22.343   0.196  52.070  1.00  0.00     0.086 C 
HETATM   23  C6  UNL     1      21.061   0.362  52.050  1.00  0.00     0.017 C 
HETATM   24  C12 UNL     1      26.514   5.228  48.992  1.00  0.00     0.001 A 
HETATM   25  C13 UNL     1      25.281   5.717  48.637  1.00  0.00     0.002 A 
ENDBRANCH   1   5
TORSDOF 1
ENDMDL
MODEL 9
REMARK VINA RESULT:      -7.1      5.769      9.082
REMARK  1 active torsions:
REMARK  status: ('A' for Active; 'I' for Inactive)
REMARK    1  A    between atoms: C3_4  and  N2_5 
ROOT
HETATM    1  N2  UNL     1      23.538   5.273  50.981  1.00  0.00    -0.365 N 
HETATM    2  C4  UNL     1      23.460   4.572  52.238  1.00  0.00     0.151 C 
HETATM    3  C5  UNL     1      22.341   4.938  50.252  1.00  0.00     0.472 C 
HETATM    4  O1  UNL     1      21.253   4.589  49.670  1.00  0.00    -0.392 OA
ENDROOT
BRANCH   1   5
HETATM    5  C3  UNL     1      23.959   6.107  49.864  1.00  0.00     0.128 C 
HETATM    6  C2  UNL     1      24.616   5.192  48.845  1.00  0.00     0.173 C 
HETATM    7  N1  UNL     1      25.777   4.536  49.356  1.00  0.00    -0.306 N 
HETATM    8  C1  UNL     1      26.267   3.450  50.174  1.00  0.00     0.173 C 
HETATM    9  N6  UNL     1      26.981   5.205  49.167  1.00  0.00    -0.162 NA
HETATM   10  C16 UNL     1      26.898   6.395  48.696  1.00  0.00     0.142 C 
HETATM   11  N5  UNL     1      28.327   6.264  48.855  1.00  0.00    -0.341 N 
HETATM   12  C17 UNL     1      26.193   7.613  48.195  1.00  0.00     0.204 C 
HETATM   13  C15 UNL     1      29.651   6.218  48.336  1.00  0.00     0.041 A 
HETATM   14  H20 UNL     1      28.865   6.125  49.792  1.00  0.00     0.167 HD
HETATM   15  C10 UNL     1      30.323   7.472  48.324  1.00  0.00    -0.012 A 
HETATM   16  C14 UNL     1      30.245   5.118  47.846  1.00  0.00     0.030 A 
HETATM   17  C9  UNL     1      29.753   8.753  48.875  1.00  0.00     0.186 C 
HETATM   18  C11 UNL     1      31.588   7.493  47.791  1.00  0.00     0.011 A 
HETATM   19  N4  UNL     1      28.325   8.638  49.071  1.00  0.00    -0.296 NA
HETATM   20  C8  UNL     1      27.471   9.584  48.897  1.00  0.00     0.246 C 
HETATM   21  N3  UNL     1      26.550   8.586  49.283  1.00  0.00    -0.358 N 
HETATM   22  C7  UNL     1      25.778   8.041  50.348  1.00  0.00     0.086 C 
HETATM   23  C6  UNL     1      24.860   7.133  50.418  1.00  0.00     0.017 C 
HETATM   24  C12 UNL     1      32.104   6.315  47.314  1.00  0.00     0.001 A 
HETATM   25  C13 UNL     1      31.507   5.078  47.300  1.00  0.00     0.002 A 
ENDBRANCH   1   5
TORSDOF 1
ENDMDL
