MODEL 1
REMARK VINA RESULT:      -8.7      0.000      0.000
REMARK  3 active torsions:
REMARK  status: ('A' for Active; 'I' for Inactive)
REMARK    1  A    between atoms: C2_2  and  C3_3 
REMARK    2  A    between atoms: C4_4  and  C5_5 
REMARK    3  A    between atoms: C6_6  and  C7_7 
ROOT
HETATM    1  C7  UNL     1      24.732   1.553  52.745  1.00  0.00     0.138 C 
HETATM    2  N1  UNL     1      25.297   2.876  52.475  1.00  0.00    -0.387 N 
HETATM    3  C8  UNL     1      25.164   3.062  51.070  1.00  0.00     0.084 C 
HETATM    4  C9  UNL     1      24.125   2.326  50.724  1.00  0.00     0.027 C 
HETATM    5  C10 UNL     1      23.521   1.624  51.849  1.00  0.00    -0.021 C 
HETATM    6  C11 UNL     1      22.317   1.148  52.096  1.00  0.00    -0.014 C 
HETATM    7  C12 UNL     1      21.072   1.145  51.344  1.00  0.00    -0.001 A 
HETATM    8  C13 UNL     1      20.745   1.822  50.193  1.00  0.00     0.014 A 
HETATM    9  C14 UNL     1      19.521   1.721  49.587  1.00  0.00     0.001 A 
HETATM   10  C15 UNL     1      18.582   0.898  50.165  1.00  0.00     0.002 A 
HETATM   11  C16 UNL     1      18.851   0.194  51.319  1.00  0.00     0.030 A 
HETATM   12  C17 UNL     1      20.099   0.337  51.884  1.00  0.00     0.041 A 
HETATM   13  N2  UNL     1      20.683  -0.226  53.051  1.00  0.00    -0.371 N 
HETATM   14  C18 UNL     1      20.460  -1.227  54.082  1.00  0.00     0.124 C 
HETATM   15  C19 UNL     1      21.845  -1.835  54.155  1.00  0.00     0.022 C 
HETATM   16  C20 UNL     1      22.806  -0.850  53.524  1.00  0.00     0.032 C 
HETATM   17  C21 UNL     1      21.978   0.409  53.356  1.00  0.00     0.119 C 
HETATM   18  H9  UNL     1      25.719   3.569  53.158  1.00  0.00     0.159 HD
ENDROOT
BRANCH   1  19
HETATM   19  C6  UNL     1      25.671   0.487  52.333  1.00  0.00     0.003 C 
HETATM   20  C5  UNL     1      26.189  -0.422  53.177  1.00  0.00    -0.002 C 
BRANCH  20  21
HETATM   21  C4  UNL     1      27.116  -1.485  52.804  1.00  0.00    -0.000 C 
HETATM   22  C3  UNL     1      28.362  -1.537  53.191  1.00  0.00    -0.001 C 
BRANCH  22  23
HETATM   23  C2  UNL     1      28.972  -0.534  54.044  1.00  0.00    -0.010 C 
HETATM   24  C1  UNL     1      29.892   0.300  53.537  1.00  0.00     0.011 C 
ENDBRANCH  22  23
ENDBRANCH  20  21
ENDBRANCH   1  19
TORSDOF 3
ENDMDL
MODEL 2
REMARK VINA RESULT:      -8.5      1.366      7.332
REMARK  3 active torsions:
REMARK  status: ('A' for Active; 'I' for Inactive)
REMARK    1  A    between atoms: C2_2  and  C3_3 
REMARK    2  A    between atoms: C4_4  and  C5_5 
REMARK    3  A    between atoms: C6_6  and  C7_7 
ROOT
HETATM    1  C7  UNL     1      20.943   0.616  53.409  1.00  0.00     0.138 C 
HETATM    2  N1  UNL     1      20.506  -0.029  54.648  1.00  0.00    -0.387 N 
HETATM    3  C8  UNL     1      21.040  -1.347  54.595  1.00  0.00     0.084 C 
HETATM    4  C9  UNL     1      22.120  -1.249  53.843  1.00  0.00     0.027 C 
HETATM    5  C10 UNL     1      22.362   0.106  53.364  1.00  0.00    -0.021 C 
HETATM    6  C11 UNL     1      23.435   0.766  52.974  1.00  0.00    -0.014 C 
HETATM    7  C12 UNL     1      24.843   0.414  52.881  1.00  0.00    -0.001 A 
HETATM    8  C13 UNL     1      25.500  -0.694  53.361  1.00  0.00     0.014 A 
HETATM    9  C14 UNL     1      26.844  -0.898  53.196  1.00  0.00     0.001 A 
HETATM   10  C15 UNL     1      27.561   0.058  52.514  1.00  0.00     0.002 A 
HETATM   11  C16 UNL     1      26.958   1.190  52.010  1.00  0.00     0.030 A 
HETATM   12  C17 UNL     1      25.604   1.341  52.208  1.00  0.00     0.041 A 
HETATM   13  N2  UNL     1      24.698   2.371  51.836  1.00  0.00    -0.371 N 
HETATM   14  C18 UNL     1      24.596   3.579  51.034  1.00  0.00     0.124 C 
HETATM   15  C19 UNL     1      23.237   3.357  50.404  1.00  0.00     0.022 C 
HETATM   16  C20 UNL     1      22.516   2.317  51.236  1.00  0.00     0.032 C 
HETATM   17  C21 UNL     1      23.382   2.178  52.474  1.00  0.00     0.119 C 
HETATM   18  H9  UNL     1      19.919   0.374  55.434  1.00  0.00     0.159 HD
ENDROOT
BRANCH   1  19
HETATM   19  C6  UNL     1      20.141   0.143  52.259  1.00  0.00     0.003 C 
HETATM   20  C5  UNL     1      19.077   0.802  51.767  1.00  0.00    -0.002 C 
BRANCH  20  21
HETATM   21  C4  UNL     1      18.266   0.364  50.637  1.00  0.00    -0.000 C 
HETATM   22  C3  UNL     1      17.102  -0.216  50.753  1.00  0.00    -0.001 C 
BRANCH  22  23
HETATM   23  C2  UNL     1      16.477  -0.493  52.033  1.00  0.00    -0.010 C 
HETATM   24  C1  UNL     1      16.581  -1.717  52.573  1.00  0.00     0.011 C 
ENDBRANCH  22  23
ENDBRANCH  20  21
ENDBRANCH   1  19
TORSDOF 3
ENDMDL
MODEL 3
REMARK VINA RESULT:      -8.4      2.129      5.915
REMARK  3 active torsions:
REMARK  status: ('A' for Active; 'I' for Inactive)
REMARK    1  A    between atoms: C2_2  and  C3_3 
REMARK    2  A    between atoms: C4_4  and  C5_5 
REMARK    3  A    between atoms: C6_6  and  C7_7 
ROOT
HETATM    1  C7  UNL     1      24.898   0.800  53.687  1.00  0.00     0.138 C 
HETATM    2  N1  UNL     1      26.127   0.201  54.210  1.00  0.00    -0.387 N 
HETATM    3  C8  UNL     1      26.823  -0.287  53.069  1.00  0.00     0.084 C 
HETATM    4  C9  UNL     1      26.427   0.481  52.072  1.00  0.00     0.027 C 
HETATM    5  C10 UNL     1      25.470   1.501  52.481  1.00  0.00    -0.021 C 
HETATM    6  C11 UNL     1      25.126   2.682  52.007  1.00  0.00    -0.014 C 
HETATM    7  C12 UNL     1      25.583   3.474  50.876  1.00  0.00    -0.001 A 
HETATM    8  C13 UNL     1      26.669   3.282  50.056  1.00  0.00     0.014 A 
HETATM    9  C14 UNL     1      26.980   4.116  49.016  1.00  0.00     0.001 A 
HETATM   10  C15 UNL     1      26.158   5.197  48.789  1.00  0.00     0.002 A 
HETATM   11  C16 UNL     1      25.055   5.442  49.578  1.00  0.00     0.030 A 
HETATM   12  C17 UNL     1      24.793   4.569  50.610  1.00  0.00     0.041 A 
HETATM   13  N2  UNL     1      23.768   4.540  51.592  1.00  0.00    -0.371 N 
HETATM   14  C18 UNL     1      22.511   5.169  51.963  1.00  0.00     0.124 C 
HETATM   15  C19 UNL     1      21.713   3.942  52.352  1.00  0.00     0.022 C 
HETATM   16  C20 UNL     1      22.700   2.822  52.608  1.00  0.00     0.032 C 
HETATM   17  C21 UNL     1      24.046   3.520  52.621  1.00  0.00     0.119 C 
HETATM   18  H9  UNL     1      26.456   0.133  55.217  1.00  0.00     0.159 HD
ENDROOT
BRANCH   1  19
HETATM   19  C6  UNL     1      23.921  -0.247  53.316  1.00  0.00     0.003 C 
HETATM   20  C5  UNL     1      22.932  -0.667  54.124  1.00  0.00    -0.002 C 
BRANCH  20  21
HETATM   21  C4  UNL     1      21.953  -1.696  53.789  1.00  0.00    -0.000 C 
HETATM   22  C3  UNL     1      20.689  -1.459  53.570  1.00  0.00    -0.001 C 
BRANCH  22  23
HETATM   23  C2  UNL     1      20.106  -0.132  53.635  1.00  0.00    -0.010 C 
HETATM   24  C1  UNL     1      19.708   0.476  52.507  1.00  0.00     0.011 C 
ENDBRANCH  22  23
ENDBRANCH  20  21
ENDBRANCH   1  19
TORSDOF 3
ENDMDL
MODEL 4
REMARK VINA RESULT:      -8.0      1.745      7.071
REMARK  3 active torsions:
REMARK  status: ('A' for Active; 'I' for Inactive)
REMARK    1  A    between atoms: C2_2  and  C3_3 
REMARK    2  A    between atoms: C4_4  and  C5_5 
REMARK    3  A    between atoms: C6_6  and  C7_7 
ROOT
HETATM    1  C7  UNL     1      20.647   0.522  53.611  1.00  0.00     0.138 C 
HETATM    2  N1  UNL     1      20.719  -0.241  54.858  1.00  0.00    -0.387 N 
HETATM    3  C8  UNL     1      21.574  -1.343  54.575  1.00  0.00     0.084 C 
HETATM    4  C9  UNL     1      22.370  -0.920  53.611  1.00  0.00     0.027 C 
HETATM    5  C10 UNL     1      22.098   0.453  53.206  1.00  0.00    -0.021 C 
HETATM    6  C11 UNL     1      22.815   1.404  52.642  1.00  0.00    -0.014 C 
HETATM    7  C12 UNL     1      24.200   1.483  52.206  1.00  0.00    -0.001 A 
HETATM    8  C13 UNL     1      25.238   0.611  52.431  1.00  0.00     0.014 A 
HETATM    9  C14 UNL     1      26.505   0.813  51.952  1.00  0.00     0.001 A 
HETATM   10  C15 UNL     1      26.739   1.949  51.210  1.00  0.00     0.002 A 
HETATM   11  C16 UNL     1      25.738   2.860  50.951  1.00  0.00     0.030 A 
HETATM   12  C17 UNL     1      24.485   2.603  51.460  1.00  0.00     0.041 A 
HETATM   13  N2  UNL     1      23.264   3.327  51.389  1.00  0.00    -0.371 N 
HETATM   14  C18 UNL     1      22.636   4.463  50.735  1.00  0.00     0.124 C 
HETATM   15  C19 UNL     1      21.286   3.861  50.410  1.00  0.00     0.022 C 
HETATM   16  C20 UNL     1      21.109   2.643  51.292  1.00  0.00     0.032 C 
HETATM   17  C21 UNL     1      22.248   2.746  52.287  1.00  0.00     0.119 C 
HETATM   18  H9  UNL     1      20.248  -0.041  55.787  1.00  0.00     0.159 HD
ENDROOT
BRANCH   1  19
HETATM   19  C6  UNL     1      19.760  -0.148  52.635  1.00  0.00     0.003 C 
HETATM   20  C5  UNL     1      18.449   0.120  52.507  1.00  0.00    -0.002 C 
BRANCH  20  21
HETATM   21  C4  UNL     1      17.547  -0.522  51.557  1.00  0.00    -0.000 C 
HETATM   22  C3  UNL     1      17.358  -0.107  50.334  1.00  0.00    -0.001 C 
BRANCH  22  23
HETATM   23  C2  UNL     1      18.029   1.051  49.775  1.00  0.00    -0.010 C 
HETATM   24  C1  UNL     1      17.345   2.190  49.587  1.00  0.00     0.011 C 
ENDBRANCH  22  23
ENDBRANCH  20  21
ENDBRANCH   1  19
TORSDOF 3
ENDMDL
MODEL 5
REMARK VINA RESULT:      -7.9      4.435      8.847
REMARK  3 active torsions:
REMARK  status: ('A' for Active; 'I' for Inactive)
REMARK    1  A    between atoms: C2_2  and  C3_3 
REMARK    2  A    between atoms: C4_4  and  C5_5 
REMARK    3  A    between atoms: C6_6  and  C7_7 
ROOT
HETATM    1  C7  UNL     1      24.677   4.249  50.154  1.00  0.00     0.138 C 
HETATM    2  N1  UNL     1      25.146   3.519  51.333  1.00  0.00    -0.387 N 
HETATM    3  C8  UNL     1      26.220   2.708  50.871  1.00  0.00     0.084 C 
HETATM    4  C9  UNL     1      26.711   3.350  49.829  1.00  0.00     0.027 C 
HETATM    5  C10 UNL     1      26.012   4.597  49.544  1.00  0.00    -0.021 C 
HETATM    6  C11 UNL     1      26.345   5.720  48.939  1.00  0.00    -0.014 C 
HETATM    7  C12 UNL     1      27.571   6.192  48.316  1.00  0.00    -0.001 A 
HETATM    8  C13 UNL     1      28.831   5.644  48.343  1.00  0.00     0.014 A 
HETATM    9  C14 UNL     1      29.905   6.202  47.701  1.00  0.00     0.001 A 
HETATM   10  C15 UNL     1      29.700   7.367  46.998  1.00  0.00     0.002 A 
HETATM   11  C16 UNL     1      28.459   7.964  46.935  1.00  0.00     0.030 A 
HETATM   12  C17 UNL     1      27.418   7.357  47.601  1.00  0.00     0.041 A 
HETATM   13  N2  UNL     1      26.049   7.708  47.744  1.00  0.00    -0.371 N 
HETATM   14  C18 UNL     1      25.039   8.630  47.250  1.00  0.00     0.124 C 
HETATM   15  C19 UNL     1      23.875   7.676  47.086  1.00  0.00     0.022 C 
HETATM   16  C20 UNL     1      24.178   6.445  47.914  1.00  0.00     0.032 C 
HETATM   17  C21 UNL     1      25.382   6.852  48.742  1.00  0.00     0.119 C 
HETATM   18  H9  UNL     1      24.784   3.566  52.329  1.00  0.00     0.159 HD
ENDROOT
BRANCH   1  19
HETATM   19  C6  UNL     1      23.874   3.369  49.277  1.00  0.00     0.003 C 
HETATM   20  C5  UNL     1      22.646   2.919  49.592  1.00  0.00    -0.002 C 
BRANCH  20  21
HETATM   21  C4  UNL     1      21.828   2.051  48.752  1.00  0.00    -0.000 C 
HETATM   22  C3  UNL     1      21.245   0.962  49.174  1.00  0.00    -0.001 C 
BRANCH  22  23
HETATM   23  C2  UNL     1      21.347   0.486  50.541  1.00  0.00    -0.010 C 
HETATM   24  C1  UNL     1      20.253   0.451  51.317  1.00  0.00     0.011 C 
ENDBRANCH  22  23
ENDBRANCH  20  21
ENDBRANCH   1  19
TORSDOF 3
ENDMDL
MODEL 6
REMARK VINA RESULT:      -7.7      9.914     13.112
REMARK  3 active torsions:
REMARK  status: ('A' for Active; 'I' for Inactive)
REMARK    1  A    between atoms: C2_2  and  C3_3 
REMARK    2  A    between atoms: C4_4  and  C5_5 
REMARK    3  A    between atoms: C6_6  and  C7_7 
ROOT
HETATM    1  C7  UNL     1      30.545   8.012  48.839  1.00  0.00     0.138 C 
HETATM    2  N1  UNL     1      29.149   7.829  49.238  1.00  0.00    -0.387 N 
HETATM    3  C8  UNL     1      28.523   7.185  48.135  1.00  0.00     0.084 C 
HETATM    4  C9  UNL     1      29.490   6.517  47.535  1.00  0.00     0.027 C 
HETATM    5  C10 UNL     1      30.784   6.672  48.188  1.00  0.00    -0.021 C 
HETATM    6  C11 UNL     1      31.881   5.944  48.241  1.00  0.00    -0.014 C 
HETATM    7  C12 UNL     1      32.249   4.654  47.679  1.00  0.00    -0.001 A 
HETATM    8  C13 UNL     1      31.462   3.716  47.055  1.00  0.00     0.014 A 
HETATM    9  C14 UNL     1      31.951   2.533  46.567  1.00  0.00     0.001 A 
HETATM   10  C15 UNL     1      33.297   2.284  46.711  1.00  0.00     0.002 A 
HETATM   11  C16 UNL     1      34.136   3.187  47.328  1.00  0.00     0.030 A 
HETATM   12  C17 UNL     1      33.587   4.358  47.800  1.00  0.00     0.041 A 
HETATM   13  N2  UNL     1      34.158   5.468  48.477  1.00  0.00    -0.371 N 
HETATM   14  C18 UNL     1      35.433   6.045  48.871  1.00  0.00     0.124 C 
HETATM   15  C19 UNL     1      35.176   7.498  48.531  1.00  0.00     0.022 C 
HETATM   16  C20 UNL     1      33.676   7.679  48.422  1.00  0.00     0.032 C 
HETATM   17  C21 UNL     1      33.113   6.384  48.973  1.00  0.00     0.119 C 
HETATM   18  H9  UNL     1      28.678   8.106  50.147  1.00  0.00     0.159 HD
ENDROOT
BRANCH   1  19
HETATM   19  C6  UNL     1      30.675   9.131  47.880  1.00  0.00     0.003 C 
HETATM   20  C5  UNL     1      31.264  10.304  48.173  1.00  0.00    -0.002 C 
BRANCH  20  21
HETATM   21  C4  UNL     1      31.408  11.426  47.252  1.00  0.00    -0.000 C 
HETATM   22  C3  UNL     1      32.461  11.633  46.510  1.00  0.00    -0.001 C 
BRANCH  22  23
HETATM   23  C2  UNL     1      33.621  10.761  46.516  1.00  0.00    -0.010 C 
HETATM   24  C1  UNL     1      33.965  10.103  45.399  1.00  0.00     0.011 C 
ENDBRANCH  22  23
ENDBRANCH  20  21
ENDBRANCH   1  19
TORSDOF 3
ENDMDL
MODEL 7
REMARK VINA RESULT:      -7.5      4.851      9.397
REMARK  3 active torsions:
REMARK  status: ('A' for Active; 'I' for Inactive)
REMARK    1  A    between atoms: C2_2  and  C3_3 
REMARK    2  A    between atoms: C4_4  and  C5_5 
REMARK    3  A    between atoms: C6_6  and  C7_7 
ROOT
HETATM    1  C7  UNL     1      24.756   4.394  50.095  1.00  0.00     0.138 C 
HETATM    2  N1  UNL     1      25.186   3.657  51.285  1.00  0.00    -0.387 N 
HETATM    3  C8  UNL     1      26.235   2.804  50.840  1.00  0.00     0.084 C 
HETATM    4  C9  UNL     1      26.760   3.421  49.798  1.00  0.00     0.027 C 
HETATM    5  C10 UNL     1      26.108   4.690  49.497  1.00  0.00    -0.021 C 
HETATM    6  C11 UNL     1      26.487   5.795  48.887  1.00  0.00    -0.014 C 
HETATM    7  C12 UNL     1      27.735   6.219  48.273  1.00  0.00    -0.001 A 
HETATM    8  C13 UNL     1      28.975   5.627  48.317  1.00  0.00     0.014 A 
HETATM    9  C14 UNL     1      30.074   6.141  47.683  1.00  0.00     0.001 A 
HETATM   10  C15 UNL     1      29.918   7.307  46.969  1.00  0.00     0.002 A 
HETATM   11  C16 UNL     1      28.699   7.947  46.888  1.00  0.00     0.030 A 
HETATM   12  C17 UNL     1      27.631   7.383  47.549  1.00  0.00     0.041 A 
HETATM   13  N2  UNL     1      26.274   7.783  47.674  1.00  0.00    -0.371 N 
HETATM   14  C18 UNL     1      25.303   8.737  47.163  1.00  0.00     0.124 C 
HETATM   15  C19 UNL     1      24.107   7.824  46.994  1.00  0.00     0.022 C 
HETATM   16  C20 UNL     1      24.357   6.589  47.835  1.00  0.00     0.032 C 
HETATM   17  C21 UNL     1      25.566   6.959  48.672  1.00  0.00     0.119 C 
HETATM   18  H9  UNL     1      24.816   3.725  52.277  1.00  0.00     0.159 HD
ENDROOT
BRANCH   1  19
HETATM   19  C6  UNL     1      23.930   3.537  49.217  1.00  0.00     0.003 C 
HETATM   20  C5  UNL     1      22.605   3.693  49.050  1.00  0.00    -0.002 C 
BRANCH  20  21
HETATM   21  C4  UNL     1      21.762   2.866  48.193  1.00  0.00    -0.000 C 
HETATM   22  C3  UNL     1      21.240   3.274  47.068  1.00  0.00    -0.001 C 
BRANCH  22  23
HETATM   23  C2  UNL     1      21.440   4.609  46.537  1.00  0.00    -0.010 C 
HETATM   24  C1  UNL     1      21.972   4.768  45.316  1.00  0.00     0.011 C 
ENDBRANCH  22  23
ENDBRANCH  20  21
ENDBRANCH   1  19
TORSDOF 3
ENDMDL
MODEL 8
REMARK VINA RESULT:      -7.4      1.910      7.153
REMARK  3 active torsions:
REMARK  status: ('A' for Active; 'I' for Inactive)
REMARK    1  A    between atoms: C2_2  and  C3_3 
REMARK    2  A    between atoms: C4_4  and  C5_5 
REMARK    3  A    between atoms: C6_6  and  C7_7 
ROOT
HETATM    1  C7  UNL     1      21.350   2.677  51.686  1.00  0.00     0.138 C 
HETATM    2  N1  UNL     1      20.388   2.528  52.780  1.00  0.00    -0.387 N 
HETATM    3  C8  UNL     1      20.301   1.128  53.017  1.00  0.00     0.084 C 
HETATM    4  C9  UNL     1      21.466   0.643  52.634  1.00  0.00     0.027 C 
HETATM    5  C10 UNL     1      22.376   1.666  52.134  1.00  0.00    -0.021 C 
HETATM    6  C11 UNL     1      23.687   1.765  52.041  1.00  0.00    -0.014 C 
HETATM    7  C12 UNL     1      24.783   0.890  52.426  1.00  0.00    -0.001 A 
HETATM    8  C13 UNL     1      24.761  -0.255  53.186  1.00  0.00     0.014 A 
HETATM    9  C14 UNL     1      25.883  -0.988  53.469  1.00  0.00     0.001 A 
HETATM   10  C15 UNL     1      27.084  -0.548  52.961  1.00  0.00     0.002 A 
HETATM   11  C16 UNL     1      27.169   0.593  52.193  1.00  0.00     0.030 A 
HETATM   12  C17 UNL     1      26.007   1.289  51.943  1.00  0.00     0.041 A 
HETATM   13  N2  UNL     1      25.753   2.482  51.214  1.00  0.00    -0.371 N 
HETATM   14  C18 UNL     1      26.379   3.436  50.314  1.00  0.00     0.124 C 
HETATM   15  C19 UNL     1      25.258   3.622  49.314  1.00  0.00     0.022 C 
HETATM   16  C20 UNL     1      23.981   3.140  49.969  1.00  0.00     0.032 C 
HETATM   17  C21 UNL     1      24.369   2.948  51.423  1.00  0.00     0.119 C 
HETATM   18  H9  UNL     1      19.856   3.283  53.302  1.00  0.00     0.159 HD
ENDROOT
BRANCH   1  19
HETATM   19  C6  UNL     1      20.733   2.313  50.392  1.00  0.00     0.003 C 
HETATM   20  C5  UNL     1      20.174   3.203  49.553  1.00  0.00    -0.002 C 
BRANCH  20  21
HETATM   21  C4  UNL     1      19.558   2.879  48.271  1.00  0.00    -0.000 C 
HETATM   22  C3  UNL     1      20.132   3.071  47.114  1.00  0.00    -0.001 C 
BRANCH  22  23
HETATM   23  C2  UNL     1      21.461   3.635  46.971  1.00  0.00    -0.010 C 
HETATM   24  C1  UNL     1      21.954   3.876  45.746  1.00  0.00     0.011 C 
ENDBRANCH  22  23
ENDBRANCH  20  21
ENDBRANCH   1  19
TORSDOF 3
ENDMDL
MODEL 9
REMARK VINA RESULT:      -7.4      9.791     13.375
REMARK  3 active torsions:
REMARK  status: ('A' for Active; 'I' for Inactive)
REMARK    1  A    between atoms: C2_2  and  C3_3 
REMARK    2  A    between atoms: C4_4  and  C5_5 
REMARK    3  A    between atoms: C6_6  and  C7_7 
ROOT
HETATM    1  C7  UNL     1      30.395   8.079  48.713  1.00  0.00     0.138 C 
HETATM    2  N1  UNL     1      29.057   7.735  49.198  1.00  0.00    -0.387 N 
HETATM    3  C8  UNL     1      28.480   6.935  48.171  1.00  0.00     0.084 C 
HETATM    4  C9  UNL     1      29.503   6.366  47.564  1.00  0.00     0.027 C 
HETATM    5  C10 UNL     1      30.790   6.743  48.136  1.00  0.00    -0.021 C 
HETATM    6  C11 UNL     1      31.979   6.177  48.175  1.00  0.00    -0.014 C 
HETATM    7  C12 UNL     1      32.500   4.914  47.675  1.00  0.00    -0.001 A 
HETATM    8  C13 UNL     1      31.826   3.836  47.155  1.00  0.00     0.014 A 
HETATM    9  C14 UNL     1      32.453   2.700  46.715  1.00  0.00     0.001 A 
HETATM   10  C15 UNL     1      33.825   2.648  46.803  1.00  0.00     0.002 A 
HETATM   11  C16 UNL     1      34.556   3.698  47.316  1.00  0.00     0.030 A 
HETATM   12  C17 UNL     1      33.870   4.813  47.743  1.00  0.00     0.041 A 
HETATM   13  N2  UNL     1      34.309   6.035  48.319  1.00  0.00    -0.371 N 
HETATM   14  C18 UNL     1      35.507   6.807  48.607  1.00  0.00     0.124 C 
HETATM   15  C19 UNL     1      35.034   8.184  48.191  1.00  0.00     0.022 C 
HETATM   16  C20 UNL     1      33.520   8.150  48.151  1.00  0.00     0.032 C 
HETATM   17  C21 UNL     1      33.169   6.831  48.811  1.00  0.00     0.119 C 
HETATM   18  H9  UNL     1      28.593   8.006  50.112  1.00  0.00     0.159 HD
ENDROOT
BRANCH   1  19
HETATM   19  C6  UNL     1      30.323   9.136  47.681  1.00  0.00     0.003 C 
HETATM   20  C5  UNL     1      30.415  10.451  47.948  1.00  0.00    -0.002 C 
BRANCH  20  21
HETATM   21  C4  UNL     1      30.348  11.518  46.955  1.00  0.00    -0.000 C 
HETATM   22  C3  UNL     1      29.889  12.715  47.198  1.00  0.00    -0.001 C 
BRANCH  22  23
HETATM   23  C2  UNL     1      29.388  13.125  48.497  1.00  0.00    -0.010 C 
HETATM   24  C1  UNL     1      28.068  13.272  48.684  1.00  0.00     0.011 C 
ENDBRANCH  22  23
ENDBRANCH  20  21
ENDBRANCH   1  19
TORSDOF 3
ENDMDL
