MODEL 1
REMARK VINA RESULT:      -7.9      0.000      0.000
REMARK  4 active torsions:
REMARK  status: ('A' for Active; 'I' for Inactive)
REMARK    1  A    between atoms: O1_2  and  C2_3 
REMARK    2  A    between atoms: C5_6  and  N1_7 
REMARK    3  A    between atoms: N1_7  and  C6_8 
REMARK    4  A    between atoms: C15_20  and  O2_21 
ROOT
HETATM    1  C2  UNL     1      20.717   0.131  52.124  1.00  0.00     0.102 A 
HETATM    2  C3  UNL     1      22.073   0.221  52.271  1.00  0.00     0.057 A 
HETATM    3  C4  UNL     1      22.684  -0.323  53.384  1.00  0.00     0.042 A 
HETATM    4  C5  UNL     1      24.059  -0.234  53.542  1.00  0.00     0.142 A 
HETATM    5  N2  UNL     1      24.632  -0.769  54.634  1.00  0.00    -0.224 NA
HETATM    6  C12 UNL     1      23.942  -1.397  55.602  1.00  0.00     0.236 A 
HETATM    7  N3  UNL     1      22.604  -1.499  55.474  1.00  0.00    -0.241 NA
HETATM    8  C13 UNL     1      21.997  -0.971  54.387  1.00  0.00     0.075 A 
HETATM    9  C14 UNL     1      20.633  -1.053  54.223  1.00  0.00     0.072 A 
HETATM   10  C15 UNL     1      20.020  -0.509  53.108  1.00  0.00     0.103 A 
ENDROOT
BRANCH   4  11
HETATM   11  N1  UNL     1      24.845   0.416  52.550  1.00  0.00    -0.340 N 
HETATM   12  H5  UNL     1      24.527   0.700  51.596  1.00  0.00     0.167 HD
BRANCH  11  13
HETATM   13  C6  UNL     1      26.192   0.693  52.918  1.00  0.00     0.035 A 
HETATM   14  C7  UNL     1      26.585   1.992  53.209  1.00  0.00     0.029 A 
HETATM   15  C8  UNL     1      27.896   2.306  53.572  1.00  0.00     0.004 A 
HETATM   16  C9  UNL     1      28.849   1.315  53.648  1.00  0.00     0.019 A 
HETATM   17  C10 UNL     1      28.465   0.025  53.360  1.00  0.00     0.013 A 
HETATM   18 BR1  UNL     1      29.822  -1.320  53.480  1.00  0.00    -0.051 Br
HETATM   19  C11 UNL     1      27.180  -0.296  53.003  1.00  0.00     0.048 A 
ENDBRANCH  11  13
ENDBRANCH   4  11
BRANCH   1  20
HETATM   20  O1  UNL     1      19.965   0.617  51.080  1.00  0.00    -0.353 OA
HETATM   21  C1  UNL     1      19.450   1.908  50.947  1.00  0.00     0.210 C 
ENDBRANCH   1  20
BRANCH  10  22
HETATM   22  O2  UNL     1      18.640  -0.663  53.070  1.00  0.00    -0.353 OA
HETATM   23  C16 UNL     1      17.986  -1.853  53.402  1.00  0.00     0.210 C 
ENDBRANCH  10  22
TORSDOF 4
ENDMDL
MODEL 2
REMARK VINA RESULT:      -7.7      4.126      7.324
REMARK  4 active torsions:
REMARK  status: ('A' for Active; 'I' for Inactive)
REMARK    1  A    between atoms: O1_2  and  C2_3 
REMARK    2  A    between atoms: C5_6  and  N1_7 
REMARK    3  A    between atoms: N1_7  and  C6_8 
REMARK    4  A    between atoms: C15_20  and  O2_21 
ROOT
HETATM    1  C2  UNL     1      25.775  -0.111  53.413  1.00  0.00     0.102 A 
HETATM    2  C3  UNL     1      24.656   0.145  52.672  1.00  0.00     0.057 A 
HETATM    3  C4  UNL     1      24.159   1.432  52.594  1.00  0.00     0.042 A 
HETATM    4  C5  UNL     1      23.023   1.701  51.846  1.00  0.00     0.142 A 
HETATM    5  N2  UNL     1      22.556   2.960  51.787  1.00  0.00    -0.224 NA
HETATM    6  C12 UNL     1      23.134   3.996  52.420  1.00  0.00     0.236 A 
HETATM    7  N3  UNL     1      24.240   3.764  53.154  1.00  0.00    -0.241 NA
HETATM    8  C13 UNL     1      24.734   2.507  53.234  1.00  0.00     0.075 A 
HETATM    9  C14 UNL     1      25.861   2.232  53.976  1.00  0.00     0.072 A 
HETATM   10  C15 UNL     1      26.360   0.944  54.053  1.00  0.00     0.103 A 
ENDROOT
BRANCH   4  11
HETATM   11  N1  UNL     1      22.369   0.647  51.150  1.00  0.00    -0.340 N 
HETATM   12  H5  UNL     1      22.744   0.120  50.329  1.00  0.00     0.167 HD
BRANCH  11  13
HETATM   13  C6  UNL     1      21.078   0.296  51.638  1.00  0.00     0.035 A 
HETATM   14  C7  UNL     1      20.928  -0.191  52.930  1.00  0.00     0.029 A 
HETATM   15  C8  UNL     1      19.680  -0.548  53.446  1.00  0.00     0.004 A 
HETATM   16  C9  UNL     1      18.549  -0.424  52.670  1.00  0.00     0.019 A 
HETATM   17  C10 UNL     1      18.693   0.059  51.390  1.00  0.00     0.013 A 
HETATM   18 BR1  UNL     1      17.094   0.215  50.348  1.00  0.00    -0.051 Br
HETATM   19  C11 UNL     1      19.913   0.413  50.871  1.00  0.00     0.048 A 
ENDBRANCH  11  13
ENDBRANCH   4  11
BRANCH   1  20
HETATM   20  O1  UNL     1      26.390  -1.329  53.587  1.00  0.00    -0.353 OA
HETATM   21  C1  UNL     1      27.088  -2.062  52.624  1.00  0.00     0.210 C 
ENDBRANCH   1  20
BRANCH  10  22
HETATM   22  O2  UNL     1      27.500   0.807  54.835  1.00  0.00    -0.353 OA
HETATM   23  C16 UNL     1      28.793   1.038  54.361  1.00  0.00     0.210 C 
ENDBRANCH  10  22
TORSDOF 4
ENDMDL
MODEL 3
REMARK VINA RESULT:      -7.5      3.850      7.041
REMARK  4 active torsions:
REMARK  status: ('A' for Active; 'I' for Inactive)
REMARK    1  A    between atoms: O1_2  and  C2_3 
REMARK    2  A    between atoms: C5_6  and  N1_7 
REMARK    3  A    between atoms: N1_7  and  C6_8 
REMARK    4  A    between atoms: C15_20  and  O2_21 
ROOT
HETATM    1  C2  UNL     1      25.976   0.109  54.233  1.00  0.00     0.102 A 
HETATM    2  C3  UNL     1      25.103   1.018  53.706  1.00  0.00     0.057 A 
HETATM    3  C4  UNL     1      25.494   1.819  52.651  1.00  0.00     0.042 A 
HETATM    4  C5  UNL     1      24.616   2.747  52.110  1.00  0.00     0.142 A 
HETATM    5  N2  UNL     1      25.019   3.517  51.086  1.00  0.00    -0.224 NA
HETATM    6  C12 UNL     1      26.246   3.443  50.540  1.00  0.00     0.236 A 
HETATM    7  N3  UNL     1      27.120   2.550  51.043  1.00  0.00    -0.241 NA
HETATM    8  C13 UNL     1      26.745   1.760  52.076  1.00  0.00     0.075 A 
HETATM    9  C14 UNL     1      27.611   0.838  52.618  1.00  0.00     0.072 A 
HETATM   10  C15 UNL     1      27.220   0.035  53.674  1.00  0.00     0.103 A 
ENDROOT
BRANCH   4  11
HETATM   11  N1  UNL     1      23.302   2.869  52.643  1.00  0.00    -0.340 N 
HETATM   12  H5  UNL     1      22.999   3.520  53.402  1.00  0.00     0.167 HD
BRANCH  11  13
HETATM   13  C6  UNL     1      22.324   2.008  52.067  1.00  0.00     0.035 A 
HETATM   14  C7  UNL     1      22.198   1.917  50.688  1.00  0.00     0.029 A 
HETATM   15  C8  UNL     1      21.251   1.086  50.084  1.00  0.00     0.004 A 
HETATM   16  C9  UNL     1      20.403   0.326  50.859  1.00  0.00     0.019 A 
HETATM   17  C10 UNL     1      20.524   0.414  52.227  1.00  0.00     0.013 A 
HETATM   18 BR1  UNL     1      19.326  -0.660  53.264  1.00  0.00    -0.051 Br
HETATM   19  C11 UNL     1      21.450   1.226  52.832  1.00  0.00     0.048 A 
ENDBRANCH  11  13
ENDBRANCH   4  11
BRANCH   1  20
HETATM   20  O1  UNL     1      25.738  -0.756  55.276  1.00  0.00    -0.353 OA
HETATM   21  C1  UNL     1      24.500  -1.256  55.686  1.00  0.00     0.210 C 
ENDBRANCH   1  20
BRANCH  10  22
HETATM   22  O2  UNL     1      28.191  -0.849  54.124  1.00  0.00    -0.353 OA
HETATM   23  C16 UNL     1      29.546  -0.740  53.798  1.00  0.00     0.210 C 
ENDBRANCH  10  22
TORSDOF 4
ENDMDL
MODEL 4
REMARK VINA RESULT:      -7.5      2.112      3.633
REMARK  4 active torsions:
REMARK  status: ('A' for Active; 'I' for Inactive)
REMARK    1  A    between atoms: O1_2  and  C2_3 
REMARK    2  A    between atoms: C5_6  and  N1_7 
REMARK    3  A    between atoms: N1_7  and  C6_8 
REMARK    4  A    between atoms: C15_20  and  O2_21 
ROOT
HETATM    1  C2  UNL     1      21.977   0.671  52.958  1.00  0.00     0.102 A 
HETATM    2  C3  UNL     1      23.183   1.306  53.059  1.00  0.00     0.057 A 
HETATM    3  C4  UNL     1      23.710   1.964  51.965  1.00  0.00     0.042 A 
HETATM    4  C5  UNL     1      24.935   2.609  52.058  1.00  0.00     0.142 A 
HETATM    5  N2  UNL     1      25.430   3.242  50.981  1.00  0.00    -0.224 NA
HETATM    6  C12 UNL     1      24.799   3.290  49.794  1.00  0.00     0.236 A 
HETATM    7  N3  UNL     1      23.607   2.672  49.675  1.00  0.00    -0.241 NA
HETATM    8  C13 UNL     1      23.083   2.026  50.741  1.00  0.00     0.075 A 
HETATM    9  C14 UNL     1      21.868   1.383  50.656  1.00  0.00     0.072 A 
HETATM   10  C15 UNL     1      21.339   0.724  51.751  1.00  0.00     0.103 A 
ENDROOT
BRANCH   4  11
HETATM   11  N1  UNL     1      25.648   2.597  53.289  1.00  0.00    -0.340 N 
HETATM   12  H5  UNL     1      25.430   3.166  54.137  1.00  0.00     0.167 HD
BRANCH  11  13
HETATM   13  C6  UNL     1      26.765   1.715  53.343  1.00  0.00     0.035 A 
HETATM   14  C7  UNL     1      28.024   2.199  53.676  1.00  0.00     0.029 A 
HETATM   15  C8  UNL     1      29.144   1.368  53.737  1.00  0.00     0.004 A 
HETATM   16  C9  UNL     1      29.025   0.024  53.463  1.00  0.00     0.019 A 
HETATM   17  C10 UNL     1      27.780  -0.460  53.133  1.00  0.00     0.013 A 
HETATM   18 BR1  UNL     1      27.661  -2.335  52.760  1.00  0.00    -0.051 Br
HETATM   19  C11 UNL     1      26.672   0.345  53.069  1.00  0.00     0.048 A 
ENDBRANCH  11  13
ENDBRANCH   4  11
BRANCH   1  20
HETATM   20  O1  UNL     1      21.322  -0.022  53.949  1.00  0.00    -0.353 OA
HETATM   21  C1  UNL     1      21.696  -1.248  54.504  1.00  0.00     0.210 C 
ENDBRANCH   1  20
BRANCH  10  22
HETATM   22  O2  UNL     1      20.110   0.117  51.527  1.00  0.00    -0.353 OA
HETATM   23  C16 UNL     1      18.959   0.819  51.160  1.00  0.00     0.210 C 
ENDBRANCH  10  22
TORSDOF 4
ENDMDL
MODEL 5
REMARK VINA RESULT:      -7.5      4.209      6.371
REMARK  4 active torsions:
REMARK  status: ('A' for Active; 'I' for Inactive)
REMARK    1  A    between atoms: O1_2  and  C2_3 
REMARK    2  A    between atoms: C5_6  and  N1_7 
REMARK    3  A    between atoms: N1_7  and  C6_8 
REMARK    4  A    between atoms: C15_20  and  O2_21 
ROOT
HETATM    1  C2  UNL     1      26.468   1.591  53.923  1.00  0.00     0.102 A 
HETATM    2  C3  UNL     1      25.348   2.220  53.455  1.00  0.00     0.057 A 
HETATM    3  C4  UNL     1      24.235   1.480  53.109  1.00  0.00     0.042 A 
HETATM    4  C5  UNL     1      23.095   2.110  52.632  1.00  0.00     0.142 A 
HETATM    5  N2  UNL     1      22.024   1.369  52.299  1.00  0.00    -0.224 NA
HETATM    6  C12 UNL     1      21.987   0.029  52.401  1.00  0.00     0.236 A 
HETATM    7  N3  UNL     1      23.081  -0.610  52.863  1.00  0.00    -0.241 NA
HETATM    8  C13 UNL     1      24.175   0.107  53.206  1.00  0.00     0.075 A 
HETATM    9  C14 UNL     1      25.311  -0.511  53.679  1.00  0.00     0.072 A 
HETATM   10  C15 UNL     1      26.426   0.230  54.027  1.00  0.00     0.103 A 
ENDROOT
BRANCH   4  11
HETATM   11  N1  UNL     1      23.071   3.526  52.505  1.00  0.00    -0.340 N 
HETATM   12  H5  UNL     1      22.899   4.214  53.272  1.00  0.00     0.167 HD
BRANCH  11  13
HETATM   13  C6  UNL     1      23.306   4.029  51.193  1.00  0.00     0.035 A 
HETATM   14  C7  UNL     1      22.272   4.080  50.268  1.00  0.00     0.029 A 
HETATM   15  C8  UNL     1      22.462   4.564  48.972  1.00  0.00     0.004 A 
HETATM   16  C9  UNL     1      23.703   5.009  48.574  1.00  0.00     0.019 A 
HETATM   17  C10 UNL     1      24.731   4.960  49.487  1.00  0.00     0.013 A 
HETATM   18 BR1  UNL     1      26.438   5.589  48.891  1.00  0.00    -0.051 Br
HETATM   19  C11 UNL     1      24.557   4.488  50.763  1.00  0.00     0.048 A 
ENDBRANCH  11  13
ENDBRANCH   4  11
BRANCH   1  20
HETATM   20  O1  UNL     1      27.648   2.183  54.308  1.00  0.00    -0.353 OA
HETATM   21  C1  UNL     1      28.720   2.534  53.484  1.00  0.00     0.210 C 
ENDBRANCH   1  20
BRANCH  10  22
HETATM   22  O2  UNL     1      27.501  -0.519  54.488  1.00  0.00    -0.353 OA
HETATM   23  C16 UNL     1      28.460  -1.092  53.648  1.00  0.00     0.210 C 
ENDBRANCH  10  22
TORSDOF 4
ENDMDL
MODEL 6
REMARK VINA RESULT:      -7.4      4.377      5.421
REMARK  4 active torsions:
REMARK  status: ('A' for Active; 'I' for Inactive)
REMARK    1  A    between atoms: O1_2  and  C2_3 
REMARK    2  A    between atoms: C5_6  and  N1_7 
REMARK    3  A    between atoms: N1_7  and  C6_8 
REMARK    4  A    between atoms: C15_20  and  O2_21 
ROOT
HETATM    1  C2  UNL     1      22.619   2.076  50.932  1.00  0.00     0.102 A 
HETATM    2  C3  UNL     1      23.860   2.394  50.457  1.00  0.00     0.057 A 
HETATM    3  C4  UNL     1      24.957   2.326  51.293  1.00  0.00     0.042 A 
HETATM    4  C5  UNL     1      26.221   2.650  50.820  1.00  0.00     0.142 A 
HETATM    5  N2  UNL     1      27.274   2.579  51.652  1.00  0.00    -0.224 NA
HETATM    6  C12 UNL     1      27.177   2.206  52.941  1.00  0.00     0.236 A 
HETATM    7  N3  UNL     1      25.962   1.885  53.427  1.00  0.00    -0.241 NA
HETATM    8  C13 UNL     1      24.882   1.948  52.615  1.00  0.00     0.075 A 
HETATM    9  C14 UNL     1      23.625   1.630  53.077  1.00  0.00     0.072 A 
HETATM   10  C15 UNL     1      22.526   1.697  52.240  1.00  0.00     0.103 A 
ENDROOT
BRANCH   4  11
HETATM   11  N1  UNL     1      26.388   3.047  49.464  1.00  0.00    -0.340 N 
HETATM   12  H5  UNL     1      26.351   2.424  48.627  1.00  0.00     0.167 HD
BRANCH  11  13
HETATM   13  C6  UNL     1      26.627   4.436  49.257  1.00  0.00     0.035 A 
HETATM   14  C7  UNL     1      27.763   4.856  48.578  1.00  0.00     0.029 A 
HETATM   15  C8  UNL     1      28.036   6.207  48.355  1.00  0.00     0.004 A 
HETATM   16  C9  UNL     1      27.168   7.173  48.814  1.00  0.00     0.019 A 
HETATM   17  C10 UNL     1      26.041   6.761  49.488  1.00  0.00     0.013 A 
HETATM   18 BR1  UNL     1      24.863   8.138  50.108  1.00  0.00    -0.051 Br
HETATM   19  C11 UNL     1      25.762   5.438  49.713  1.00  0.00     0.048 A 
ENDBRANCH  11  13
ENDBRANCH   4  11
BRANCH   1  20
HETATM   20  O1  UNL     1      21.436   2.092  50.229  1.00  0.00    -0.353 OA
HETATM   21  C1  UNL     1      21.017   1.168  49.270  1.00  0.00     0.210 C 
ENDBRANCH   1  20
BRANCH  10  22
HETATM   22  O2  UNL     1      21.319   1.350  52.835  1.00  0.00    -0.353 OA
HETATM   23  C16 UNL     1      21.207   0.411  53.863  1.00  0.00     0.210 C 
ENDBRANCH  10  22
TORSDOF 4
ENDMDL
MODEL 7
REMARK VINA RESULT:      -7.4      1.889      2.432
REMARK  4 active torsions:
REMARK  status: ('A' for Active; 'I' for Inactive)
REMARK    1  A    between atoms: O1_2  and  C2_3 
REMARK    2  A    between atoms: C5_6  and  N1_7 
REMARK    3  A    between atoms: N1_7  and  C6_8 
REMARK    4  A    between atoms: C15_20  and  O2_21 
ROOT
HETATM    1  C2  UNL     1      21.608   3.082  51.484  1.00  0.00     0.102 A 
HETATM    2  C3  UNL     1      22.784   2.396  51.598  1.00  0.00     0.057 A 
HETATM    3  C4  UNL     1      22.883   1.339  52.481  1.00  0.00     0.042 A 
HETATM    4  C5  UNL     1      24.074   0.638  52.605  1.00  0.00     0.142 A 
HETATM    5  N2  UNL     1      24.149  -0.386  53.472  1.00  0.00    -0.224 NA
HETATM    6  C12 UNL     1      23.120  -0.783  54.242  1.00  0.00     0.236 A 
HETATM    7  N3  UNL     1      21.950  -0.121  54.142  1.00  0.00    -0.241 NA
HETATM    8  C13 UNL     1      21.844   0.915  53.279  1.00  0.00     0.075 A 
HETATM    9  C14 UNL     1      20.665   1.616  53.151  1.00  0.00     0.072 A 
HETATM   10  C15 UNL     1      20.565   2.675  52.266  1.00  0.00     0.103 A 
ENDROOT
BRANCH   4  11
HETATM   11  N1  UNL     1      25.198   1.008  51.814  1.00  0.00    -0.340 N 
HETATM   12  H5  UNL     1      25.186   1.259  50.801  1.00  0.00     0.167 HD
BRANCH  11  13
HETATM   13  C6  UNL     1      26.448   1.029  52.496  1.00  0.00     0.035 A 
HETATM   14  C7  UNL     1      26.915   2.206  53.065  1.00  0.00     0.029 A 
HETATM   15  C8  UNL     1      28.136   2.270  53.740  1.00  0.00     0.004 A 
HETATM   16  C9  UNL     1      28.921   1.144  53.856  1.00  0.00     0.019 A 
HETATM   17  C10 UNL     1      28.463  -0.025  53.293  1.00  0.00     0.013 A 
HETATM   18 BR1  UNL     1      29.587  -1.564  53.481  1.00  0.00    -0.051 Br
HETATM   19  C11 UNL     1      27.265  -0.100  52.629  1.00  0.00     0.048 A 
ENDBRANCH  11  13
ENDBRANCH   4  11
BRANCH   1  20
HETATM   20  O1  UNL     1      21.351   4.150  50.655  1.00  0.00    -0.353 OA
HETATM   21  C1  UNL     1      22.033   5.367  50.620  1.00  0.00     0.210 C 
ENDBRANCH   1  20
BRANCH  10  22
HETATM   22  O2  UNL     1      19.322   3.293  52.238  1.00  0.00    -0.353 OA
HETATM   23  C16 UNL     1      18.191   2.727  51.645  1.00  0.00     0.210 C 
ENDBRANCH  10  22
TORSDOF 4
ENDMDL
MODEL 8
REMARK VINA RESULT:      -7.2      4.451      6.639
REMARK  4 active torsions:
REMARK  status: ('A' for Active; 'I' for Inactive)
REMARK    1  A    between atoms: O1_2  and  C2_3 
REMARK    2  A    between atoms: C5_6  and  N1_7 
REMARK    3  A    between atoms: N1_7  and  C6_8 
REMARK    4  A    between atoms: C15_20  and  O2_21 
ROOT
HETATM    1  C2  UNL     1      26.433   1.686  53.923  1.00  0.00     0.102 A 
HETATM    2  C3  UNL     1      25.256   2.165  53.422  1.00  0.00     0.057 A 
HETATM    3  C4  UNL     1      24.202   1.302  53.192  1.00  0.00     0.042 A 
HETATM    4  C5  UNL     1      23.004   1.779  52.682  1.00  0.00     0.142 A 
HETATM    5  N2  UNL     1      21.993   0.922  52.464  1.00  0.00    -0.224 NA
HETATM    6  C12 UNL     1      22.071  -0.397  52.715  1.00  0.00     0.236 A 
HETATM    7  N3  UNL     1      23.223  -0.889  53.212  1.00  0.00    -0.241 NA
HETATM    8  C13 UNL     1      24.260  -0.051  53.442  1.00  0.00     0.075 A 
HETATM    9  C14 UNL     1      25.453  -0.517  53.946  1.00  0.00     0.072 A 
HETATM   10  C15 UNL     1      26.509   0.346  54.178  1.00  0.00     0.103 A 
ENDROOT
BRANCH   4  11
HETATM   11  N1  UNL     1      22.858   3.166  52.401  1.00  0.00    -0.340 N 
HETATM   12  H5  UNL     1      22.741   3.932  53.101  1.00  0.00     0.167 HD
BRANCH  11  13
HETATM   13  C6  UNL     1      22.875   3.518  51.020  1.00  0.00     0.035 A 
HETATM   14  C7  UNL     1      24.017   4.067  50.453  1.00  0.00     0.029 A 
HETATM   15  C8  UNL     1      24.075   4.427  49.105  1.00  0.00     0.004 A 
HETATM   16  C9  UNL     1      22.978   4.242  48.292  1.00  0.00     0.019 A 
HETATM   17  C10 UNL     1      21.844   3.698  48.850  1.00  0.00     0.013 A 
HETATM   18 BR1  UNL     1      20.345   3.460  47.683  1.00  0.00    -0.051 Br
HETATM   19  C11 UNL     1      21.775   3.341  50.172  1.00  0.00     0.048 A 
ENDBRANCH  11  13
ENDBRANCH   4  11
BRANCH   1  20
HETATM   20  O1  UNL     1      27.567   2.412  54.206  1.00  0.00    -0.353 OA
HETATM   21  C1  UNL     1      28.675   2.597  53.376  1.00  0.00     0.210 C 
ENDBRANCH   1  20
BRANCH  10  22
HETATM   22  O2  UNL     1      27.652  -0.256  54.687  1.00  0.00    -0.353 OA
HETATM   23  C16 UNL     1      28.592  -0.921  53.896  1.00  0.00     0.210 C 
ENDBRANCH  10  22
TORSDOF 4
ENDMDL
MODEL 9
REMARK VINA RESULT:      -7.2      8.491     12.031
REMARK  4 active torsions:
REMARK  status: ('A' for Active; 'I' for Inactive)
REMARK    1  A    between atoms: O1_2  and  C2_3 
REMARK    2  A    between atoms: C5_6  and  N1_7 
REMARK    3  A    between atoms: N1_7  and  C6_8 
REMARK    4  A    between atoms: C15_20  and  O2_21 
ROOT
HETATM    1  C2  UNL     1      31.824   5.224  48.146  1.00  0.00     0.102 A 
HETATM    2  C3  UNL     1      30.555   5.707  47.997  1.00  0.00     0.057 A 
HETATM    3  C4  UNL     1      30.238   6.968  48.464  1.00  0.00     0.042 A 
HETATM    4  C5  UNL     1      28.952   7.466  48.319  1.00  0.00     0.142 A 
HETATM    5  N2  UNL     1      28.665   8.694  48.782  1.00  0.00    -0.224 NA
HETATM    6  C12 UNL     1      29.565   9.487  49.390  1.00  0.00     0.236 A 
HETATM    7  N3  UNL     1      30.824   9.029  49.544  1.00  0.00    -0.241 NA
HETATM    8  C13 UNL     1      31.144   7.796  49.088  1.00  0.00     0.075 A 
HETATM    9  C14 UNL     1      32.418   7.294  49.230  1.00  0.00     0.072 A 
HETATM   10  C15 UNL     1      32.737   6.032  48.762  1.00  0.00     0.103 A 
ENDROOT
BRANCH   4  11
HETATM   11  N1  UNL     1      27.955   6.676  47.680  1.00  0.00    -0.340 N 
HETATM   12  H5  UNL     1      27.791   6.599  46.652  1.00  0.00     0.167 HD
BRANCH  11  13
HETATM   13  C6  UNL     1      27.113   5.928  48.552  1.00  0.00     0.035 A 
HETATM   14  C7  UNL     1      27.351   4.577  48.766  1.00  0.00     0.029 A 
HETATM   15  C8  UNL     1      26.548   3.808  49.611  1.00  0.00     0.004 A 
HETATM   16  C9  UNL     1      25.480   4.384  50.263  1.00  0.00     0.019 A 
HETATM   17  C10 UNL     1      25.240   5.723  50.054  1.00  0.00     0.013 A 
HETATM   18 BR1  UNL     1      23.745   6.480  50.981  1.00  0.00    -0.051 Br
HETATM   19  C11 UNL     1      26.021   6.488  49.227  1.00  0.00     0.048 A 
ENDBRANCH  11  13
ENDBRANCH   4  11
BRANCH   1  20
HETATM   20  O1  UNL     1      32.295   3.997  47.737  1.00  0.00    -0.353 OA
HETATM   21  C1  UNL     1      32.495   3.571  46.422  1.00  0.00     0.210 C 
ENDBRANCH   1  20
BRANCH  10  22
HETATM   22  O2  UNL     1      34.056   5.650  48.970  1.00  0.00    -0.353 OA
HETATM   23  C16 UNL     1      35.139   6.215  48.292  1.00  0.00     0.210 C 
ENDBRANCH  10  22
TORSDOF 4
ENDMDL
