MODEL 1
REMARK VINA RESULT:      -8.0      0.000      0.000
REMARK  6 active torsions:
REMARK  status: ('A' for Active; 'I' for Inactive)
REMARK    1  A    between atoms: C3_3  and  O1_4 
REMARK    2  A    between atoms: C7_10  and  N2_11 
REMARK    3  A    between atoms: N2_11  and  C8_12 
REMARK    4  A    between atoms: C8_12  and  C9_13 
REMARK    5  A    between atoms: C10_14  and  C12_16 
REMARK    6  A    between atoms: C12_16  and  C13_17 
ROOT
HETATM    1  C1  UNL     1      29.874  -0.915  53.245  1.00  0.00     0.032 C 
HETATM    2  C2  UNL     1      28.549  -0.731  53.156  1.00  0.00     0.056 A 
HETATM    3  C3  UNL     1      27.784  -1.878  53.112  1.00  0.00     0.084 A 
HETATM    4  C4  UNL     1      26.427  -1.651  53.021  1.00  0.00     0.088 A 
HETATM    5  C5  UNL     1      25.851  -0.402  52.978  1.00  0.00     0.137 A 
HETATM    6  N1  UNL     1      26.633   0.687  53.023  1.00  0.00    -0.271 N 
HETATM    7  C6  UNL     1      27.973   0.527  53.112  1.00  0.00     0.263 A 
HETATM    8  O2  UNL     1      28.845   1.460  53.164  1.00  0.00    -0.267 OA
HETATM    9  C7  UNL     1      26.318   2.125  52.988  1.00  0.00     0.236 A 
HETATM   10  C14 UNL     1      24.849   2.236  52.899  1.00  0.00     0.082 A 
HETATM   11  C15 UNL     1      24.030   3.410  52.860  1.00  0.00     0.100 C 
HETATM   12  N3  UNL     1      23.365   4.375  52.847  1.00  0.00    -0.191 NA
HETATM   13  C16 UNL     1      24.092   1.117  52.858  1.00  0.00     0.141 A 
HETATM   14  N4  UNL     1      24.562  -0.247  52.895  1.00  0.00    -0.242 NA
ENDROOT
BRANCH   9  15
HETATM   15  N2  UNL     1      27.078   2.798  52.000  1.00  0.00    -0.394 N 
HETATM   16  H6  UNL     1      28.095   2.781  52.124  1.00  0.00     0.155 HD
BRANCH  15  17
HETATM   17  C8  UNL     1      26.575   2.642  50.683  1.00  0.00     0.144 C 
BRANCH  17  18
HETATM   18  C9  UNL     1      26.503   4.006  50.043  1.00  0.00    -0.005 C 
HETATM   19  C10 UNL     1      25.377   4.341  49.388  1.00  0.00    -0.084 C 
HETATM   20  C11 UNL     1      24.266   3.355  49.328  1.00  0.00     0.043 C 
BRANCH  19  21
HETATM   21  C12 UNL     1      25.294   5.683  48.752  1.00  0.00     0.065 C 
BRANCH  21  22
HETATM   22  C13 UNL     1      26.575   6.492  48.931  1.00  0.00     0.226 C 
HETATM   23  F1  UNL     1      27.415   6.344  47.849  1.00  0.00    -0.255 F 
ENDBRANCH  21  22
ENDBRANCH  19  21
ENDBRANCH  17  18
ENDBRANCH  15  17
ENDBRANCH   9  15
BRANCH   3  24
HETATM   24  O1  UNL     1      28.332  -3.149  53.154  1.00  0.00    -0.360 OA
HETATM   25  H3  UNL     1      27.942  -3.959  52.695  1.00  0.00     0.217 HD
ENDBRANCH   3  24
TORSDOF 6
ENDMDL
MODEL 2
REMARK VINA RESULT:      -7.5      4.527      6.596
REMARK  6 active torsions:
REMARK  status: ('A' for Active; 'I' for Inactive)
REMARK    1  A    between atoms: C3_3  and  O1_4 
REMARK    2  A    between atoms: C7_10  and  N2_11 
REMARK    3  A    between atoms: N2_11  and  C8_12 
REMARK    4  A    between atoms: C8_12  and  C9_13 
REMARK    5  A    between atoms: C10_14  and  C12_16 
REMARK    6  A    between atoms: C12_16  and  C13_17 
ROOT
HETATM    1  C1  UNL     1      19.255   0.882  50.383  1.00  0.00     0.032 C 
HETATM    2  C2  UNL     1      19.759   0.321  51.492  1.00  0.00     0.056 A 
HETATM    3  C3  UNL     1      18.848  -0.313  52.312  1.00  0.00     0.084 A 
HETATM    4  C4  UNL     1      19.401  -0.879  53.441  1.00  0.00     0.088 A 
HETATM    5  C5  UNL     1      20.741  -0.834  53.754  1.00  0.00     0.137 A 
HETATM    6  N1  UNL     1      21.591  -0.206  52.929  1.00  0.00    -0.271 N 
HETATM    7  C6  UNL     1      21.106   0.369  51.804  1.00  0.00     0.263 A 
HETATM    8  O2  UNL     1      21.784   0.999  50.923  1.00  0.00    -0.267 OA
HETATM    9  C7  UNL     1      23.046   0.012  52.995  1.00  0.00     0.236 A 
HETATM   10  C14 UNL     1      23.516  -0.640  54.233  1.00  0.00     0.082 A 
HETATM   11  C15 UNL     1      24.847  -0.742  54.754  1.00  0.00     0.100 C 
HETATM   12  N3  UNL     1      25.940  -0.838  55.165  1.00  0.00    -0.191 NA
HETATM   13  C16 UNL     1      22.632  -1.267  55.041  1.00  0.00     0.141 A 
HETATM   14  N4  UNL     1      21.208  -1.388  54.835  1.00  0.00    -0.242 NA
ENDROOT
BRANCH   9  15
HETATM   15  N2  UNL     1      23.374   1.378  52.820  1.00  0.00    -0.394 N 
HETATM   16  H6  UNL     1      23.303   1.969  53.654  1.00  0.00     0.155 HD
BRANCH  15  17
HETATM   17  C8  UNL     1      24.471   1.599  51.950  1.00  0.00     0.144 C 
BRANCH  17  18
HETATM   18  C9  UNL     1      25.587   2.226  52.749  1.00  0.00    -0.005 C 
HETATM   19  C10 UNL     1      26.794   1.633  52.726  1.00  0.00    -0.084 C 
HETATM   20  C11 UNL     1      26.968   0.398  51.917  1.00  0.00     0.043 C 
BRANCH  19  21
HETATM   21  C12 UNL     1      27.903   2.241  53.511  1.00  0.00     0.065 C 
BRANCH  21  22
HETATM   22  C13 UNL     1      29.035   1.254  53.777  1.00  0.00     0.226 C 
HETATM   23  F1  UNL     1      28.778   0.486  54.891  1.00  0.00    -0.255 F 
ENDBRANCH  21  22
ENDBRANCH  19  21
ENDBRANCH  17  18
ENDBRANCH  15  17
ENDBRANCH   9  15
BRANCH   3  24
HETATM   24  O1  UNL     1      17.495  -0.376  52.026  1.00  0.00    -0.360 OA
HETATM   25  H3  UNL     1      16.771   0.067  52.570  1.00  0.00     0.217 HD
ENDBRANCH   3  24
TORSDOF 6
ENDMDL
MODEL 3
REMARK VINA RESULT:      -7.2      2.891      4.341
REMARK  6 active torsions:
REMARK  status: ('A' for Active; 'I' for Inactive)
REMARK    1  A    between atoms: C3_3  and  O1_4 
REMARK    2  A    between atoms: C7_10  and  N2_11 
REMARK    3  A    between atoms: N2_11  and  C8_12 
REMARK    4  A    between atoms: C8_12  and  C9_13 
REMARK    5  A    between atoms: C10_14  and  C12_16 
REMARK    6  A    between atoms: C12_16  and  C13_17 
ROOT
HETATM    1  C1  UNL     1      20.861  -0.151  52.611  1.00  0.00     0.032 C 
HETATM    2  C2  UNL     1      22.019  -0.305  53.270  1.00  0.00     0.056 A 
HETATM    3  C3  UNL     1      21.959  -1.059  54.424  1.00  0.00     0.084 A 
HETATM    4  C4  UNL     1      23.167  -1.197  55.073  1.00  0.00     0.088 A 
HETATM    5  C5  UNL     1      24.350  -0.646  54.636  1.00  0.00     0.137 A 
HETATM    6  N1  UNL     1      24.363   0.080  53.508  1.00  0.00    -0.271 N 
HETATM    7  C6  UNL     1      23.207   0.251  52.827  1.00  0.00     0.263 A 
HETATM    8  O2  UNL     1      23.057   0.910  51.743  1.00  0.00    -0.267 OA
HETATM    9  C7  UNL     1      25.448   0.787  52.807  1.00  0.00     0.236 A 
HETATM   10  C14 UNL     1      26.678   0.559  53.589  1.00  0.00     0.082 A 
HETATM   11  C15 UNL     1      28.013   1.007  53.328  1.00  0.00     0.100 C 
HETATM   12  N3  UNL     1      29.107   1.362  53.099  1.00  0.00    -0.191 NA
HETATM   13  C16 UNL     1      26.629  -0.180  54.720  1.00  0.00     0.141 A 
HETATM   14  N4  UNL     1      25.463  -0.812  55.290  1.00  0.00    -0.242 NA
ENDROOT
BRANCH   9  15
HETATM   15  N2  UNL     1      25.096   2.131  52.531  1.00  0.00    -0.394 N 
HETATM   16  H6  UNL     1      24.886   2.718  53.344  1.00  0.00     0.155 HD
BRANCH  15  17
HETATM   17  C8  UNL     1      25.842   2.715  51.475  1.00  0.00     0.144 C 
BRANCH  17  18
HETATM   18  C9  UNL     1      25.005   3.807  50.858  1.00  0.00    -0.005 C 
HETATM   19  C10 UNL     1      25.497   4.454  49.786  1.00  0.00    -0.084 C 
HETATM   20  C11 UNL     1      26.833   4.061  49.266  1.00  0.00     0.043 C 
BRANCH  19  21
HETATM   21  C12 UNL     1      24.681   5.534  49.167  1.00  0.00     0.065 C 
BRANCH  21  22
HETATM   22  C13 UNL     1      24.548   6.754  50.075  1.00  0.00     0.226 C 
HETATM   23  F1  UNL     1      25.745   7.055  50.686  1.00  0.00    -0.255 F 
ENDBRANCH  21  22
ENDBRANCH  19  21
ENDBRANCH  17  18
ENDBRANCH  15  17
ENDBRANCH   9  15
BRANCH   3  24
HETATM   24  O1  UNL     1      20.786  -1.626  54.891  1.00  0.00    -0.360 OA
HETATM   25  H3  UNL     1      20.691  -2.109  55.771  1.00  0.00     0.217 HD
ENDBRANCH   3  24
TORSDOF 6
ENDMDL
MODEL 4
REMARK VINA RESULT:      -7.2      3.209      4.683
REMARK  6 active torsions:
REMARK  status: ('A' for Active; 'I' for Inactive)
REMARK    1  A    between atoms: C3_3  and  O1_4 
REMARK    2  A    between atoms: C7_10  and  N2_11 
REMARK    3  A    between atoms: N2_11  and  C8_12 
REMARK    4  A    between atoms: C8_12  and  C9_13 
REMARK    5  A    between atoms: C10_14  and  C12_16 
REMARK    6  A    between atoms: C12_16  and  C13_17 
ROOT
HETATM    1  C1  UNL     1      21.177  -0.421  54.614  1.00  0.00     0.032 C 
HETATM    2  C2  UNL     1      22.464  -0.264  54.269  1.00  0.00     0.056 A 
HETATM    3  C3  UNL     1      23.364  -1.082  54.920  1.00  0.00     0.084 A 
HETATM    4  C4  UNL     1      24.677  -0.894  54.540  1.00  0.00     0.088 A 
HETATM    5  C5  UNL     1      25.087   0.019  53.596  1.00  0.00     0.137 A 
HETATM    6  N1  UNL     1      24.177   0.794  52.987  1.00  0.00    -0.271 N 
HETATM    7  C6  UNL     1      22.873   0.655  53.319  1.00  0.00     0.263 A 
HETATM    8  O2  UNL     1      21.893   1.315  52.831  1.00  0.00    -0.267 OA
HETATM    9  C7  UNL     1      24.308   1.845  51.964  1.00  0.00     0.236 A 
HETATM   10  C14 UNL     1      25.744   1.944  51.639  1.00  0.00     0.082 A 
HETATM   11  C15 UNL     1      26.401   2.794  50.691  1.00  0.00     0.100 C 
HETATM   12  N3  UNL     1      26.930   3.478  49.900  1.00  0.00    -0.191 NA
HETATM   13  C16 UNL     1      26.633   1.146  52.269  1.00  0.00     0.141 A 
HETATM   14  N4  UNL     1      26.341   0.152  53.274  1.00  0.00    -0.242 NA
ENDROOT
BRANCH   9  15
HETATM   15  N2  UNL     1      23.650   3.036  52.358  1.00  0.00    -0.394 N 
HETATM   16  H6  UNL     1      23.973   3.461  53.232  1.00  0.00     0.155 HD
BRANCH  15  17
HETATM   17  C8  UNL     1      23.340   3.904  51.280  1.00  0.00     0.144 C 
BRANCH  17  18
HETATM   18  C9  UNL     1      22.715   3.082  50.179  1.00  0.00    -0.005 C 
HETATM   19  C10 UNL     1      22.902   3.480  48.908  1.00  0.00    -0.084 C 
HETATM   20  C11 UNL     1      23.710   4.701  48.652  1.00  0.00     0.043 C 
BRANCH  19  21
HETATM   21  C12 UNL     1      22.291   2.678  47.813  1.00  0.00     0.065 C 
BRANCH  21  22
HETATM   22  C13 UNL     1      21.153   1.791  48.308  1.00  0.00     0.226 C 
HETATM   23  F1  UNL     1      21.575   0.492  48.490  1.00  0.00    -0.255 F 
ENDBRANCH  21  22
ENDBRANCH  19  21
ENDBRANCH  17  18
ENDBRANCH  15  17
ENDBRANCH   9  15
BRANCH   3  24
HETATM   24  O1  UNL     1      22.984  -2.010  55.874  1.00  0.00    -0.360 OA
HETATM   25  H3  UNL     1      22.654  -1.782  56.800  1.00  0.00     0.217 HD
ENDBRANCH   3  24
TORSDOF 6
ENDMDL
MODEL 5
REMARK VINA RESULT:      -7.2      3.726      6.039
REMARK  6 active torsions:
REMARK  status: ('A' for Active; 'I' for Inactive)
REMARK    1  A    between atoms: C3_3  and  O1_4 
REMARK    2  A    between atoms: C7_10  and  N2_11 
REMARK    3  A    between atoms: N2_11  and  C8_12 
REMARK    4  A    between atoms: C8_12  and  C9_13 
REMARK    5  A    between atoms: C10_14  and  C12_16 
REMARK    6  A    between atoms: C12_16  and  C13_17 
ROOT
HETATM    1  C1  UNL     1      21.691  -1.739  54.583  1.00  0.00     0.032 C 
HETATM    2  C2  UNL     1      21.498  -0.641  53.839  1.00  0.00     0.056 A 
HETATM    3  C3  UNL     1      20.193  -0.387  53.469  1.00  0.00     0.084 A 
HETATM    4  C4  UNL     1      20.031   0.750  52.706  1.00  0.00     0.088 A 
HETATM    5  C5  UNL     1      21.060   1.583  52.328  1.00  0.00     0.137 A 
HETATM    6  N1  UNL     1      22.314   1.298  52.709  1.00  0.00    -0.271 N 
HETATM    7  C6  UNL     1      22.534   0.194  53.460  1.00  0.00     0.263 A 
HETATM    8  O2  UNL     1      23.665  -0.209  53.899  1.00  0.00    -0.267 OA
HETATM    9  C7  UNL     1      23.595   1.979  52.460  1.00  0.00     0.236 A 
HETATM   10  C14 UNL     1      23.291   3.172  51.648  1.00  0.00     0.082 A 
HETATM   11  C15 UNL     1      24.178   4.184  51.156  1.00  0.00     0.100 C 
HETATM   12  N3  UNL     1      24.907   5.018  50.772  1.00  0.00    -0.191 NA
HETATM   13  C16 UNL     1      22.015   3.431  51.283  1.00  0.00     0.141 A 
HETATM   14  N4  UNL     1      20.848   2.646  51.608  1.00  0.00    -0.242 NA
ENDROOT
BRANCH   9  15
HETATM   15  N2  UNL     1      24.568   1.083  51.953  1.00  0.00    -0.394 N 
HETATM   16  H6  UNL     1      24.364   0.665  51.040  1.00  0.00     0.155 HD
BRANCH  15  17
HETATM   17  C8  UNL     1      25.905   1.481  52.209  1.00  0.00     0.144 C 
BRANCH  17  18
HETATM   18  C9  UNL     1      26.790   0.265  52.082  1.00  0.00    -0.005 C 
HETATM   19  C10 UNL     1      27.377  -0.211  53.194  1.00  0.00    -0.084 C 
HETATM   20  C11 UNL     1      27.125   0.480  54.486  1.00  0.00     0.043 C 
BRANCH  19  21
HETATM   21  C12 UNL     1      28.252  -1.409  53.083  1.00  0.00     0.065 C 
BRANCH  21  22
HETATM   22  C13 UNL     1      29.650  -1.162  53.644  1.00  0.00     0.226 C 
HETATM   23  F1  UNL     1      30.190   0.003  53.146  1.00  0.00    -0.255 F 
ENDBRANCH  21  22
ENDBRANCH  19  21
ENDBRANCH  17  18
ENDBRANCH  15  17
ENDBRANCH   9  15
BRANCH   3  24
HETATM   24  O1  UNL     1      19.136  -1.204  53.833  1.00  0.00    -0.360 OA
HETATM   25  H3  UNL     1      19.157  -1.869  54.591  1.00  0.00     0.217 HD
ENDBRANCH   3  24
TORSDOF 6
ENDMDL
MODEL 6
REMARK VINA RESULT:      -7.1      3.111      6.383
REMARK  6 active torsions:
REMARK  status: ('A' for Active; 'I' for Inactive)
REMARK    1  A    between atoms: C3_3  and  O1_4 
REMARK    2  A    between atoms: C7_10  and  N2_11 
REMARK    3  A    between atoms: N2_11  and  C8_12 
REMARK    4  A    between atoms: C8_12  and  C9_13 
REMARK    5  A    between atoms: C10_14  and  C12_16 
REMARK    6  A    between atoms: C12_16  and  C13_17 
ROOT
HETATM    1  C1  UNL     1      27.604   5.058  48.573  1.00  0.00     0.032 C 
HETATM    2  C2  UNL     1      26.521   4.986  49.359  1.00  0.00     0.056 A 
HETATM    3  C3  UNL     1      25.857   6.176  49.578  1.00  0.00     0.084 A 
HETATM    4  C4  UNL     1      24.748   6.064  50.390  1.00  0.00     0.088 A 
HETATM    5  C5  UNL     1      24.312   4.885  50.949  1.00  0.00     0.137 A 
HETATM    6  N1  UNL     1      24.987   3.751  50.710  1.00  0.00    -0.271 N 
HETATM    7  C6  UNL     1      26.085   3.798  49.921  1.00  0.00     0.263 A 
HETATM    8  O2  UNL     1      26.830   2.811  49.600  1.00  0.00    -0.267 OA
HETATM    9  C7  UNL     1      24.776   2.366  51.163  1.00  0.00     0.236 A 
HETATM   10  C14 UNL     1      23.567   2.378  52.010  1.00  0.00     0.082 A 
HETATM   11  C15 UNL     1      22.918   1.288  52.676  1.00  0.00     0.100 C 
HETATM   12  N3  UNL     1      22.381   0.389  53.203  1.00  0.00    -0.191 NA
HETATM   13  C16 UNL     1      22.909   3.538  52.228  1.00  0.00     0.141 A 
HETATM   14  N4  UNL     1      23.255   4.838  51.707  1.00  0.00    -0.242 NA
ENDROOT
BRANCH   9  15
HETATM   15  N2  UNL     1      25.954   1.819  51.727  1.00  0.00    -0.394 N 
HETATM   16  H6  UNL     1      26.779   1.803  51.118  1.00  0.00     0.155 HD
BRANCH  15  17
HETATM   17  C8  UNL     1      26.151   2.158  53.089  1.00  0.00     0.144 C 
BRANCH  17  18
HETATM   18  C9  UNL     1      27.506   1.646  53.511  1.00  0.00    -0.005 C 
HETATM   19  C10 UNL     1      27.555   0.581  54.331  1.00  0.00    -0.084 C 
HETATM   20  C11 UNL     1      26.278  -0.034  54.779  1.00  0.00     0.043 C 
BRANCH  19  21
HETATM   21  C12 UNL     1      28.885   0.067  54.754  1.00  0.00     0.065 C 
BRANCH  21  22
HETATM   22  C13 UNL     1      29.542  -0.797  53.681  1.00  0.00     0.226 C 
HETATM   23  F1  UNL     1      28.706  -1.813  53.276  1.00  0.00    -0.255 F 
ENDBRANCH  21  22
ENDBRANCH  19  21
ENDBRANCH  17  18
ENDBRANCH  15  17
ENDBRANCH   9  15
BRANCH   3  24
HETATM   24  O1  UNL     1      26.270   7.378  49.031  1.00  0.00    -0.360 OA
HETATM   25  H3  UNL     1      25.651   8.120  48.738  1.00  0.00     0.217 HD
ENDBRANCH   3  24
TORSDOF 6
ENDMDL
MODEL 7
REMARK VINA RESULT:      -7.0      2.763      4.054
REMARK  6 active torsions:
REMARK  status: ('A' for Active; 'I' for Inactive)
REMARK    1  A    between atoms: C3_3  and  O1_4 
REMARK    2  A    between atoms: C7_10  and  N2_11 
REMARK    3  A    between atoms: N2_11  and  C8_12 
REMARK    4  A    between atoms: C8_12  and  C9_13 
REMARK    5  A    between atoms: C10_14  and  C12_16 
REMARK    6  A    between atoms: C12_16  and  C13_17 
ROOT
HETATM    1  C1  UNL     1      21.342  -0.761  54.572  1.00  0.00     0.032 C 
HETATM    2  C2  UNL     1      22.623  -0.490  54.284  1.00  0.00     0.056 A 
HETATM    3  C3  UNL     1      23.564  -1.172  55.028  1.00  0.00     0.084 A 
HETATM    4  C4  UNL     1      24.869  -0.869  54.704  1.00  0.00     0.088 A 
HETATM    5  C5  UNL     1      25.238   0.029  53.729  1.00  0.00     0.137 A 
HETATM    6  N1  UNL     1      24.291   0.671  53.030  1.00  0.00    -0.271 N 
HETATM    7  C6  UNL     1      22.990   0.414  53.303  1.00  0.00     0.263 A 
HETATM    8  O2  UNL     1      21.978   0.941  52.727  1.00  0.00    -0.267 OA
HETATM    9  C7  UNL     1      24.371   1.672  51.953  1.00  0.00     0.236 A 
HETATM   10  C14 UNL     1      25.806   1.903  51.696  1.00  0.00     0.082 A 
HETATM   11  C15 UNL     1      26.427   2.764  50.733  1.00  0.00     0.100 C 
HETATM   12  N3  UNL     1      26.927   3.456  49.930  1.00  0.00    -0.191 NA
HETATM   13  C16 UNL     1      26.735   1.237  52.418  1.00  0.00     0.141 A 
HETATM   14  N4  UNL     1      26.489   0.274  53.464  1.00  0.00    -0.242 NA
ENDROOT
BRANCH   9  15
HETATM   15  N2  UNL     1      23.575   2.807  52.241  1.00  0.00    -0.394 N 
HETATM   16  H6  UNL     1      23.768   3.279  53.129  1.00  0.00     0.155 HD
BRANCH  15  17
HETATM   17  C8  UNL     1      23.303   3.620  51.111  1.00  0.00     0.144 C 
BRANCH  17  18
HETATM   18  C9  UNL     1      23.480   5.062  51.516  1.00  0.00    -0.005 C 
HETATM   19  C10 UNL     1      23.875   5.941  50.577  1.00  0.00    -0.084 C 
HETATM   20  C11 UNL     1      24.115   5.449  49.195  1.00  0.00     0.043 C 
BRANCH  19  21
HETATM   21  C12 UNL     1      24.053   7.367  50.963  1.00  0.00     0.065 C 
BRANCH  21  22
HETATM   22  C13 UNL     1      25.101   8.073  50.109  1.00  0.00     0.226 C 
HETATM   23  F1  UNL     1      26.377   7.766  50.527  1.00  0.00    -0.255 F 
ENDBRANCH  21  22
ENDBRANCH  19  21
ENDBRANCH  17  18
ENDBRANCH  15  17
ENDBRANCH   9  15
BRANCH   3  24
HETATM   24  O1  UNL     1      23.226  -2.081  56.015  1.00  0.00    -0.360 OA
HETATM   25  H3  UNL     1      23.241  -3.084  55.904  1.00  0.00     0.217 HD
ENDBRANCH   3  24
TORSDOF 6
ENDMDL
MODEL 8
REMARK VINA RESULT:      -6.8      4.093      7.075
REMARK  6 active torsions:
REMARK  status: ('A' for Active; 'I' for Inactive)
REMARK    1  A    between atoms: C3_3  and  O1_4 
REMARK    2  A    between atoms: C7_10  and  N2_11 
REMARK    3  A    between atoms: N2_11  and  C8_12 
REMARK    4  A    between atoms: C8_12  and  C9_13 
REMARK    5  A    between atoms: C10_14  and  C12_16 
REMARK    6  A    between atoms: C12_16  and  C13_17 
ROOT
HETATM    1  C1  UNL     1      22.790   5.516  50.387  1.00  0.00     0.032 C 
HETATM    2  C2  UNL     1      23.830   4.698  50.607  1.00  0.00     0.056 A 
HETATM    3  C3  UNL     1      24.835   4.738  49.664  1.00  0.00     0.084 A 
HETATM    4  C4  UNL     1      25.888   3.885  49.922  1.00  0.00     0.088 A 
HETATM    5  C5  UNL     1      25.962   3.054  51.017  1.00  0.00     0.137 A 
HETATM    6  N1  UNL     1      24.961   3.048  51.910  1.00  0.00    -0.271 N 
HETATM    7  C6  UNL     1      23.900   3.864  51.708  1.00  0.00     0.263 A 
HETATM    8  O2  UNL     1      22.875   3.972  52.463  1.00  0.00    -0.267 OA
HETATM    9  C7  UNL     1      24.753   2.280  53.149  1.00  0.00     0.236 A 
HETATM   10  C14 UNL     1      25.939   1.419  53.317  1.00  0.00     0.082 A 
HETATM   11  C15 UNL     1      26.247   0.497  54.370  1.00  0.00     0.100 C 
HETATM   12  N3  UNL     1      26.502  -0.241  55.244  1.00  0.00    -0.191 NA
HETATM   13  C16 UNL     1      26.931   1.452  52.400  1.00  0.00     0.141 A 
HETATM   14  N4  UNL     1      26.982   2.271  51.212  1.00  0.00    -0.242 NA
ENDROOT
BRANCH   9  15
HETATM   15  N2  UNL     1      23.487   1.646  53.160  1.00  0.00    -0.394 N 
HETATM   16  H6  UNL     1      22.698   2.210  52.831  1.00  0.00     0.155 HD
BRANCH  15  17
HETATM   17  C8  UNL     1      23.524   0.282  52.776  1.00  0.00     0.144 C 
BRANCH  17  18
HETATM   18  C9  UNL     1      22.126  -0.275  52.882  1.00  0.00    -0.005 C 
HETATM   19  C10 UNL     1      21.808  -0.987  53.978  1.00  0.00    -0.084 C 
HETATM   20  C11 UNL     1      22.845  -1.189  55.024  1.00  0.00     0.043 C 
BRANCH  19  21
HETATM   21  C12 UNL     1      20.432  -1.542  54.095  1.00  0.00     0.065 C 
BRANCH  21  22
HETATM   22  C13 UNL     1      19.394  -0.674  53.390  1.00  0.00     0.226 C 
HETATM   23  F1  UNL     1      18.114  -1.088  53.682  1.00  0.00    -0.255 F 
ENDBRANCH  21  22
ENDBRANCH  19  21
ENDBRANCH  17  18
ENDBRANCH  15  17
ENDBRANCH   9  15
BRANCH   3  24
HETATM   24  O1  UNL     1      24.792   5.561  48.552  1.00  0.00    -0.360 OA
HETATM   25  H3  UNL     1      25.602   5.905  48.059  1.00  0.00     0.217 HD
ENDBRANCH   3  24
TORSDOF 6
ENDMDL
MODEL 9
REMARK VINA RESULT:      -6.6      3.397      6.646
REMARK  6 active torsions:
REMARK  status: ('A' for Active; 'I' for Inactive)
REMARK    1  A    between atoms: C3_3  and  O1_4 
REMARK    2  A    between atoms: C7_10  and  N2_11 
REMARK    3  A    between atoms: N2_11  and  C8_12 
REMARK    4  A    between atoms: C8_12  and  C9_13 
REMARK    5  A    between atoms: C10_14  and  C12_16 
REMARK    6  A    between atoms: C12_16  and  C13_17 
ROOT
HETATM    1  C1  UNL     1      27.070   4.703  48.851  1.00  0.00     0.032 C 
HETATM    2  C2  UNL     1      25.985   5.230  49.435  1.00  0.00     0.056 A 
HETATM    3  C3  UNL     1      26.076   6.561  49.786  1.00  0.00     0.084 A 
HETATM    4  C4  UNL     1      24.942   7.069  50.383  1.00  0.00     0.088 A 
HETATM    5  C5  UNL     1      23.799   6.340  50.623  1.00  0.00     0.137 A 
HETATM    6  N1  UNL     1      23.754   5.048  50.266  1.00  0.00    -0.271 N 
HETATM    7  C6  UNL     1      24.838   4.494  49.676  1.00  0.00     0.263 A 
HETATM    8  O2  UNL     1      24.948   3.284  49.280  1.00  0.00    -0.267 OA
HETATM    9  C7  UNL     1      22.699   4.029  50.396  1.00  0.00     0.236 A 
HETATM   10  C14 UNL     1      21.546   4.691  51.036  1.00  0.00     0.082 A 
HETATM   11  C15 UNL     1      20.260   4.153  51.366  1.00  0.00     0.100 C 
HETATM   12  N3  UNL     1      19.203   3.711  51.616  1.00  0.00    -0.191 NA
HETATM   13  C16 UNL     1      21.625   5.996  51.380  1.00  0.00     0.141 A 
HETATM   14  N4  UNL     1      22.756   6.873  51.188  1.00  0.00    -0.242 NA
ENDROOT
BRANCH   9  15
HETATM   15  N2  UNL     1      23.190   2.850  51.009  1.00  0.00    -0.394 N 
HETATM   16  H6  UNL     1      23.940   2.363  50.511  1.00  0.00     0.155 HD
BRANCH  15  17
HETATM   17  C8  UNL     1      23.284   2.934  52.421  1.00  0.00     0.144 C 
BRANCH  17  18
HETATM   18  C9  UNL     1      24.614   2.355  52.838  1.00  0.00    -0.005 C 
HETATM   19  C10 UNL     1      24.646   1.077  53.256  1.00  0.00    -0.084 C 
HETATM   20  C11 UNL     1      23.377   0.303  53.285  1.00  0.00     0.043 C 
BRANCH  19  21
HETATM   21  C12 UNL     1      25.951   0.494  53.671  1.00  0.00     0.065 C 
BRANCH  21  22
HETATM   22  C13 UNL     1      26.301  -0.765  52.883  1.00  0.00     0.226 C 
HETATM   23  F1  UNL     1      26.829  -0.453  51.650  1.00  0.00    -0.255 F 
ENDBRANCH  21  22
ENDBRANCH  19  21
ENDBRANCH  17  18
ENDBRANCH  15  17
ENDBRANCH   9  15
BRANCH   3  24
HETATM   24  O1  UNL     1      27.210   7.322  49.558  1.00  0.00    -0.360 OA
HETATM   25  H3  UNL     1      27.522   8.080  50.147  1.00  0.00     0.217 HD
ENDBRANCH   3  24
TORSDOF 6
ENDMDL
