MODEL 1
REMARK VINA RESULT:      -8.9      0.000      0.000
REMARK  8 active torsions:
REMARK  status: ('A' for Active; 'I' for Inactive)
REMARK    1  A    between atoms: O1_2  and  C2_3 
REMARK    2  A    between atoms: C5_6  and  O2_7 
REMARK    3  A    between atoms: C7_9  and  C8_10 
REMARK    4  A    between atoms: C8_10  and  C9_11 
REMARK    5  A    between atoms: C12_14  and  N1_15 
REMARK    6  A    between atoms: C13_17  and  N3_18 
REMARK    7  A    between atoms: N5_21  and  N6_22 
REMARK    8  A    between atoms: N6_22  and  C15_23 
ROOT
HETATM    1  C9  UNL     1      23.117   2.183  52.345  1.00  0.00     0.010 C 
HETATM    2  C10 UNL     1      23.958   2.600  51.431  1.00  0.00     0.057 C 
HETATM    3  C11 UNL     1      23.377   3.115  50.197  1.00  0.00     0.082 C 
HETATM    4  C12 UNL     1      23.805   3.931  49.218  1.00  0.00     0.142 C 
HETATM    5  N2  UNL     1      25.047   4.633  49.007  1.00  0.00    -0.046 NA
HETATM    6  C13 UNL     1      26.269   4.499  49.418  1.00  0.00     0.723 C 
HETATM    7  N4  UNL     1      26.933   3.570  50.283  1.00  0.00    -0.056 NA
HETATM    8  C14 UNL     1      26.596   2.753  51.239  1.00  0.00     0.252 C 
HETATM    9  N5  UNL     1      25.323   2.477  51.809  1.00  0.00    -0.249 N 
ENDROOT
BRANCH   1  10
HETATM   10  C8  UNL     1      21.658   2.107  52.424  1.00  0.00     0.071 C 
BRANCH  10  11
HETATM   11  C7  UNL     1      21.337   0.819  53.107  1.00  0.00    -0.019 A 
HETATM   12  C5  UNL     1      20.121   0.178  52.894  1.00  0.00     0.074 A 
HETATM   13  C4  UNL     1      19.735  -1.008  53.478  1.00  0.00     0.040 A 
HETATM   14  C3  UNL     1      20.647  -1.586  54.337  1.00  0.00     0.039 A 
HETATM   15  C2  UNL     1      21.875  -0.970  54.572  1.00  0.00     0.068 A 
HETATM   16  C21 UNL     1      22.224   0.221  53.967  1.00  0.00     0.047 A 
BRANCH  12  17
HETATM   17  O2  UNL     1      19.257   0.816  52.021  1.00  0.00    -0.355 OA
HETATM   18  C6  UNL     1      18.359   0.069  51.217  1.00  0.00     0.210 C 
ENDBRANCH  12  17
BRANCH  15  19
HETATM   19  O1  UNL     1      22.681  -1.673  55.459  1.00  0.00    -0.356 OA
HETATM   20  C1  UNL     1      24.049  -1.307  55.547  1.00  0.00     0.210 C 
ENDBRANCH  15  19
ENDBRANCH  10  11
ENDBRANCH   1  10
BRANCH   9  21
HETATM   21  N6  UNL     1      25.511   1.933  53.101  1.00  0.00    -0.293 N 
HETATM   22  H18 UNL     1      25.086   2.243  54.026  1.00  0.00     0.187 HD
BRANCH  21  23
HETATM   23  C15 UNL     1      26.392   0.821  53.146  1.00  0.00     0.048 A 
HETATM   24  C16 UNL     1      26.092  -0.368  52.542  1.00  0.00     0.032 A 
HETATM   25  C17 UNL     1      26.892  -1.509  52.535  1.00  0.00     0.026 A 
HETATM   26  C18 UNL     1      28.098  -1.372  53.222  1.00  0.00     0.034 A 
HETATM   27 CL1  UNL     1      29.175  -2.759  53.271  1.00  0.00    -0.084 Cl
HETATM   28  C19 UNL     1      28.480  -0.219  53.855  1.00  0.00     0.026 A 
HETATM   29  C20 UNL     1      27.610   0.868  53.805  1.00  0.00     0.032 A 
ENDBRANCH  21  23
ENDBRANCH   9  21
BRANCH   4  30
HETATM   30  N1  UNL     1      22.832   4.130  48.200  1.00  0.00    -0.383 N 
HETATM   31  H13 UNL     1      22.623   3.338  47.543  1.00  0.00     0.157 HD
HETATM   32  H14 UNL     1      22.366   5.062  48.155  1.00  0.00     0.157 HD
ENDBRANCH   4  30
BRANCH   6  33
HETATM   33  N3  UNL     1      27.170   5.485  48.907  1.00  0.00    -0.231 N 
HETATM   34  H15 UNL     1      26.983   6.375  48.380  1.00  0.00     0.174 HD
HETATM   35  H16 UNL     1      28.226   5.598  48.909  1.00  0.00     0.174 HD
ENDBRANCH   6  33
TORSDOF 8
ENDMDL
MODEL 2
REMARK VINA RESULT:      -8.6      3.089      5.842
REMARK  8 active torsions:
REMARK  status: ('A' for Active; 'I' for Inactive)
REMARK    1  A    between atoms: O1_2  and  C2_3 
REMARK    2  A    between atoms: C5_6  and  O2_7 
REMARK    3  A    between atoms: C7_9  and  C8_10 
REMARK    4  A    between atoms: C8_10  and  C9_11 
REMARK    5  A    between atoms: C12_14  and  N1_15 
REMARK    6  A    between atoms: C13_17  and  N3_18 
REMARK    7  A    between atoms: N5_21  and  N6_22 
REMARK    8  A    between atoms: N6_22  and  C15_23 
ROOT
HETATM    1  C9  UNL     1      23.176   0.378  52.477  1.00  0.00     0.010 C 
HETATM    2  C10 UNL     1      24.333   0.510  53.077  1.00  0.00     0.057 C 
HETATM    3  C11 UNL     1      24.490  -0.186  54.349  1.00  0.00     0.082 C 
HETATM    4  C12 UNL     1      25.540  -0.609  55.074  1.00  0.00     0.142 C 
HETATM    5  N2  UNL     1      26.964  -0.533  54.861  1.00  0.00    -0.046 NA
HETATM    6  C13 UNL     1      27.760   0.214  54.161  1.00  0.00     0.723 C 
HETATM    7  N4  UNL     1      27.561   1.319  53.270  1.00  0.00    -0.056 NA
HETATM    8  C14 UNL     1      26.589   1.792  52.544  1.00  0.00     0.252 C 
HETATM    9  N5  UNL     1      25.258   1.326  52.370  1.00  0.00    -0.249 N 
ENDROOT
BRANCH   1  10
HETATM   10  C8  UNL     1      21.941  -0.338  52.796  1.00  0.00     0.071 C 
BRANCH  10  11
HETATM   11  C7  UNL     1      20.913   0.134  51.821  1.00  0.00    -0.019 A 
HETATM   12  C5  UNL     1      19.556  -0.054  52.063  1.00  0.00     0.074 A 
HETATM   13  C4  UNL     1      18.538   0.343  51.225  1.00  0.00     0.040 A 
HETATM   14  C3  UNL     1      18.922   0.978  50.062  1.00  0.00     0.039 A 
HETATM   15  C2  UNL     1      20.274   1.183  49.790  1.00  0.00     0.068 A 
HETATM   16  C21 UNL     1      21.266   0.768  50.656  1.00  0.00     0.047 A 
BRANCH  12  17
HETATM   17  O2  UNL     1      19.247  -0.698  53.248  1.00  0.00    -0.355 OA
HETATM   18  C6  UNL     1      18.078  -1.493  53.356  1.00  0.00     0.210 C 
ENDBRANCH  12  17
BRANCH  15  19
HETATM   19  O1  UNL     1      20.498   1.833  48.583  1.00  0.00    -0.356 OA
HETATM   20  C1  UNL     1      21.828   1.874  48.087  1.00  0.00     0.210 C 
ENDBRANCH  15  19
ENDBRANCH  10  11
ENDBRANCH   1  10
BRANCH   9  21
HETATM   21  N6  UNL     1      24.753   1.833  51.150  1.00  0.00    -0.293 N 
HETATM   22  H18 UNL     1      24.500   1.308  50.260  1.00  0.00     0.187 HD
BRANCH  21  23
HETATM   23  C15 UNL     1      24.566   3.241  51.135  1.00  0.00     0.048 A 
HETATM   24  C16 UNL     1      25.242   4.054  50.269  1.00  0.00     0.032 A 
HETATM   25  C17 UNL     1      25.124   5.440  50.184  1.00  0.00     0.026 A 
HETATM   26  C18 UNL     1      24.221   5.998  51.088  1.00  0.00     0.034 A 
HETATM   27 CL1  UNL     1      24.005   7.742  51.059  1.00  0.00    -0.084 Cl
HETATM   28  C19 UNL     1      23.502   5.260  51.991  1.00  0.00     0.026 A 
HETATM   29  C20 UNL     1      23.690   3.880  51.997  1.00  0.00     0.032 A 
ENDBRANCH  21  23
ENDBRANCH   9  21
BRANCH   4  30
HETATM   30  N1  UNL     1      25.155  -1.255  56.281  1.00  0.00    -0.383 N 
HETATM   31  H13 UNL     1      24.170  -1.131  56.624  1.00  0.00     0.157 HD
HETATM   32  H14 UNL     1      25.875  -1.828  56.772  1.00  0.00     0.157 HD
ENDBRANCH   4  30
BRANCH   6  33
HETATM   33  N3  UNL     1      29.144  -0.119  54.292  1.00  0.00    -0.231 N 
HETATM   34  H15 UNL     1      29.632  -1.049  54.241  1.00  0.00     0.174 HD
HETATM   35  H16 UNL     1      30.028   0.441  54.469  1.00  0.00     0.174 HD
ENDBRANCH   6  33
TORSDOF 8
ENDMDL
MODEL 3
REMARK VINA RESULT:      -8.2      3.942      7.960
REMARK  8 active torsions:
REMARK  status: ('A' for Active; 'I' for Inactive)
REMARK    1  A    between atoms: O1_2  and  C2_3 
REMARK    2  A    between atoms: C5_6  and  O2_7 
REMARK    3  A    between atoms: C7_9  and  C8_10 
REMARK    4  A    between atoms: C8_10  and  C9_11 
REMARK    5  A    between atoms: C12_14  and  N1_15 
REMARK    6  A    between atoms: C13_17  and  N3_18 
REMARK    7  A    between atoms: N5_21  and  N6_22 
REMARK    8  A    between atoms: N6_22  and  C15_23 
ROOT
HETATM    1  C9  UNL     1      25.298   2.411  51.164  1.00  0.00     0.010 C 
HETATM    2  C10 UNL     1      25.166   1.369  51.948  1.00  0.00     0.057 C 
HETATM    3  C11 UNL     1      26.340   0.518  52.103  1.00  0.00     0.082 C 
HETATM    4  C12 UNL     1      26.748  -0.372  53.025  1.00  0.00     0.142 C 
HETATM    5  N2  UNL     1      26.159  -0.841  54.255  1.00  0.00    -0.046 NA
HETATM    6  C13 UNL     1      24.963  -0.889  54.752  1.00  0.00     0.723 C 
HETATM    7  N4  UNL     1      23.672  -0.485  54.280  1.00  0.00    -0.056 NA
HETATM    8  C14 UNL     1      23.199   0.354  53.403  1.00  0.00     0.252 C 
HETATM    9  N5  UNL     1      23.873   1.246  52.525  1.00  0.00    -0.249 N 
ENDROOT
BRANCH   1  10
HETATM   10  C8  UNL     1      26.401   2.949  50.367  1.00  0.00     0.071 C 
BRANCH  10  11
HETATM   11  C7  UNL     1      25.902   4.216  49.755  1.00  0.00    -0.019 A 
HETATM   12  C5  UNL     1      26.747   5.034  49.010  1.00  0.00     0.074 A 
HETATM   13  C4  UNL     1      26.380   6.218  48.411  1.00  0.00     0.040 A 
HETATM   14  C3  UNL     1      25.064   6.600  48.576  1.00  0.00     0.039 A 
HETATM   15  C2  UNL     1      24.192   5.803  49.316  1.00  0.00     0.068 A 
HETATM   16  C21 UNL     1      24.599   4.621  49.903  1.00  0.00     0.047 A 
BRANCH  12  17
HETATM   17  O2  UNL     1      28.051   4.587  48.888  1.00  0.00    -0.355 OA
HETATM   18  C6  UNL     1      29.024   5.372  48.218  1.00  0.00     0.210 C 
ENDBRANCH  12  17
BRANCH  15  19
HETATM   19  O1  UNL     1      22.905   6.322  49.391  1.00  0.00    -0.356 OA
HETATM   20  C1  UNL     1      22.613   7.224  50.448  1.00  0.00     0.210 C 
ENDBRANCH  15  19
ENDBRANCH  10  11
ENDBRANCH   1  10
BRANCH   9  21
HETATM   21  N6  UNL     1      22.979   2.275  52.147  1.00  0.00    -0.293 N 
HETATM   22  H18 UNL     1      23.115   3.329  52.192  1.00  0.00     0.187 HD
BRANCH  21  23
HETATM   23  C15 UNL     1      21.736   1.813  51.641  1.00  0.00     0.048 A 
HETATM   24  C16 UNL     1      21.623   1.234  50.408  1.00  0.00     0.032 A 
HETATM   25  C17 UNL     1      20.449   0.755  49.830  1.00  0.00     0.026 A 
HETATM   26  C18 UNL     1      19.313   0.905  50.625  1.00  0.00     0.034 A 
HETATM   27 CL1  UNL     1      17.782   0.333  49.982  1.00  0.00    -0.084 Cl
HETATM   28  C19 UNL     1      19.333   1.474  51.872  1.00  0.00     0.026 A 
HETATM   29  C20 UNL     1      20.557   1.922  52.362  1.00  0.00     0.032 A 
ENDBRANCH  21  23
ENDBRANCH   9  21
BRANCH   4  30
HETATM   30  N1  UNL     1      28.007  -0.955  52.711  1.00  0.00    -0.383 N 
HETATM   31  H13 UNL     1      28.381  -0.845  51.736  1.00  0.00     0.157 HD
HETATM   32  H14 UNL     1      28.503  -1.468  53.471  1.00  0.00     0.157 HD
ENDBRANCH   4  30
BRANCH   6  33
HETATM   33  N3  UNL     1      24.893  -1.469  56.057  1.00  0.00    -0.231 N 
HETATM   34  H15 UNL     1      24.534  -1.074  56.963  1.00  0.00     0.174 HD
HETATM   35  H16 UNL     1      25.167  -2.409  56.467  1.00  0.00     0.174 HD
ENDBRANCH   6  33
TORSDOF 8
ENDMDL
MODEL 4
REMARK VINA RESULT:      -8.1      3.336      6.200
REMARK  8 active torsions:
REMARK  status: ('A' for Active; 'I' for Inactive)
REMARK    1  A    between atoms: O1_2  and  C2_3 
REMARK    2  A    between atoms: C5_6  and  O2_7 
REMARK    3  A    between atoms: C7_9  and  C8_10 
REMARK    4  A    between atoms: C8_10  and  C9_11 
REMARK    5  A    between atoms: C12_14  and  N1_15 
REMARK    6  A    between atoms: C13_17  and  N3_18 
REMARK    7  A    between atoms: N5_21  and  N6_22 
REMARK    8  A    between atoms: N6_22  and  C15_23 
ROOT
HETATM    1  C9  UNL     1      24.055   2.556  50.813  1.00  0.00     0.010 C 
HETATM    2  C10 UNL     1      23.266   3.595  50.930  1.00  0.00     0.057 C 
HETATM    3  C11 UNL     1      23.854   4.799  51.507  1.00  0.00     0.082 C 
HETATM    4  C12 UNL     1      23.553   6.109  51.473  1.00  0.00     0.142 C 
HETATM    5  N2  UNL     1      22.495   6.849  50.832  1.00  0.00    -0.046 NA
HETATM    6  C13 UNL     1      21.310   6.575  50.383  1.00  0.00     0.723 C 
HETATM    7  N4  UNL     1      20.518   5.382  50.329  1.00  0.00    -0.056 NA
HETATM    8  C14 UNL     1      20.728   4.098  50.358  1.00  0.00     0.252 C 
HETATM    9  N5  UNL     1      21.942   3.366  50.464  1.00  0.00    -0.249 N 
ENDROOT
BRANCH   1  10
HETATM   10  C8  UNL     1      25.458   2.304  51.141  1.00  0.00     0.071 C 
BRANCH  10  11
HETATM   11  C7  UNL     1      25.461   1.332  52.274  1.00  0.00    -0.019 A 
HETATM   12  C5  UNL     1      26.629   1.053  52.977  1.00  0.00     0.074 A 
HETATM   13  C4  UNL     1      26.730   0.173  54.032  1.00  0.00     0.040 A 
HETATM   14  C3  UNL     1      25.565  -0.468  54.401  1.00  0.00     0.039 A 
HETATM   15  C2  UNL     1      24.378  -0.210  53.719  1.00  0.00     0.068 A 
HETATM   16  C21 UNL     1      24.318   0.680  52.664  1.00  0.00     0.047 A 
BRANCH  12  17
HETATM   17  O2  UNL     1      27.757   1.732  52.550  1.00  0.00    -0.355 OA
HETATM   18  C6  UNL     1      28.580   2.421  53.476  1.00  0.00     0.210 C 
ENDBRANCH  12  17
BRANCH  15  19
HETATM   19  O1  UNL     1      23.296  -0.930  54.208  1.00  0.00    -0.356 OA
HETATM   20  C1  UNL     1      23.377  -1.433  55.534  1.00  0.00     0.210 C 
ENDBRANCH  15  19
ENDBRANCH  10  11
ENDBRANCH   1  10
BRANCH   9  21
HETATM   21  N6  UNL     1      21.734   2.062  49.957  1.00  0.00    -0.293 N 
HETATM   22  H18 UNL     1      22.224   1.571  49.150  1.00  0.00     0.187 HD
BRANCH  21  23
HETATM   23  C15 UNL     1      20.728   1.325  50.636  1.00  0.00     0.048 A 
HETATM   24  C16 UNL     1      20.921   0.815  51.889  1.00  0.00     0.032 A 
HETATM   25  C17 UNL     1      19.996   0.080  52.628  1.00  0.00     0.026 A 
HETATM   26  C18 UNL     1      18.776  -0.125  51.983  1.00  0.00     0.034 A 
HETATM   27 CL1  UNL     1      17.544  -1.042  52.835  1.00  0.00    -0.084 Cl
HETATM   28  C19 UNL     1      18.496   0.349  50.728  1.00  0.00     0.026 A 
HETATM   29  C20 UNL     1      19.488   1.074  50.071  1.00  0.00     0.032 A 
ENDBRANCH  21  23
ENDBRANCH   9  21
BRANCH   4  30
HETATM   30  N1  UNL     1      24.464   6.905  52.221  1.00  0.00    -0.383 N 
HETATM   31  H13 UNL     1      25.046   6.439  52.961  1.00  0.00     0.157 HD
HETATM   32  H14 UNL     1      24.513   7.921  51.996  1.00  0.00     0.157 HD
ENDBRANCH   4  30
BRANCH   6  33
HETATM   33  N3  UNL     1      20.625   7.693  49.814  1.00  0.00    -0.231 N 
HETATM   34  H15 UNL     1      20.053   7.771  48.935  1.00  0.00     0.174 HD
HETATM   35  H16 UNL     1      20.504   8.710  50.094  1.00  0.00     0.174 HD
ENDBRANCH   6  33
TORSDOF 8
ENDMDL
MODEL 5
REMARK VINA RESULT:      -8.1      3.561      7.079
REMARK  8 active torsions:
REMARK  status: ('A' for Active; 'I' for Inactive)
REMARK    1  A    between atoms: O1_2  and  C2_3 
REMARK    2  A    between atoms: C5_6  and  O2_7 
REMARK    3  A    between atoms: C7_9  and  C8_10 
REMARK    4  A    between atoms: C8_10  and  C9_11 
REMARK    5  A    between atoms: C12_14  and  N1_15 
REMARK    6  A    between atoms: C13_17  and  N3_18 
REMARK    7  A    between atoms: N5_21  and  N6_22 
REMARK    8  A    between atoms: N6_22  and  C15_23 
ROOT
HETATM    1  C9  UNL     1      26.148   3.301  50.281  1.00  0.00     0.010 C 
HETATM    2  C10 UNL     1      24.952   2.933  50.669  1.00  0.00     0.057 C 
HETATM    3  C11 UNL     1      23.928   2.847  49.634  1.00  0.00     0.082 C 
HETATM    4  C12 UNL     1      22.754   2.204  49.515  1.00  0.00     0.142 C 
HETATM    5  N2  UNL     1      22.033   1.321  50.398  1.00  0.00    -0.046 NA
HETATM    6  C13 UNL     1      22.017   1.094  51.674  1.00  0.00     0.723 C 
HETATM    7  N4  UNL     1      22.730   1.640  52.791  1.00  0.00    -0.056 NA
HETATM    8  C14 UNL     1      23.852   2.271  52.987  1.00  0.00     0.252 C 
HETATM    9  N5  UNL     1      24.855   2.674  52.064  1.00  0.00    -0.249 N 
ENDROOT
BRANCH   1  10
HETATM   10  C8  UNL     1      26.730   3.665  48.989  1.00  0.00     0.071 C 
BRANCH  10  11
HETATM   11  C7  UNL     1      26.839   5.153  48.978  1.00  0.00    -0.019 A 
HETATM   12  C5  UNL     1      28.014   5.784  48.581  1.00  0.00     0.074 A 
HETATM   13  C4  UNL     1      28.209   7.146  48.538  1.00  0.00     0.040 A 
HETATM   14  C3  UNL     1      27.137   7.925  48.924  1.00  0.00     0.039 A 
HETATM   15  C2  UNL     1      25.945   7.325  49.326  1.00  0.00     0.068 A 
HETATM   16  C21 UNL     1      25.789   5.953  49.356  1.00  0.00     0.047 A 
BRANCH  12  17
HETATM   17  O2  UNL     1      29.045   4.939  48.208  1.00  0.00    -0.355 OA
HETATM   18  C6  UNL     1      30.320   5.460  47.868  1.00  0.00     0.210 C 
ENDBRANCH  12  17
BRANCH  15  19
HETATM   19  O1  UNL     1      24.964   8.241  49.684  1.00  0.00    -0.356 OA
HETATM   20  C1  UNL     1      24.020   7.852  50.671  1.00  0.00     0.210 C 
ENDBRANCH  15  19
ENDBRANCH  10  11
ENDBRANCH   1  10
BRANCH   9  21
HETATM   21  N6  UNL     1      26.071   2.857  52.764  1.00  0.00    -0.293 N 
HETATM   22  H18 UNL     1      26.471   3.746  53.190  1.00  0.00     0.187 HD
BRANCH  21  23
HETATM   23  C15 UNL     1      26.848   1.677  52.904  1.00  0.00     0.048 A 
HETATM   24  C16 UNL     1      28.125   1.702  53.388  1.00  0.00     0.032 A 
HETATM   25  C17 UNL     1      28.960   0.599  53.558  1.00  0.00     0.026 A 
HETATM   26  C18 UNL     1      28.391  -0.618  53.184  1.00  0.00     0.034 A 
HETATM   27 CL1  UNL     1      29.367  -2.068  53.360  1.00  0.00    -0.084 Cl
HETATM   28  C19 UNL     1      27.118  -0.737  52.689  1.00  0.00     0.026 A 
HETATM   29  C20 UNL     1      26.362   0.426  52.557  1.00  0.00     0.032 A 
ENDBRANCH  21  23
ENDBRANCH   9  21
BRANCH   4  30
HETATM   30  N1  UNL     1      22.111   2.452  48.271  1.00  0.00    -0.383 N 
HETATM   31  H13 UNL     1      21.410   1.753  47.920  1.00  0.00     0.157 HD
HETATM   32  H14 UNL     1      22.368   3.325  47.762  1.00  0.00     0.157 HD
ENDBRANCH   4  30
BRANCH   6  33
HETATM   33  N3  UNL     1      21.091   0.083  52.079  1.00  0.00    -0.231 N 
HETATM   34  H15 UNL     1      21.252  -0.844  52.549  1.00  0.00     0.174 HD
HETATM   35  H16 UNL     1      20.036  -0.023  52.024  1.00  0.00     0.174 HD
ENDBRANCH   6  33
TORSDOF 8
ENDMDL
MODEL 6
REMARK VINA RESULT:      -7.9      3.394      6.694
REMARK  8 active torsions:
REMARK  status: ('A' for Active; 'I' for Inactive)
REMARK    1  A    between atoms: O1_2  and  C2_3 
REMARK    2  A    between atoms: C5_6  and  O2_7 
REMARK    3  A    between atoms: C7_9  and  C8_10 
REMARK    4  A    between atoms: C8_10  and  C9_11 
REMARK    5  A    between atoms: C12_14  and  N1_15 
REMARK    6  A    between atoms: C13_17  and  N3_18 
REMARK    7  A    between atoms: N5_21  and  N6_22 
REMARK    8  A    between atoms: N6_22  and  C15_23 
ROOT
HETATM    1  C9  UNL     1      24.634   3.311  50.411  1.00  0.00     0.010 C 
HETATM    2  C10 UNL     1      23.919   2.526  51.179  1.00  0.00     0.057 C 
HETATM    3  C11 UNL     1      22.603   2.148  50.678  1.00  0.00     0.082 C 
HETATM    4  C12 UNL     1      21.748   1.142  50.931  1.00  0.00     0.142 C 
HETATM    5  N2  UNL     1      21.808   0.013  51.826  1.00  0.00    -0.046 NA
HETATM    6  C13 UNL     1      22.456  -0.278  52.911  1.00  0.00     0.723 C 
HETATM    7  N4  UNL     1      23.420   0.417  53.711  1.00  0.00    -0.056 NA
HETATM    8  C14 UNL     1      24.271   1.389  53.545  1.00  0.00     0.252 C 
HETATM    9  N5  UNL     1      24.564   2.170  52.395  1.00  0.00    -0.249 N 
ENDROOT
BRANCH   1  10
HETATM   10  C8  UNL     1      24.414   3.929  49.104  1.00  0.00     0.071 C 
BRANCH  10  11
HETATM   11  C7  UNL     1      25.553   4.867  48.880  1.00  0.00    -0.019 A 
HETATM   12  C5  UNL     1      25.333   6.222  48.651  1.00  0.00     0.074 A 
HETATM   13  C4  UNL     1      26.317   7.161  48.434  1.00  0.00     0.040 A 
HETATM   14  C3  UNL     1      27.615   6.694  48.451  1.00  0.00     0.039 A 
HETATM   15  C2  UNL     1      27.871   5.343  48.679  1.00  0.00     0.068 A 
HETATM   16  C21 UNL     1      26.855   4.432  48.892  1.00  0.00     0.047 A 
BRANCH  12  17
HETATM   17  O2  UNL     1      24.007   6.616  48.647  1.00  0.00    -0.355 OA
HETATM   18  C6  UNL     1      23.585   7.743  49.400  1.00  0.00     0.210 C 
ENDBRANCH  12  17
BRANCH  15  19
HETATM   19  O1  UNL     1      29.224   5.030  48.666  1.00  0.00    -0.356 OA
HETATM   20  C1  UNL     1      30.098   5.890  47.950  1.00  0.00     0.210 C 
ENDBRANCH  15  19
ENDBRANCH  10  11
ENDBRANCH   1  10
BRANCH   9  21
HETATM   21  N6  UNL     1      25.857   2.726  52.539  1.00  0.00    -0.293 N 
HETATM   22  H18 UNL     1      26.164   3.740  52.443  1.00  0.00     0.187 HD
BRANCH  21  23
HETATM   23  C15 UNL     1      26.868   1.781  52.855  1.00  0.00     0.048 A 
HETATM   24  C16 UNL     1      26.811   0.485  52.426  1.00  0.00     0.032 A 
HETATM   25  C17 UNL     1      27.752  -0.509  52.689  1.00  0.00     0.026 A 
HETATM   26  C18 UNL     1      28.832  -0.089  53.465  1.00  0.00     0.034 A 
HETATM   27 CL1  UNL     1      30.072  -1.272  53.851  1.00  0.00    -0.084 Cl
HETATM   28  C19 UNL     1      28.971   1.190  53.938  1.00  0.00     0.026 A 
HETATM   29  C20 UNL     1      27.975   2.111  53.620  1.00  0.00     0.032 A 
ENDBRANCH  21  23
ENDBRANCH   9  21
BRANCH   4  30
HETATM   30  N1  UNL     1      20.557   1.221  50.157  1.00  0.00    -0.383 N 
HETATM   31  H13 UNL     1      20.005   0.342  49.994  1.00  0.00     0.157 HD
HETATM   32  H14 UNL     1      20.286   2.156  49.785  1.00  0.00     0.157 HD
ENDBRANCH   4  30
BRANCH   6  33
HETATM   33  N3  UNL     1      22.159  -1.571  53.442  1.00  0.00    -0.231 N 
HETATM   34  H15 UNL     1      21.236  -2.032  53.645  1.00  0.00     0.174 HD
HETATM   35  H16 UNL     1      22.747  -2.392  53.769  1.00  0.00     0.174 HD
ENDBRANCH   6  33
TORSDOF 8
ENDMDL
MODEL 7
REMARK VINA RESULT:      -7.9      3.036      5.792
REMARK  8 active torsions:
REMARK  status: ('A' for Active; 'I' for Inactive)
REMARK    1  A    between atoms: O1_2  and  C2_3 
REMARK    2  A    between atoms: C5_6  and  O2_7 
REMARK    3  A    between atoms: C7_9  and  C8_10 
REMARK    4  A    between atoms: C8_10  and  C9_11 
REMARK    5  A    between atoms: C12_14  and  N1_15 
REMARK    6  A    between atoms: C13_17  and  N3_18 
REMARK    7  A    between atoms: N5_21  and  N6_22 
REMARK    8  A    between atoms: N6_22  and  C15_23 
ROOT
HETATM    1  C9  UNL     1      23.777   3.316  51.811  1.00  0.00     0.010 C 
HETATM    2  C10 UNL     1      23.259   3.302  50.608  1.00  0.00     0.057 C 
HETATM    3  C11 UNL     1      22.366   2.192  50.296  1.00  0.00     0.082 C 
HETATM    4  C12 UNL     1      21.393   1.986  49.391  1.00  0.00     0.142 C 
HETATM    5  N2  UNL     1      20.841   2.814  48.348  1.00  0.00    -0.046 NA
HETATM    6  C13 UNL     1      21.246   3.839  47.665  1.00  0.00     0.723 C 
HETATM    7  N4  UNL     1      22.451   4.615  47.653  1.00  0.00    -0.056 NA
HETATM    8  C14 UNL     1      23.432   4.860  48.473  1.00  0.00     0.252 C 
HETATM    9  N5  UNL     1      23.665   4.395  49.795  1.00  0.00    -0.249 N 
ENDROOT
BRANCH   1  10
HETATM   10  C8  UNL     1      23.666   2.437  52.976  1.00  0.00     0.071 C 
BRANCH  10  11
HETATM   11  C7  UNL     1      24.858   1.539  52.944  1.00  0.00    -0.019 A 
HETATM   12  C5  UNL     1      24.714   0.155  52.978  1.00  0.00     0.074 A 
HETATM   13  C4  UNL     1      25.751  -0.752  52.955  1.00  0.00     0.040 A 
HETATM   14  C3  UNL     1      27.022  -0.218  52.891  1.00  0.00     0.039 A 
HETATM   15  C2  UNL     1      27.200   1.163  52.854  1.00  0.00     0.068 A 
HETATM   16  C21 UNL     1      26.134   2.040  52.880  1.00  0.00     0.047 A 
BRANCH  12  17
HETATM   17  O2  UNL     1      23.411  -0.306  53.042  1.00  0.00    -0.355 OA
HETATM   18  C6  UNL     1      22.910  -0.894  54.232  1.00  0.00     0.210 C 
ENDBRANCH  12  17
BRANCH  15  19
HETATM   19  O1  UNL     1      28.535   1.543  52.791  1.00  0.00    -0.356 OA
HETATM   20  C1  UNL     1      28.998   2.505  53.727  1.00  0.00     0.210 C 
ENDBRANCH  15  19
ENDBRANCH  10  11
ENDBRANCH   1  10
BRANCH   9  21
HETATM   21  N6  UNL     1      24.545   5.292  50.445  1.00  0.00    -0.293 N 
HETATM   22  H18 UNL     1      24.426   5.790  51.378  1.00  0.00     0.187 HD
BRANCH  21  23
HETATM   23  C15 UNL     1      25.747   5.549  49.735  1.00  0.00     0.048 A 
HETATM   24  C16 UNL     1      26.141   6.816  49.408  1.00  0.00     0.032 A 
HETATM   25  C17 UNL     1      27.299   7.163  48.713  1.00  0.00     0.026 A 
HETATM   26  C18 UNL     1      28.094   6.079  48.342  1.00  0.00     0.034 A 
HETATM   27 CL1  UNL     1      29.576   6.413  47.460  1.00  0.00    -0.084 Cl
HETATM   28  C19 UNL     1      27.777   4.776  48.628  1.00  0.00     0.026 A 
HETATM   29  C20 UNL     1      26.597   4.533  49.327  1.00  0.00     0.032 A 
ENDBRANCH  21  23
ENDBRANCH   9  21
BRANCH   4  30
HETATM   30  N1  UNL     1      20.803   0.696  49.498  1.00  0.00    -0.383 N 
HETATM   31  H13 UNL     1      20.647   0.141  48.620  1.00  0.00     0.157 HD
HETATM   32  H14 UNL     1      20.553   0.358  50.453  1.00  0.00     0.157 HD
ENDBRANCH   4  30
BRANCH   6  33
HETATM   33  N3  UNL     1      20.297   4.317  46.708  1.00  0.00    -0.231 N 
HETATM   34  H15 UNL     1      19.969   5.293  46.499  1.00  0.00     0.174 HD
HETATM   35  H16 UNL     1      19.686   3.853  45.974  1.00  0.00     0.174 HD
ENDBRANCH   6  33
TORSDOF 8
ENDMDL
MODEL 8
REMARK VINA RESULT:      -7.8      1.560      2.432
REMARK  8 active torsions:
REMARK  status: ('A' for Active; 'I' for Inactive)
REMARK    1  A    between atoms: O1_2  and  C2_3 
REMARK    2  A    between atoms: C5_6  and  O2_7 
REMARK    3  A    between atoms: C7_9  and  C8_10 
REMARK    4  A    between atoms: C8_10  and  C9_11 
REMARK    5  A    between atoms: C12_14  and  N1_15 
REMARK    6  A    between atoms: C13_17  and  N3_18 
REMARK    7  A    between atoms: N5_21  and  N6_22 
REMARK    8  A    between atoms: N6_22  and  C15_23 
ROOT
HETATM    1  C9  UNL     1      22.973   3.272  52.114  1.00  0.00     0.010 C 
HETATM    2  C10 UNL     1      23.912   3.462  51.220  1.00  0.00     0.057 C 
HETATM    3  C11 UNL     1      23.537   4.221  50.033  1.00  0.00     0.082 C 
HETATM    4  C12 UNL     1      24.212   4.923  49.107  1.00  0.00     0.142 C 
HETATM    5  N2  UNL     1      25.615   5.205  48.929  1.00  0.00    -0.046 NA
HETATM    6  C13 UNL     1      26.727   4.660  49.312  1.00  0.00     0.723 C 
HETATM    7  N4  UNL     1      27.051   3.509  50.102  1.00  0.00    -0.056 NA
HETATM    8  C14 UNL     1      26.462   2.777  51.004  1.00  0.00     0.252 C 
HETATM    9  N5  UNL     1      25.162   2.883  51.570  1.00  0.00    -0.249 N 
ENDROOT
BRANCH   1  10
HETATM   10  C8  UNL     1      21.566   3.661  52.208  1.00  0.00     0.071 C 
BRANCH  10  11
HETATM   11  C7  UNL     1      20.767   2.428  51.941  1.00  0.00    -0.019 A 
HETATM   12  C5  UNL     1      20.208   2.193  50.689  1.00  0.00     0.074 A 
HETATM   13  C4  UNL     1      19.457   1.090  50.349  1.00  0.00     0.040 A 
HETATM   14  C3  UNL     1      19.259   0.159  51.349  1.00  0.00     0.039 A 
HETATM   15  C2  UNL     1      19.805   0.364  52.614  1.00  0.00     0.068 A 
HETATM   16  C21 UNL     1      20.553   1.486  52.916  1.00  0.00     0.047 A 
BRANCH  12  17
HETATM   17  O2  UNL     1      20.449   3.169  49.738  1.00  0.00    -0.355 OA
HETATM   18  C6  UNL     1      20.227   2.908  48.361  1.00  0.00     0.210 C 
ENDBRANCH  12  17
BRANCH  15  19
HETATM   19  O1  UNL     1      19.518  -0.659  53.509  1.00  0.00    -0.356 OA
HETATM   20  C1  UNL     1      18.284  -1.345  53.359  1.00  0.00     0.210 C 
ENDBRANCH  15  19
ENDBRANCH  10  11
ENDBRANCH   1  10
BRANCH   9  21
HETATM   21  N6  UNL     1      25.154   2.219  52.819  1.00  0.00    -0.293 N 
HETATM   22  H18 UNL     1      24.530   2.389  53.664  1.00  0.00     0.187 HD
BRANCH  21  23
HETATM   23  C15 UNL     1      26.122   1.187  52.938  1.00  0.00     0.048 A 
HETATM   24  C16 UNL     1      27.268   1.345  53.666  1.00  0.00     0.032 A 
HETATM   25  C17 UNL     1      28.270   0.392  53.836  1.00  0.00     0.026 A 
HETATM   26  C18 UNL     1      28.032  -0.817  53.185  1.00  0.00     0.034 A 
HETATM   27 CL1  UNL     1      29.241  -2.083  53.339  1.00  0.00    -0.084 Cl
HETATM   28  C19 UNL     1      26.912  -1.064  52.435  1.00  0.00     0.026 A 
HETATM   29  C20 UNL     1      25.967  -0.047  52.325  1.00  0.00     0.032 A 
ENDBRANCH  21  23
ENDBRANCH   9  21
BRANCH   4  30
HETATM   30  N1  UNL     1      23.363   5.494  48.118  1.00  0.00    -0.383 N 
HETATM   31  H13 UNL     1      23.804   5.970  47.292  1.00  0.00     0.157 HD
HETATM   32  H14 UNL     1      22.334   5.411  48.262  1.00  0.00     0.157 HD
ENDBRANCH   4  30
BRANCH   6  33
HETATM   33  N3  UNL     1      27.900   5.339  48.858  1.00  0.00    -0.231 N 
HETATM   34  H15 UNL     1      28.101   5.824  47.947  1.00  0.00     0.174 HD
HETATM   35  H16 UNL     1      28.853   5.539  49.282  1.00  0.00     0.174 HD
ENDBRANCH   6  33
TORSDOF 8
ENDMDL
MODEL 9
REMARK VINA RESULT:      -7.7      3.079      5.619
REMARK  8 active torsions:
REMARK  status: ('A' for Active; 'I' for Inactive)
REMARK    1  A    between atoms: O1_2  and  C2_3 
REMARK    2  A    between atoms: C5_6  and  O2_7 
REMARK    3  A    between atoms: C7_9  and  C8_10 
REMARK    4  A    between atoms: C8_10  and  C9_11 
REMARK    5  A    between atoms: C12_14  and  N1_15 
REMARK    6  A    between atoms: C13_17  and  N3_18 
REMARK    7  A    between atoms: N5_21  and  N6_22 
REMARK    8  A    between atoms: N6_22  and  C15_23 
ROOT
HETATM    1  C9  UNL     1      22.536   0.552  52.424  1.00  0.00     0.010 C 
HETATM    2  C10 UNL     1      23.575   0.716  53.206  1.00  0.00     0.057 C 
HETATM    3  C11 UNL     1      23.855  -0.359  54.151  1.00  0.00     0.082 C 
HETATM    4  C12 UNL     1      24.943  -0.761  54.830  1.00  0.00     0.142 C 
HETATM    5  N2  UNL     1      26.296  -0.267  54.885  1.00  0.00    -0.046 NA
HETATM    6  C13 UNL     1      26.883   0.862  54.634  1.00  0.00     0.723 C 
HETATM    7  N4  UNL     1      26.426   2.142  54.179  1.00  0.00    -0.056 NA
HETATM    8  C14 UNL     1      25.399   2.610  53.529  1.00  0.00     0.252 C 
HETATM    9  N5  UNL     1      24.266   1.940  52.993  1.00  0.00    -0.249 N 
ENDROOT
BRANCH   1  10
HETATM   10  C8  UNL     1      21.539  -0.507  52.268  1.00  0.00     0.071 C 
BRANCH  10  11
HETATM   11  C7  UNL     1      20.354   0.119  51.610  1.00  0.00    -0.019 A 
HETATM   12  C5  UNL     1      20.489   0.847  50.432  1.00  0.00     0.074 A 
HETATM   13  C4  UNL     1      19.458   1.461  49.756  1.00  0.00     0.040 A 
HETATM   14  C3  UNL     1      18.202   1.325  50.311  1.00  0.00     0.039 A 
HETATM   15  C2  UNL     1      18.032   0.602  51.491  1.00  0.00     0.068 A 
HETATM   16  C21 UNL     1      19.093   0.001  52.140  1.00  0.00     0.047 A 
BRANCH  12  17
HETATM   17  O2  UNL     1      21.777   0.940  49.935  1.00  0.00    -0.355 OA
HETATM   18  C6  UNL     1      22.042   1.667  48.746  1.00  0.00     0.210 C 
ENDBRANCH  12  17
BRANCH  15  19
HETATM   19  O1  UNL     1      16.713   0.557  51.922  1.00  0.00    -0.356 OA
HETATM   20  C1  UNL     1      15.969  -0.624  51.664  1.00  0.00     0.210 C 
ENDBRANCH  15  19
ENDBRANCH  10  11
ENDBRANCH   1  10
BRANCH   9  21
HETATM   21  N6  UNL     1      23.703   2.743  51.973  1.00  0.00    -0.293 N 
HETATM   22  H18 UNL     1      22.679   2.952  51.774  1.00  0.00     0.187 HD
BRANCH  21  23
HETATM   23  C15 UNL     1      24.656   3.343  51.108  1.00  0.00     0.048 A 
HETATM   24  C16 UNL     1      24.623   4.675  50.805  1.00  0.00     0.032 A 
HETATM   25  C17 UNL     1      25.512   5.348  49.968  1.00  0.00     0.026 A 
HETATM   26  C18 UNL     1      26.506   4.541  49.415  1.00  0.00     0.034 A 
HETATM   27 CL1  UNL     1      27.674   5.299  48.344  1.00  0.00    -0.084 Cl
HETATM   28  C19 UNL     1      26.614   3.198  49.664  1.00  0.00     0.026 A 
HETATM   29  C20 UNL     1      25.677   2.618  50.516  1.00  0.00     0.032 A 
ENDBRANCH  21  23
ENDBRANCH   9  21
BRANCH   4  30
HETATM   30  N1  UNL     1      24.694  -1.898  55.648  1.00  0.00    -0.383 N 
HETATM   31  H13 UNL     1      24.476  -1.746  56.664  1.00  0.00     0.157 HD
HETATM   32  H14 UNL     1      24.740  -2.836  55.196  1.00  0.00     0.157 HD
ENDBRANCH   4  30
BRANCH   6  33
HETATM   33  N3  UNL     1      28.296   0.850  54.851  1.00  0.00    -0.231 N 
HETATM   34  H15 UNL     1      28.889   1.396  55.525  1.00  0.00     0.174 HD
HETATM   35  H16 UNL     1      29.108   0.319  54.421  1.00  0.00     0.174 HD
ENDBRANCH   6  33
TORSDOF 8
ENDMDL
