MODEL 1
REMARK VINA RESULT:      -7.7      0.000      0.000
REMARK  4 active torsions:
REMARK  status: ('A' for Active; 'I' for Inactive)
REMARK    1  A    between atoms: N1_7  and  C7_8 
REMARK    2  A    between atoms: C7_8  and  C8_9 
REMARK    3  A    between atoms: C8_9  and  O1_10 
REMARK    4  A    between atoms: O1_10  and  C9_11 
ROOT
HETATM    1  C7  UNL     1      26.329   0.755  52.402  1.00  0.00     0.261 C 
HETATM    2  N2  UNL     1      26.543  -0.652  52.309  1.00  0.00    -0.222 NA
HETATM    3  C11 UNL     1      27.399  -1.557  52.659  1.00  0.00     0.231 C 
HETATM    4  N3  UNL     1      28.616  -1.388  53.379  1.00  0.00    -0.258 NA
HETATM    5  C12 UNL     1      29.059  -0.525  54.215  1.00  0.00     0.093 C 
HETATM    6  C13 UNL     1      28.630   0.723  54.899  1.00  0.00     0.073 C 
HETATM    7  C14 UNL     1      27.143   0.891  54.571  1.00  0.00     0.178 C 
HETATM    8  O2  UNL     1      27.040   1.429  53.325  1.00  0.00    -0.340 OA
ENDROOT
BRANCH   1   9
HETATM    9  N1  UNL     1      24.898   0.929  52.745  1.00  0.00    -0.335 N 
HETATM   10  C6  UNL     1      24.363  -0.345  53.156  1.00  0.00     0.098 C 
HETATM   11  C5  UNL     1      23.050  -0.532  53.375  1.00  0.00    -0.032 C 
HETATM   12  C4  UNL     1      22.251  -1.719  53.792  1.00  0.00     0.045 C 
HETATM   13  C17 UNL     1      22.108   0.573  53.256  1.00  0.00    -0.025 C 
HETATM   14  C3  UNL     1      21.064  -1.099  54.459  1.00  0.00     0.043 C 
HETATM   15  C2  UNL     1      20.755   0.041  53.521  1.00  0.00    -0.057 C 
HETATM   16  C1  UNL     1      19.689   0.618  52.942  1.00  0.00     0.020 C 
HETATM   17  C16 UNL     1      22.672   1.719  52.929  1.00  0.00     0.005 C 
HETATM   18  C15 UNL     1      24.086   2.101  52.695  1.00  0.00     0.155 C 
ENDBRANCH   1   9
BRANCH   1  19
HETATM   19  C8  UNL     1      26.460   1.385  51.043  1.00  0.00     0.255 C 
BRANCH  19  20
HETATM   20  O1  UNL     1      27.005   2.637  51.009  1.00  0.00    -0.385 OA
BRANCH  20  21
HETATM   21  C9  UNL     1      26.253   3.570  50.372  1.00  0.00     0.163 C 
HETATM   22  C10 UNL     1      27.080   4.127  49.184  1.00  0.00     0.033 C 
ENDBRANCH  20  21
ENDBRANCH  19  20
ENDBRANCH   1  19
TORSDOF 4
ENDMDL
MODEL 2
REMARK VINA RESULT:      -7.4      2.439      5.978
REMARK  4 active torsions:
REMARK  status: ('A' for Active; 'I' for Inactive)
REMARK    1  A    between atoms: N1_7  and  C7_8 
REMARK    2  A    between atoms: C7_8  and  C8_9 
REMARK    3  A    between atoms: C8_9  and  O1_10 
REMARK    4  A    between atoms: O1_10  and  C9_11 
ROOT
HETATM    1  C7  UNL     1      24.398   2.650  51.314  1.00  0.00     0.261 C 
HETATM    2  N2  UNL     1      24.261   3.775  52.181  1.00  0.00    -0.222 NA
HETATM    3  C11 UNL     1      23.351   4.560  52.661  1.00  0.00     0.231 C 
HETATM    4  N3  UNL     1      21.948   4.533  52.424  1.00  0.00    -0.258 NA
HETATM    5  C12 UNL     1      21.107   3.629  52.081  1.00  0.00     0.093 C 
HETATM    6  C13 UNL     1      21.063   2.182  51.746  1.00  0.00     0.073 C 
HETATM    7  C14 UNL     1      22.456   1.634  52.073  1.00  0.00     0.178 C 
HETATM    8  O2  UNL     1      23.288   1.941  51.041  1.00  0.00    -0.340 OA
ENDROOT
BRANCH   1   9
HETATM    9  N1  UNL     1      25.347   1.730  51.985  1.00  0.00    -0.335 N 
HETATM   10  C6  UNL     1      26.454   2.500  52.496  1.00  0.00     0.098 C 
HETATM   11  C5  UNL     1      27.549   1.919  53.015  1.00  0.00    -0.032 C 
HETATM   12  C4  UNL     1      28.808   2.466  53.595  1.00  0.00     0.045 C 
HETATM   13  C17 UNL     1      27.642   0.470  53.133  1.00  0.00    -0.025 C 
HETATM   14  C3  UNL     1      29.240   1.379  54.529  1.00  0.00     0.043 C 
HETATM   15  C2  UNL     1      28.967   0.148  53.702  1.00  0.00    -0.057 C 
HETATM   16  C1  UNL     1      29.555  -1.019  53.396  1.00  0.00     0.020 C 
HETATM   17  C16 UNL     1      26.573  -0.168  52.695  1.00  0.00     0.005 C 
HETATM   18  C15 UNL     1      25.285   0.313  52.140  1.00  0.00     0.155 C 
ENDBRANCH   1   9
BRANCH   1  19
HETATM   19  C8  UNL     1      25.111   3.058  50.054  1.00  0.00     0.255 C 
BRANCH  19  20
HETATM   20  O1  UNL     1      24.722   4.243  49.498  1.00  0.00    -0.385 OA
BRANCH  20  21
HETATM   21  C9  UNL     1      25.739   5.070  49.145  1.00  0.00     0.163 C 
HETATM   22  C10 UNL     1      27.054   4.248  49.161  1.00  0.00     0.033 C 
ENDBRANCH  20  21
ENDBRANCH  19  20
ENDBRANCH   1  19
TORSDOF 4
ENDMDL
MODEL 3
REMARK VINA RESULT:      -7.3      2.025      4.132
REMARK  4 active torsions:
REMARK  status: ('A' for Active; 'I' for Inactive)
REMARK    1  A    between atoms: N1_7  and  C7_8 
REMARK    2  A    between atoms: C7_8  and  C8_9 
REMARK    3  A    between atoms: C8_9  and  O1_10 
REMARK    4  A    between atoms: O1_10  and  C9_11 
ROOT
HETATM    1  C7  UNL     1      26.801   0.064  53.898  1.00  0.00     0.261 C 
HETATM    2  N2  UNL     1      28.117   0.612  53.940  1.00  0.00    -0.222 NA
HETATM    3  C11 UNL     1      29.355   0.237  53.926  1.00  0.00     0.231 C 
HETATM    4  N3  UNL     1      29.875  -1.086  53.847  1.00  0.00    -0.258 NA
HETATM    5  C12 UNL     1      29.444  -2.200  53.385  1.00  0.00     0.093 C 
HETATM    6  C13 UNL     1      28.250  -2.766  52.706  1.00  0.00     0.073 C 
HETATM    7  C14 UNL     1      27.364  -1.568  52.348  1.00  0.00     0.178 C 
HETATM    8  O2  UNL     1      26.672  -1.202  53.461  1.00  0.00    -0.340 OA
ENDROOT
BRANCH   1   9
HETATM    9  N1  UNL     1      26.030   0.924  52.968  1.00  0.00    -0.335 N 
HETATM   10  C6  UNL     1      24.647   0.521  53.006  1.00  0.00     0.098 C 
HETATM   11  C5  UNL     1      23.736   1.015  52.150  1.00  0.00    -0.032 C 
HETATM   12  C4  UNL     1      22.276   0.772  51.972  1.00  0.00     0.045 C 
HETATM   13  C17 UNL     1      24.102   2.030  51.171  1.00  0.00    -0.025 C 
HETATM   14  C3  UNL     1      21.801   2.052  51.359  1.00  0.00     0.043 C 
HETATM   15  C2  UNL     1      22.901   2.334  50.366  1.00  0.00    -0.057 C 
HETATM   16  C1  UNL     1      23.039   2.743  49.095  1.00  0.00     0.020 C 
HETATM   17  C16 UNL     1      25.370   2.389  51.227  1.00  0.00     0.005 C 
HETATM   18  C15 UNL     1      26.481   1.981  52.121  1.00  0.00     0.155 C 
ENDBRANCH   1   9
BRANCH   1  19
HETATM   19  C8  UNL     1      26.122   0.257  55.226  1.00  0.00     0.255 C 
BRANCH  19  20
HETATM   20  O1  UNL     1      25.833  -0.879  55.926  1.00  0.00    -0.385 OA
BRANCH  20  21
HETATM   21  C9  UNL     1      24.642  -0.862  56.577  1.00  0.00     0.163 C 
HETATM   22  C10 UNL     1      23.571  -1.474  55.637  1.00  0.00     0.033 C 
ENDBRANCH  20  21
ENDBRANCH  19  20
ENDBRANCH   1  19
TORSDOF 4
ENDMDL
MODEL 4
REMARK VINA RESULT:      -7.3      2.793      4.632
REMARK  4 active torsions:
REMARK  status: ('A' for Active; 'I' for Inactive)
REMARK    1  A    between atoms: N1_7  and  C7_8 
REMARK    2  A    between atoms: C7_8  and  C8_9 
REMARK    3  A    between atoms: C8_9  and  O1_10 
REMARK    4  A    between atoms: O1_10  and  C9_11 
ROOT
HETATM    1  C7  UNL     1      24.593   0.973  52.856  1.00  0.00     0.261 C 
HETATM    2  N2  UNL     1      25.313   1.952  53.602  1.00  0.00    -0.222 NA
HETATM    3  C11 UNL     1      26.421   2.092  54.257  1.00  0.00     0.231 C 
HETATM    4  N3  UNL     1      27.447   1.129  54.470  1.00  0.00    -0.258 NA
HETATM    5  C12 UNL     1      27.850   0.084  53.847  1.00  0.00     0.093 C 
HETATM    6  C13 UNL     1      27.534  -0.708  52.631  1.00  0.00     0.073 C 
HETATM    7  C14 UNL     1      26.499   0.111  51.853  1.00  0.00     0.178 C 
HETATM    8  O2  UNL     1      25.279  -0.099  52.417  1.00  0.00    -0.340 OA
ENDROOT
BRANCH   1   9
HETATM    9  N1  UNL     1      24.071   1.674  51.659  1.00  0.00    -0.335 N 
HETATM   10  C6  UNL     1      22.827   1.060  51.270  1.00  0.00     0.098 C 
HETATM   11  C5  UNL     1      22.200   1.380  50.124  1.00  0.00    -0.032 C 
HETATM   12  C4  UNL     1      20.935   0.905  49.495  1.00  0.00     0.045 C 
HETATM   13  C17 UNL     1      22.732   2.410  49.243  1.00  0.00    -0.025 C 
HETATM   14  C3  UNL     1      20.523   2.076  48.659  1.00  0.00     0.043 C 
HETATM   15  C2  UNL     1      21.844   2.499  48.066  1.00  0.00    -0.057 C 
HETATM   16  C1  UNL     1      22.346   2.888  46.883  1.00  0.00     0.020 C 
HETATM   17  C16 UNL     1      23.843   2.966  49.687  1.00  0.00     0.005 C 
HETATM   18  C15 UNL     1      24.631   2.763  50.927  1.00  0.00     0.155 C 
ENDBRANCH   1   9
BRANCH   1  19
HETATM   19  C8  UNL     1      23.357   0.561  53.609  1.00  0.00     0.255 C 
BRANCH  19  20
HETATM   20  O1  UNL     1      23.405  -0.656  54.225  1.00  0.00    -0.385 OA
BRANCH  20  21
HETATM   21  C9  UNL     1      22.267  -1.012  54.875  1.00  0.00     0.163 C 
HETATM   22  C10 UNL     1      21.169   0.027  54.527  1.00  0.00     0.033 C 
ENDBRANCH  20  21
ENDBRANCH  19  20
ENDBRANCH   1  19
TORSDOF 4
ENDMDL
MODEL 5
REMARK VINA RESULT:      -7.2      2.711      6.448
REMARK  4 active torsions:
REMARK  status: ('A' for Active; 'I' for Inactive)
REMARK    1  A    between atoms: N1_7  and  C7_8 
REMARK    2  A    between atoms: C7_8  and  C8_9 
REMARK    3  A    between atoms: C8_9  and  O1_10 
REMARK    4  A    between atoms: O1_10  and  C9_11 
ROOT
HETATM    1  C7  UNL     1      22.903   1.473  51.833  1.00  0.00     0.261 C 
HETATM    2  N2  UNL     1      22.683   1.433  50.424  1.00  0.00    -0.222 NA
HETATM    3  C11 UNL     1      21.915   1.950  49.520  1.00  0.00     0.231 C 
HETATM    4  N3  UNL     1      20.861   2.890  49.689  1.00  0.00    -0.258 NA
HETATM    5  C12 UNL     1      20.584   3.791  50.557  1.00  0.00     0.093 C 
HETATM    6  C13 UNL     1      21.131   4.369  51.812  1.00  0.00     0.073 C 
HETATM    7  C14 UNL     1      22.525   3.757  51.983  1.00  0.00     0.178 C 
HETATM    8  O2  UNL     1      22.381   2.512  52.512  1.00  0.00    -0.340 OA
ENDROOT
BRANCH   1   9
HETATM    9  N1  UNL     1      24.373   1.531  52.015  1.00  0.00    -0.335 N 
HETATM   10  C6  UNL     1      24.714   0.854  53.242  1.00  0.00     0.098 C 
HETATM   11  C5  UNL     1      25.957   0.882  53.751  1.00  0.00    -0.032 C 
HETATM   12  C4  UNL     1      26.564   0.286  54.975  1.00  0.00     0.045 C 
HETATM   13  C17 UNL     1      27.038   1.560  53.049  1.00  0.00    -0.025 C 
HETATM   14  C3  UNL     1      28.003   0.139  54.591  1.00  0.00     0.043 C 
HETATM   15  C2  UNL     1      28.257   1.441  53.876  1.00  0.00    -0.057 C 
HETATM   16  C1  UNL     1      29.198   2.397  53.812  1.00  0.00     0.020 C 
HETATM   17  C16 UNL     1      26.667   2.112  51.909  1.00  0.00     0.005 C 
HETATM   18  C15 UNL     1      25.368   2.140  51.194  1.00  0.00     0.155 C 
ENDBRANCH   1   9
BRANCH   1  19
HETATM   19  C8  UNL     1      22.507   0.161  52.452  1.00  0.00     0.255 C 
BRANCH  19  20
HETATM   20  O1  UNL     1      21.299   0.135  53.089  1.00  0.00    -0.385 OA
BRANCH  20  21
HETATM   21  C9  UNL     1      21.074  -0.974  53.840  1.00  0.00     0.163 C 
HETATM   22  C10 UNL     1      22.118  -0.999  54.986  1.00  0.00     0.033 C 
ENDBRANCH  20  21
ENDBRANCH  19  20
ENDBRANCH   1  19
TORSDOF 4
ENDMDL
MODEL 6
REMARK VINA RESULT:      -7.1      3.310      5.454
REMARK  4 active torsions:
REMARK  status: ('A' for Active; 'I' for Inactive)
REMARK    1  A    between atoms: N1_7  and  C7_8 
REMARK    2  A    between atoms: C7_8  and  C8_9 
REMARK    3  A    between atoms: C8_9  and  O1_10 
REMARK    4  A    between atoms: O1_10  and  C9_11 
ROOT
HETATM    1  C7  UNL     1      23.601   4.288  49.986  1.00  0.00     0.261 C 
HETATM    2  N2  UNL     1      24.986   4.126  49.687  1.00  0.00    -0.222 NA
HETATM    3  C11 UNL     1      26.045   4.831  49.452  1.00  0.00     0.231 C 
HETATM    4  N3  UNL     1      26.171   6.248  49.416  1.00  0.00    -0.258 NA
HETATM    5  C12 UNL     1      25.536   7.226  49.946  1.00  0.00     0.093 C 
HETATM    6  C13 UNL     1      24.380   7.479  50.845  1.00  0.00     0.073 C 
HETATM    7  C14 UNL     1      23.957   6.107  51.381  1.00  0.00     0.178 C 
HETATM    8  O2  UNL     1      23.201   5.494  50.431  1.00  0.00    -0.340 OA
ENDROOT
BRANCH   1   9
HETATM    9  N1  UNL     1      23.297   3.308  51.056  1.00  0.00    -0.335 N 
HETATM   10  C6  UNL     1      24.454   2.473  51.260  1.00  0.00     0.098 C 
HETATM   11  C5  UNL     1      24.422   1.391  52.057  1.00  0.00    -0.032 C 
HETATM   12  C4  UNL     1      25.449   0.378  52.430  1.00  0.00     0.045 C 
HETATM   13  C17 UNL     1      23.218   1.044  52.798  1.00  0.00    -0.025 C 
HETATM   14  C3  UNL     1      24.978  -0.090  53.771  1.00  0.00     0.043 C 
HETATM   15  C2  UNL     1      23.492  -0.202  53.544  1.00  0.00    -0.057 C 
HETATM   16  C1  UNL     1      22.485  -1.047  53.818  1.00  0.00     0.020 C 
HETATM   17  C16 UNL     1      22.216   1.879  52.606  1.00  0.00     0.005 C 
HETATM   18  C15 UNL     1      22.097   3.123  51.806  1.00  0.00     0.155 C 
ENDBRANCH   1   9
BRANCH   1  19
HETATM   19  C8  UNL     1      22.767   3.830  48.821  1.00  0.00     0.255 C 
BRANCH  19  20
HETATM   20  O1  UNL     1      23.086   2.610  48.295  1.00  0.00    -0.385 OA
BRANCH  20  21
HETATM   21  C9  UNL     1      22.035   1.912  47.794  1.00  0.00     0.163 C 
HETATM   22  C10 UNL     1      21.478   1.006  48.922  1.00  0.00     0.033 C 
ENDBRANCH  20  21
ENDBRANCH  19  20
ENDBRANCH   1  19
TORSDOF 4
ENDMDL
MODEL 7
REMARK VINA RESULT:      -7.1      3.175      5.472
REMARK  4 active torsions:
REMARK  status: ('A' for Active; 'I' for Inactive)
REMARK    1  A    between atoms: N1_7  and  C7_8 
REMARK    2  A    between atoms: C7_8  and  C8_9 
REMARK    3  A    between atoms: C8_9  and  O1_10 
REMARK    4  A    between atoms: O1_10  and  C9_11 
ROOT
HETATM    1  C7  UNL     1      23.381   3.287  50.401  1.00  0.00     0.261 C 
HETATM    2  N2  UNL     1      22.454   4.371  50.377  1.00  0.00    -0.222 NA
HETATM    3  C11 UNL     1      21.769   5.079  49.537  1.00  0.00     0.231 C 
HETATM    4  N3  UNL     1      21.727   4.970  48.119  1.00  0.00    -0.258 NA
HETATM    5  C12 UNL     1      21.938   4.026  47.279  1.00  0.00     0.093 C 
HETATM    6  C13 UNL     1      22.322   2.591  47.251  1.00  0.00     0.073 C 
HETATM    7  C14 UNL     1      22.301   2.123  48.710  1.00  0.00     0.178 C 
HETATM    8  O2  UNL     1      23.462   2.517  49.300  1.00  0.00    -0.340 OA
ENDROOT
BRANCH   1   9
HETATM    9  N1  UNL     1      22.952   2.408  51.515  1.00  0.00    -0.335 N 
HETATM   10  C6  UNL     1      24.052   1.550  51.876  1.00  0.00     0.098 C 
HETATM   11  C5  UNL     1      23.911   0.537  52.749  1.00  0.00    -0.032 C 
HETATM   12  C4  UNL     1      24.861  -0.481  53.281  1.00  0.00     0.045 C 
HETATM   13  C17 UNL     1      22.638   0.294  53.413  1.00  0.00    -0.025 C 
HETATM   14  C3  UNL     1      24.266  -0.822  54.611  1.00  0.00     0.043 C 
HETATM   15  C2  UNL     1      22.798  -0.897  54.272  1.00  0.00    -0.057 C 
HETATM   16  C1  UNL     1      21.737  -1.680  54.527  1.00  0.00     0.020 C 
HETATM   17  C16 UNL     1      21.691   1.148  53.075  1.00  0.00     0.005 C 
HETATM   18  C15 UNL     1      21.690   2.327  52.176  1.00  0.00     0.155 C 
ENDBRANCH   1   9
BRANCH   1  19
HETATM   19  C8  UNL     1      24.737   3.781  50.824  1.00  0.00     0.255 C 
BRANCH  19  20
HETATM   20  O1  UNL     1      25.043   5.068  50.484  1.00  0.00    -0.385 OA
BRANCH  20  21
HETATM   21  C9  UNL     1      25.876   5.194  49.420  1.00  0.00     0.163 C 
HETATM   22  C10 UNL     1      26.811   3.957  49.391  1.00  0.00     0.033 C 
ENDBRANCH  20  21
ENDBRANCH  19  20
ENDBRANCH   1  19
TORSDOF 4
ENDMDL
MODEL 8
REMARK VINA RESULT:      -6.9      3.210      6.129
REMARK  4 active torsions:
REMARK  status: ('A' for Active; 'I' for Inactive)
REMARK    1  A    between atoms: N1_7  and  C7_8 
REMARK    2  A    between atoms: C7_8  and  C8_9 
REMARK    3  A    between atoms: C8_9  and  O1_10 
REMARK    4  A    between atoms: O1_10  and  C9_11 
ROOT
HETATM    1  C7  UNL     1      23.116   3.169  50.800  1.00  0.00     0.261 C 
HETATM    2  N2  UNL     1      22.147   2.200  51.197  1.00  0.00    -0.222 NA
HETATM    3  C11 UNL     1      21.042   1.668  50.784  1.00  0.00     0.231 C 
HETATM    4  N3  UNL     1      20.325   1.940  49.585  1.00  0.00    -0.258 NA
HETATM    5  C12 UNL     1      20.639   2.389  48.427  1.00  0.00     0.093 C 
HETATM    6  C13 UNL     1      21.828   2.863  47.673  1.00  0.00     0.073 C 
HETATM    7  C14 UNL     1      23.038   2.558  48.563  1.00  0.00     0.178 C 
HETATM    8  O2  UNL     1      23.131   3.535  49.505  1.00  0.00    -0.340 OA
ENDROOT
BRANCH   1   9
HETATM    9  N1  UNL     1      24.439   2.567  51.096  1.00  0.00    -0.335 N 
HETATM   10  C6  UNL     1      24.236   1.342  51.827  1.00  0.00     0.098 C 
HETATM   11  C5  UNL     1      25.257   0.657  52.371  1.00  0.00    -0.032 C 
HETATM   12  C4  UNL     1      25.324  -0.604  53.162  1.00  0.00     0.045 C 
HETATM   13  C17 UNL     1      26.633   1.102  52.196  1.00  0.00    -0.025 C 
HETATM   14  C3  UNL     1      26.702  -1.106  52.865  1.00  0.00     0.043 C 
HETATM   15  C2  UNL     1      27.506   0.167  52.935  1.00  0.00    -0.057 C 
HETATM   16  C1  UNL     1      28.672   0.605  53.439  1.00  0.00     0.020 C 
HETATM   17  C16 UNL     1      26.748   2.199  51.473  1.00  0.00     0.005 C 
HETATM   18  C15 UNL     1      25.746   3.042  50.777  1.00  0.00     0.155 C 
ENDBRANCH   1   9
BRANCH   1  19
HETATM   19  C8  UNL     1      23.046   4.366  51.708  1.00  0.00     0.255 C 
BRANCH  19  20
HETATM   20  O1  UNL     1      22.976   5.584  51.094  1.00  0.00    -0.385 OA
BRANCH  20  21
HETATM   21  C9  UNL     1      24.058   6.382  51.284  1.00  0.00     0.163 C 
HETATM   22  C10 UNL     1      23.725   7.787  50.719  1.00  0.00     0.033 C 
ENDBRANCH  20  21
ENDBRANCH  19  20
ENDBRANCH   1  19
TORSDOF 4
ENDMDL
MODEL 9
REMARK VINA RESULT:      -6.7      2.414      5.566
REMARK  4 active torsions:
REMARK  status: ('A' for Active; 'I' for Inactive)
REMARK    1  A    between atoms: N1_7  and  C7_8 
REMARK    2  A    between atoms: C7_8  and  C8_9 
REMARK    3  A    between atoms: C8_9  and  O1_10 
REMARK    4  A    between atoms: O1_10  and  C9_11 
ROOT
HETATM    1  C7  UNL     1      24.471   1.480  52.547  1.00  0.00     0.261 C 
HETATM    2  N2  UNL     1      25.247   2.361  53.357  1.00  0.00    -0.222 NA
HETATM    3  C11 UNL     1      26.291   2.354  54.121  1.00  0.00     0.231 C 
HETATM    4  N3  UNL     1      27.141   1.259  54.443  1.00  0.00    -0.258 NA
HETATM    5  C12 UNL     1      27.449   0.155  53.871  1.00  0.00     0.093 C 
HETATM    6  C13 UNL     1      27.146  -0.609  52.633  1.00  0.00     0.073 C 
HETATM    7  C14 UNL     1      26.323   0.334  51.749  1.00  0.00     0.178 C 
HETATM    8  O2  UNL     1      25.035   0.313  52.187  1.00  0.00    -0.340 OA
ENDROOT
BRANCH   1   9
HETATM    9  N1  UNL     1      24.179   2.224  51.299  1.00  0.00    -0.335 N 
HETATM   10  C6  UNL     1      24.961   3.435  51.289  1.00  0.00     0.098 C 
HETATM   11  C5  UNL     1      24.789   4.389  50.358  1.00  0.00    -0.032 C 
HETATM   12  C4  UNL     1      25.445   5.707  50.126  1.00  0.00     0.045 C 
HETATM   13  C17 UNL     1      23.830   4.214  49.277  1.00  0.00    -0.025 C 
HETATM   14  C3  UNL     1      25.273   5.905  48.652  1.00  0.00     0.043 C 
HETATM   15  C2  UNL     1      23.852   5.440  48.452  1.00  0.00    -0.057 C 
HETATM   16  C1  UNL     1      22.745   5.817  47.792  1.00  0.00     0.020 C 
HETATM   17  C16 UNL     1      23.187   3.063  49.318  1.00  0.00     0.005 C 
HETATM   18  C15 UNL     1      23.284   1.902  50.235  1.00  0.00     0.155 C 
ENDBRANCH   1   9
BRANCH   1  19
HETATM   19  C8  UNL     1      23.119   1.265  53.171  1.00  0.00     0.255 C 
BRANCH  19  20
HETATM   20  O1  UNL     1      22.813  -0.020  53.518  1.00  0.00    -0.385 OA
BRANCH  20  21
HETATM   21  C9  UNL     1      21.567  -0.191  54.028  1.00  0.00     0.163 C 
HETATM   22  C10 UNL     1      21.439  -1.663  54.501  1.00  0.00     0.033 C 
ENDBRANCH  20  21
ENDBRANCH  19  20
ENDBRANCH   1  19
TORSDOF 4
ENDMDL
