MODEL 1
REMARK VINA RESULT:      -8.0      0.000      0.000
REMARK  6 active torsions:
REMARK  status: ('A' for Active; 'I' for Inactive)
REMARK    1  A    between atoms: C2_2  and  O1_3 
REMARK    2  A    between atoms: O1_3  and  C3_4 
REMARK    3  A    between atoms: C12_15  and  N3_16 
REMARK       I    between atoms: N3_16  and  C13_17 
REMARK    4  A    between atoms: C13_17  and  C14_19 
REMARK    5  A    between atoms: C15_20  and  C16_21 
REMARK    6  A    between atoms: C16_21  and  N4_22 
ROOT
HETATM    1  C3  UNL     1      26.889   1.421  52.708  1.00  0.00     0.097 A 
HETATM    2  C4  UNL     1      26.308   0.473  53.503  1.00  0.00     0.071 A 
HETATM    3  C5  UNL     1      24.946   0.245  53.522  1.00  0.00     0.069 A 
HETATM    4  N1  UNL     1      24.356  -0.682  54.298  1.00  0.00    -0.259 NA
HETATM    5  C6  UNL     1      23.027  -0.893  54.307  1.00  0.00     0.140 A 
HETATM    6  C7  UNL     1      22.220  -0.131  53.489  1.00  0.00     0.063 A 
HETATM    7  C8  UNL     1      20.784  -0.322  53.466  1.00  0.00     0.101 C 
HETATM    8  N2  UNL     1      19.626  -0.493  53.454  1.00  0.00    -0.191 NA
HETATM    9  C9  UNL     1      22.778   0.849  52.660  1.00  0.00     0.038 A 
HETATM   10  C10 UNL     1      24.151   1.026  52.687  1.00  0.00    -0.004 A 
HETATM   11  C11 UNL     1      24.776   1.970  51.902  1.00  0.00     0.046 A 
HETATM   12  C12 UNL     1      26.130   2.209  51.872  1.00  0.00     0.069 A 
ENDROOT
BRANCH  12  13
HETATM   13  N3  UNL     1      26.787   3.172  51.070  1.00  0.00    -0.321 N 
HETATM   14  C13 UNL     1      26.433   3.671  49.798  1.00  0.00     0.245 C 
HETATM   15  O2  UNL     1      25.399   3.244  49.237  1.00  0.00    -0.268 OA
HETATM   16  H10 UNL     1      27.661   3.614  51.406  1.00  0.00     0.169 HD
BRANCH  14  17
HETATM   17  C14 UNL     1      27.166   4.654  49.062  1.00  0.00     0.072 C 
HETATM   18  C15 UNL     1      26.936   5.905  48.714  1.00  0.00    -0.002 C 
BRANCH  18  19
HETATM   19  C16 UNL     1      27.554   7.034  47.982  1.00  0.00     0.143 C 
BRANCH  19  20
HETATM   20  N4  UNL     1      28.053   7.991  48.901  1.00  0.00    -0.418 N 
HETATM   21  C17 UNL     1      27.113   8.679  49.709  1.00  0.00     0.142 C 
HETATM   22  C18 UNL     1      29.246   8.676  48.554  1.00  0.00     0.142 C 
ENDBRANCH  19  20
ENDBRANCH  18  19
ENDBRANCH  14  17
ENDBRANCH  12  13
BRANCH   1  23
HETATM   23  O1  UNL     1      28.256   1.613  52.722  1.00  0.00    -0.349 OA
BRANCH  23  24
HETATM   24  C2  UNL     1      29.033   1.173  53.792  1.00  0.00     0.171 C 
HETATM   25  C1  UNL     1      29.828  -0.061  53.529  1.00  0.00     0.034 C 
ENDBRANCH  23  24
ENDBRANCH   1  23
TORSDOF 6
ENDMDL
MODEL 2
REMARK VINA RESULT:      -7.4      4.131      8.708
REMARK  6 active torsions:
REMARK  status: ('A' for Active; 'I' for Inactive)
REMARK    1  A    between atoms: C2_2  and  O1_3 
REMARK    2  A    between atoms: O1_3  and  C3_4 
REMARK    3  A    between atoms: C12_15  and  N3_16 
REMARK       I    between atoms: N3_16  and  C13_17 
REMARK    4  A    between atoms: C13_17  and  C14_19 
REMARK    5  A    between atoms: C15_20  and  C16_21 
REMARK    6  A    between atoms: C16_21  and  N4_22 
ROOT
HETATM    1  C3  UNL     1      23.405   1.572  52.857  1.00  0.00     0.097 A 
HETATM    2  C4  UNL     1      24.624   2.191  52.857  1.00  0.00     0.071 A 
HETATM    3  C5  UNL     1      25.809   1.512  53.066  1.00  0.00     0.069 A 
HETATM    4  N1  UNL     1      27.016   2.103  53.070  1.00  0.00    -0.259 NA
HETATM    5  C6  UNL     1      28.163   1.429  53.276  1.00  0.00     0.140 A 
HETATM    6  C7  UNL     1      28.112   0.069  53.493  1.00  0.00     0.063 A 
HETATM    7  C8  UNL     1      29.320  -0.699  53.720  1.00  0.00     0.101 C 
HETATM    8  N2  UNL     1      30.306  -1.305  53.895  1.00  0.00    -0.191 NA
HETATM    9  C9  UNL     1      26.884  -0.602  53.500  1.00  0.00     0.038 A 
HETATM   10  C10 UNL     1      25.733   0.138  53.283  1.00  0.00    -0.004 A 
HETATM   11  C11 UNL     1      24.486  -0.448  53.275  1.00  0.00     0.046 A 
HETATM   12  C12 UNL     1      23.298   0.215  53.069  1.00  0.00     0.069 A 
ENDROOT
BRANCH  12  13
HETATM   13  N3  UNL     1      22.010  -0.371  53.055  1.00  0.00    -0.321 N 
HETATM   14  C13 UNL     1      21.291  -0.980  54.106  1.00  0.00     0.245 C 
HETATM   15  O2  UNL     1      21.806  -1.047  55.244  1.00  0.00    -0.268 OA
HETATM   16  H10 UNL     1      21.462  -0.390  52.177  1.00  0.00     0.169 HD
BRANCH  14  17
HETATM   17  C14 UNL     1      19.983  -1.546  53.993  1.00  0.00     0.072 C 
HETATM   18  C15 UNL     1      18.882  -1.200  53.354  1.00  0.00    -0.002 C 
BRANCH  18  19
HETATM   19  C16 UNL     1      17.488  -1.646  53.130  1.00  0.00     0.143 C 
BRANCH  19  20
HETATM   20  N4  UNL     1      16.824  -0.741  52.262  1.00  0.00    -0.418 N 
HETATM   21  C17 UNL     1      15.527  -1.096  51.812  1.00  0.00     0.142 C 
HETATM   22  C18 UNL     1      17.625   0.052  51.402  1.00  0.00     0.142 C 
ENDBRANCH  19  20
ENDBRANCH  18  19
ENDBRANCH  14  17
ENDBRANCH  12  13
BRANCH   1  23
HETATM   23  O1  UNL     1      22.247   2.292  52.643  1.00  0.00    -0.349 OA
BRANCH  23  24
HETATM   24  C2  UNL     1      22.292   3.599  52.162  1.00  0.00     0.171 C 
HETATM   25  C1  UNL     1      21.007   4.110  51.604  1.00  0.00     0.034 C 
ENDBRANCH  23  24
ENDBRANCH   1  23
TORSDOF 6
ENDMDL
MODEL 3
REMARK VINA RESULT:      -7.4      1.214      1.644
REMARK  6 active torsions:
REMARK  status: ('A' for Active; 'I' for Inactive)
REMARK    1  A    between atoms: C2_2  and  O1_3 
REMARK    2  A    between atoms: O1_3  and  C3_4 
REMARK    3  A    between atoms: C12_15  and  N3_16 
REMARK       I    between atoms: N3_16  and  C13_17 
REMARK    4  A    between atoms: C13_17  and  C14_19 
REMARK    5  A    between atoms: C15_20  and  C16_21 
REMARK    6  A    between atoms: C16_21  and  N4_22 
ROOT
HETATM    1  C3  UNL     1      25.699   0.415  53.238  1.00  0.00     0.097 A 
HETATM    2  C4  UNL     1      24.915  -0.399  54.006  1.00  0.00     0.071 A 
HETATM    3  C5  UNL     1      23.545  -0.485  53.848  1.00  0.00     0.069 A 
HETATM    4  N1  UNL     1      22.757  -1.279  54.595  1.00  0.00    -0.259 NA
HETATM    5  C6  UNL     1      21.423  -1.352  54.431  1.00  0.00     0.140 A 
HETATM    6  C7  UNL     1      20.823  -0.583  53.457  1.00  0.00     0.063 A 
HETATM    7  C8  UNL     1      19.391  -0.628  53.245  1.00  0.00     0.101 C 
HETATM    8  N2  UNL     1      18.233  -0.681  53.082  1.00  0.00    -0.191 NA
HETATM    9  C9  UNL     1      21.592   0.262  52.649  1.00  0.00     0.038 A 
HETATM   10  C10 UNL     1      22.960   0.301  52.858  1.00  0.00    -0.004 A 
HETATM   11  C11 UNL     1      23.786   1.108  52.105  1.00  0.00     0.046 A 
HETATM   12  C12 UNL     1      25.151   1.204  52.251  1.00  0.00     0.069 A 
ENDROOT
BRANCH  12  13
HETATM   13  N3  UNL     1      26.013   2.025  51.485  1.00  0.00    -0.321 N 
HETATM   14  C13 UNL     1      25.710   2.875  50.399  1.00  0.00     0.245 C 
HETATM   15  O2  UNL     1      24.527   2.965  50.001  1.00  0.00    -0.268 OA
HETATM   16  H10 UNL     1      27.025   2.051  51.700  1.00  0.00     0.169 HD
BRANCH  14  17
HETATM   17  C14 UNL     1      26.657   3.673  49.686  1.00  0.00     0.072 C 
HETATM   18  C15 UNL     1      26.628   4.877  49.149  1.00  0.00    -0.002 C 
BRANCH  18  19
HETATM   19  C16 UNL     1      27.479   5.830  48.401  1.00  0.00     0.143 C 
BRANCH  19  20
HETATM   20  N4  UNL     1      26.917   7.130  48.458  1.00  0.00    -0.418 N 
HETATM   21  C17 UNL     1      27.571   8.161  47.738  1.00  0.00     0.142 C 
HETATM   22  C18 UNL     1      26.219   7.494  49.639  1.00  0.00     0.142 C 
ENDBRANCH  19  20
ENDBRANCH  18  19
ENDBRANCH  14  17
ENDBRANCH  12  13
BRANCH   1  23
HETATM   23  O1  UNL     1      27.065   0.467  53.431  1.00  0.00    -0.349 OA
BRANCH  23  24
HETATM   24  C2  UNL     1      27.874  -0.630  53.142  1.00  0.00     0.171 C 
HETATM   25  C1  UNL     1      29.246  -0.573  53.724  1.00  0.00     0.034 C 
ENDBRANCH  23  24
ENDBRANCH   1  23
TORSDOF 6
ENDMDL
MODEL 4
REMARK VINA RESULT:      -7.4      2.330      4.247
REMARK  6 active torsions:
REMARK  status: ('A' for Active; 'I' for Inactive)
REMARK    1  A    between atoms: C2_2  and  O1_3 
REMARK    2  A    between atoms: O1_3  and  C3_4 
REMARK    3  A    between atoms: C12_15  and  N3_16 
REMARK       I    between atoms: N3_16  and  C13_17 
REMARK    4  A    between atoms: C13_17  and  C14_19 
REMARK    5  A    between atoms: C15_20  and  C16_21 
REMARK    6  A    between atoms: C16_21  and  N4_22 
ROOT
HETATM    1  C3  UNL     1      24.359   3.566  51.950  1.00  0.00     0.097 A 
HETATM    2  C4  UNL     1      24.060   2.488  52.737  1.00  0.00     0.071 A 
HETATM    3  C5  UNL     1      24.840   1.348  52.772  1.00  0.00     0.069 A 
HETATM    4  N1  UNL     1      24.562   0.279  53.538  1.00  0.00    -0.259 NA
HETATM    5  C6  UNL     1      25.329  -0.826  53.562  1.00  0.00     0.140 A 
HETATM    6  C7  UNL     1      26.456  -0.878  52.771  1.00  0.00     0.063 A 
HETATM    7  C8  UNL     1      27.313  -2.047  52.763  1.00  0.00     0.101 C 
HETATM    8  N2  UNL     1      27.997  -2.996  52.774  1.00  0.00    -0.191 NA
HETATM    9  C9  UNL     1      26.797   0.205  51.952  1.00  0.00     0.038 A 
HETATM   10  C10 UNL     1      25.974   1.318  51.964  1.00  0.00    -0.004 A 
HETATM   11  C11 UNL     1      26.239   2.425  51.186  1.00  0.00     0.046 A 
HETATM   12  C12 UNL     1      25.473   3.566  51.140  1.00  0.00     0.069 A 
ENDROOT
BRANCH  12  13
HETATM   13  N3  UNL     1      25.733   4.711  50.349  1.00  0.00    -0.321 N 
HETATM   14  C13 UNL     1      26.662   4.883  49.301  1.00  0.00     0.245 C 
HETATM   15  O2  UNL     1      27.397   3.927  48.968  1.00  0.00    -0.268 OA
HETATM   16  H10 UNL     1      25.200   5.583  50.513  1.00  0.00     0.169 HD
BRANCH  14  17
HETATM   17  C14 UNL     1      26.851   6.088  48.555  1.00  0.00     0.072 C 
HETATM   18  C15 UNL     1      27.909   6.767  48.153  1.00  0.00    -0.002 C 
BRANCH  18  19
HETATM   19  C16 UNL     1      28.283   7.986  47.402  1.00  0.00     0.143 C 
BRANCH  19  20
HETATM   20  N4  UNL     1      28.974   8.886  48.252  1.00  0.00    -0.418 N 
HETATM   21  C17 UNL     1      30.175   8.432  48.852  1.00  0.00     0.142 C 
HETATM   22  C18 UNL     1      28.203   9.841  48.964  1.00  0.00     0.142 C 
ENDBRANCH  19  20
ENDBRANCH  18  19
ENDBRANCH  14  17
ENDBRANCH  12  13
BRANCH   1  23
HETATM   23  O1  UNL     1      23.551   4.685  51.948  1.00  0.00    -0.349 OA
BRANCH  23  24
HETATM   24  C2  UNL     1      22.298   4.665  51.338  1.00  0.00     0.171 C 
HETATM   25  C1  UNL     1      21.921   5.922  50.631  1.00  0.00     0.034 C 
ENDBRANCH  23  24
ENDBRANCH   1  23
TORSDOF 6
ENDMDL
MODEL 5
REMARK VINA RESULT:      -7.3      3.990      8.691
REMARK  6 active torsions:
REMARK  status: ('A' for Active; 'I' for Inactive)
REMARK    1  A    between atoms: C2_2  and  O1_3 
REMARK    2  A    between atoms: O1_3  and  C3_4 
REMARK    3  A    between atoms: C12_15  and  N3_16 
REMARK       I    between atoms: N3_16  and  C13_17 
REMARK    4  A    between atoms: C13_17  and  C14_19 
REMARK    5  A    between atoms: C15_20  and  C16_21 
REMARK    6  A    between atoms: C16_21  and  N4_22 
ROOT
HETATM    1  C3  UNL     1      23.065   2.349  52.527  1.00  0.00     0.097 A 
HETATM    2  C4  UNL     1      24.385   2.699  52.600  1.00  0.00     0.071 A 
HETATM    3  C5  UNL     1      25.396   1.773  52.766  1.00  0.00     0.069 A 
HETATM    4  N1  UNL     1      26.699   2.097  52.841  1.00  0.00    -0.259 NA
HETATM    5  C6  UNL     1      27.675   1.185  53.004  1.00  0.00     0.140 A 
HETATM    6  C7  UNL     1      27.338  -0.149  53.098  1.00  0.00     0.063 A 
HETATM    7  C8  UNL     1      28.353  -1.167  53.274  1.00  0.00     0.101 C 
HETATM    8  N2  UNL     1      29.187  -1.977  53.410  1.00  0.00    -0.191 NA
HETATM    9  C9  UNL     1      25.998  -0.547  53.026  1.00  0.00     0.038 A 
HETATM   10  C10 UNL     1      25.032   0.431  52.859  1.00  0.00    -0.004 A 
HETATM   11  C11 UNL     1      23.692   0.121  52.780  1.00  0.00     0.046 A 
HETATM   12  C12 UNL     1      22.674   1.032  52.616  1.00  0.00     0.069 A 
ENDROOT
BRANCH  12  13
HETATM   13  N3  UNL     1      21.294   0.729  52.530  1.00  0.00    -0.321 N 
HETATM   14  C13 UNL     1      20.493   0.513  51.388  1.00  0.00     0.245 C 
HETATM   15  O2  UNL     1      21.012   0.583  50.251  1.00  0.00    -0.268 OA
HETATM   16  H10 UNL     1      20.731   0.641  53.394  1.00  0.00     0.169 HD
BRANCH  14  17
HETATM   17  C14 UNL     1      19.097   0.208  51.403  1.00  0.00     0.072 C 
HETATM   18  C15 UNL     1      18.296  -0.401  52.257  1.00  0.00    -0.002 C 
BRANCH  18  19
HETATM   19  C16 UNL     1      16.880  -0.794  52.435  1.00  0.00     0.143 C 
BRANCH  19  20
HETATM   20  N4  UNL     1      16.792  -2.185  52.698  1.00  0.00    -0.418 N 
HETATM   21  C17 UNL     1      15.521  -2.799  52.568  1.00  0.00     0.142 C 
HETATM   22  C18 UNL     1      17.693  -2.733  53.647  1.00  0.00     0.142 C 
ENDBRANCH  19  20
ENDBRANCH  18  19
ENDBRANCH  14  17
ENDBRANCH  12  13
BRANCH   1  23
HETATM   23  O1  UNL     1      22.088   3.310  52.360  1.00  0.00    -0.349 OA
BRANCH  23  24
HETATM   24  C2  UNL     1      22.401   4.667  52.398  1.00  0.00     0.171 C 
HETATM   25  C1  UNL     1      21.988   5.444  51.194  1.00  0.00     0.034 C 
ENDBRANCH  23  24
ENDBRANCH   1  23
TORSDOF 6
ENDMDL
MODEL 6
REMARK VINA RESULT:      -7.1      2.375      4.098
REMARK  6 active torsions:
REMARK  status: ('A' for Active; 'I' for Inactive)
REMARK    1  A    between atoms: C2_2  and  O1_3 
REMARK    2  A    between atoms: O1_3  and  C3_4 
REMARK    3  A    between atoms: C12_15  and  N3_16 
REMARK       I    between atoms: N3_16  and  C13_17 
REMARK    4  A    between atoms: C13_17  and  C14_19 
REMARK    5  A    between atoms: C15_20  and  C16_21 
REMARK    6  A    between atoms: C16_21  and  N4_22 
ROOT
HETATM    1  C3  UNL     1      23.162   2.860  49.486  1.00  0.00     0.097 A 
HETATM    2  C4  UNL     1      22.254   1.907  49.854  1.00  0.00     0.071 A 
HETATM    3  C5  UNL     1      22.360   1.184  51.026  1.00  0.00     0.069 A 
HETATM    4  N1  UNL     1      21.478   0.243  51.404  1.00  0.00    -0.259 NA
HETATM    5  C6  UNL     1      21.594  -0.455  52.549  1.00  0.00     0.140 A 
HETATM    6  C7  UNL     1      22.662  -0.203  53.383  1.00  0.00     0.063 A 
HETATM    7  C8  UNL     1      22.830  -0.929  54.625  1.00  0.00     0.101 C 
HETATM    8  N2  UNL     1      22.946  -1.521  55.628  1.00  0.00    -0.191 NA
HETATM    9  C9  UNL     1      23.613   0.765  53.042  1.00  0.00     0.038 A 
HETATM   10  C10 UNL     1      23.448   1.456  51.853  1.00  0.00    -0.004 A 
HETATM   11  C11 UNL     1      24.340   2.423  51.446  1.00  0.00     0.046 A 
HETATM   12  C12 UNL     1      24.248   3.151  50.282  1.00  0.00     0.069 A 
ENDROOT
BRANCH  12  13
HETATM   13  N3  UNL     1      25.154   4.149  49.851  1.00  0.00    -0.321 N 
HETATM   14  C13 UNL     1      26.477   4.015  49.379  1.00  0.00     0.245 C 
HETATM   15  O2  UNL     1      26.990   2.876  49.303  1.00  0.00    -0.268 OA
HETATM   16  H10 UNL     1      24.867   5.144  49.860  1.00  0.00     0.169 HD
BRANCH  14  17
HETATM   17  C14 UNL     1      27.319   5.092  48.961  1.00  0.00     0.072 C 
HETATM   18  C15 UNL     1      27.124   6.198  48.268  1.00  0.00    -0.002 C 
BRANCH  18  19
HETATM   19  C16 UNL     1      27.847   7.385  47.758  1.00  0.00     0.143 C 
BRANCH  19  20
HETATM   20  N4  UNL     1      28.786   7.832  48.722  1.00  0.00    -0.418 N 
HETATM   21  C17 UNL     1      28.532   9.073  49.359  1.00  0.00     0.142 C 
HETATM   22  C18 UNL     1      30.140   7.447  48.550  1.00  0.00     0.142 C 
ENDBRANCH  19  20
ENDBRANCH  18  19
ENDBRANCH  14  17
ENDBRANCH  12  13
BRANCH   1  23
HETATM   23  O1  UNL     1      23.015   3.558  48.304  1.00  0.00    -0.349 OA
BRANCH  23  24
HETATM   24  C2  UNL     1      22.119   4.621  48.205  1.00  0.00     0.171 C 
HETATM   25  C1  UNL     1      22.715   5.906  47.739  1.00  0.00     0.034 C 
ENDBRANCH  23  24
ENDBRANCH   1  23
TORSDOF 6
ENDMDL
MODEL 7
REMARK VINA RESULT:      -7.0      2.517      9.053
REMARK  6 active torsions:
REMARK  status: ('A' for Active; 'I' for Inactive)
REMARK    1  A    between atoms: C2_2  and  O1_3 
REMARK    2  A    between atoms: O1_3  and  C3_4 
REMARK    3  A    between atoms: C12_15  and  N3_16 
REMARK       I    between atoms: N3_16  and  C13_17 
REMARK    4  A    between atoms: C13_17  and  C14_19 
REMARK    5  A    between atoms: C15_20  and  C16_21 
REMARK    6  A    between atoms: C16_21  and  N4_22 
ROOT
HETATM    1  C3  UNL     1      24.802   5.695  49.316  1.00  0.00     0.097 A 
HETATM    2  C4  UNL     1      25.580   6.780  49.022  1.00  0.00     0.071 A 
HETATM    3  C5  UNL     1      26.920   6.676  48.703  1.00  0.00     0.069 A 
HETATM    4  N1  UNL     1      27.701   7.731  48.412  1.00  0.00    -0.259 NA
HETATM    5  C6  UNL     1      29.006   7.616  48.104  1.00  0.00     0.140 A 
HETATM    6  C7  UNL     1      29.582   6.364  48.079  1.00  0.00     0.063 A 
HETATM    7  C8  UNL     1      30.982   6.190  47.753  1.00  0.00     0.101 C 
HETATM    8  N2  UNL     1      32.114   6.067  47.481  1.00  0.00    -0.191 NA
HETATM    9  C9  UNL     1      28.818   5.228  48.373  1.00  0.00     0.038 A 
HETATM   10  C10 UNL     1      27.480   5.401  48.684  1.00  0.00    -0.004 A 
HETATM   11  C11 UNL     1      26.662   4.334  48.986  1.00  0.00     0.046 A 
HETATM   12  C12 UNL     1      25.327   4.421  49.306  1.00  0.00     0.069 A 
ENDROOT
BRANCH  12  13
HETATM   13  N3  UNL     1      24.473   3.335  49.615  1.00  0.00    -0.321 N 
HETATM   14  C13 UNL     1      24.273   2.676  50.847  1.00  0.00     0.245 C 
HETATM   15  O2  UNL     1      24.911   3.051  51.856  1.00  0.00    -0.268 OA
HETATM   16  H10 UNL     1      23.883   2.917  48.875  1.00  0.00     0.169 HD
BRANCH  14  17
HETATM   17  C14 UNL     1      23.379   1.581  51.061  1.00  0.00     0.072 C 
HETATM   18  C15 UNL     1      22.798   1.061  52.125  1.00  0.00    -0.002 C 
BRANCH  18  19
HETATM   19  C16 UNL     1      21.878  -0.028  52.524  1.00  0.00     0.143 C 
BRANCH  19  20
HETATM   20  N4  UNL     1      22.519  -0.889  53.450  1.00  0.00    -0.418 N 
HETATM   21  C17 UNL     1      21.700  -1.593  54.368  1.00  0.00     0.142 C 
HETATM   22  C18 UNL     1      23.831  -0.546  53.868  1.00  0.00     0.142 C 
ENDBRANCH  19  20
ENDBRANCH  18  19
ENDBRANCH  14  17
ENDBRANCH  12  13
BRANCH   1  23
HETATM   23  O1  UNL     1      23.466   5.847  49.629  1.00  0.00    -0.349 OA
BRANCH  23  24
HETATM   24  C2  UNL     1      23.071   6.315  50.880  1.00  0.00     0.171 C 
HETATM   25  C1  UNL     1      21.970   5.542  51.524  1.00  0.00     0.034 C 
ENDBRANCH  23  24
ENDBRANCH   1  23
TORSDOF 6
ENDMDL
MODEL 8
REMARK VINA RESULT:      -6.9      3.939      8.144
REMARK  6 active torsions:
REMARK  status: ('A' for Active; 'I' for Inactive)
REMARK    1  A    between atoms: C2_2  and  O1_3 
REMARK    2  A    between atoms: O1_3  and  C3_4 
REMARK    3  A    between atoms: C12_15  and  N3_16 
REMARK       I    between atoms: N3_16  and  C13_17 
REMARK    4  A    between atoms: C13_17  and  C14_19 
REMARK    5  A    between atoms: C15_20  and  C16_21 
REMARK    6  A    between atoms: C16_21  and  N4_22 
ROOT
HETATM    1  C3  UNL     1      23.101   2.424  52.584  1.00  0.00     0.097 A 
HETATM    2  C4  UNL     1      24.425   2.761  52.565  1.00  0.00     0.071 A 
HETATM    3  C5  UNL     1      25.436   1.836  52.743  1.00  0.00     0.069 A 
HETATM    4  N1  UNL     1      26.744   2.149  52.728  1.00  0.00    -0.259 NA
HETATM    5  C6  UNL     1      27.718   1.238  52.903  1.00  0.00     0.140 A 
HETATM    6  C7  UNL     1      27.375  -0.081  53.108  1.00  0.00     0.063 A 
HETATM    7  C8  UNL     1      28.389  -1.098  53.302  1.00  0.00     0.101 C 
HETATM    8  N2  UNL     1      29.221  -1.907  53.451  1.00  0.00    -0.191 NA
HETATM    9  C9  UNL     1      26.030  -0.467  53.134  1.00  0.00     0.038 A 
HETATM   10  C10 UNL     1      25.065   0.510  52.948  1.00  0.00    -0.004 A 
HETATM   11  C11 UNL     1      23.720   0.212  52.960  1.00  0.00     0.046 A 
HETATM   12  C12 UNL     1      22.703   1.121  52.785  1.00  0.00     0.069 A 
ENDROOT
BRANCH  12  13
HETATM   13  N3  UNL     1      21.317   0.831  52.792  1.00  0.00    -0.321 N 
HETATM   14  C13 UNL     1      20.477   0.450  51.725  1.00  0.00     0.245 C 
HETATM   15  O2  UNL     1      20.957   0.333  50.576  1.00  0.00    -0.268 OA
HETATM   16  H10 UNL     1      20.783   0.888  53.677  1.00  0.00     0.169 HD
BRANCH  14  17
HETATM   17  C14 UNL     1      19.078   0.174  51.833  1.00  0.00     0.072 C 
HETATM   18  C15 UNL     1      17.981   0.847  51.546  1.00  0.00    -0.002 C 
BRANCH  18  19
HETATM   19  C16 UNL     1      16.506   0.727  51.589  1.00  0.00     0.143 C 
BRANCH  19  20
HETATM   20  N4  UNL     1      15.908   1.933  51.142  1.00  0.00    -0.418 N 
HETATM   21  C17 UNL     1      16.403   3.149  51.678  1.00  0.00     0.142 C 
HETATM   22  C18 UNL     1      14.542   1.889  50.764  1.00  0.00     0.142 C 
ENDBRANCH  19  20
ENDBRANCH  18  19
ENDBRANCH  14  17
ENDBRANCH  12  13
BRANCH   1  23
HETATM   23  O1  UNL     1      22.125   3.383  52.402  1.00  0.00    -0.349 OA
BRANCH  23  24
HETATM   24  C2  UNL     1      22.040   4.104  51.212  1.00  0.00     0.171 C 
HETATM   25  C1  UNL     1      22.082   5.587  51.369  1.00  0.00     0.034 C 
ENDBRANCH  23  24
ENDBRANCH   1  23
TORSDOF 6
ENDMDL
MODEL 9
REMARK VINA RESULT:      -6.8      4.047      8.652
REMARK  6 active torsions:
REMARK  status: ('A' for Active; 'I' for Inactive)
REMARK    1  A    between atoms: C2_2  and  O1_3 
REMARK    2  A    between atoms: O1_3  and  C3_4 
REMARK    3  A    between atoms: C12_15  and  N3_16 
REMARK       I    between atoms: N3_16  and  C13_17 
REMARK    4  A    between atoms: C13_17  and  C14_19 
REMARK    5  A    between atoms: C15_20  and  C16_21 
REMARK    6  A    between atoms: C16_21  and  N4_22 
ROOT
HETATM    1  C3  UNL     1      22.084   0.851  52.110  1.00  0.00     0.097 A 
HETATM    2  C4  UNL     1      23.422   0.878  52.388  1.00  0.00     0.071 A 
HETATM    3  C5  UNL     1      24.321   1.636  51.664  1.00  0.00     0.069 A 
HETATM    4  N1  UNL     1      25.641   1.675  51.922  1.00  0.00    -0.259 NA
HETATM    5  C6  UNL     1      26.507   2.418  51.208  1.00  0.00     0.140 A 
HETATM    6  C7  UNL     1      26.033   3.180  50.161  1.00  0.00     0.063 A 
HETATM    7  C8  UNL     1      26.927   3.994  49.364  1.00  0.00     0.101 C 
HETATM    8  N2  UNL     1      27.663   4.652  48.734  1.00  0.00    -0.191 NA
HETATM    9  C9  UNL     1      24.670   3.179  49.846  1.00  0.00     0.038 A 
HETATM   10  C10 UNL     1      23.821   2.398  50.611  1.00  0.00    -0.004 A 
HETATM   11  C11 UNL     1      22.466   2.343  50.364  1.00  0.00     0.046 A 
HETATM   12  C12 UNL     1      21.558   1.593  51.076  1.00  0.00     0.069 A 
ENDROOT
BRANCH  12  13
HETATM   13  N3  UNL     1      20.165   1.528  50.837  1.00  0.00    -0.321 N 
HETATM   14  C13 UNL     1      19.127   2.326  51.363  1.00  0.00     0.245 C 
HETATM   15  O2  UNL     1      19.406   3.245  52.165  1.00  0.00    -0.268 OA
HETATM   16  H10 UNL     1      19.785   0.812  50.192  1.00  0.00     0.169 HD
BRANCH  14  17
HETATM   17  C14 UNL     1      17.738   2.184  51.057  1.00  0.00     0.072 C 
HETATM   18  C15 UNL     1      16.639   2.791  51.459  1.00  0.00    -0.002 C 
BRANCH  18  19
HETATM   19  C16 UNL     1      15.172   2.778  51.260  1.00  0.00     0.143 C 
BRANCH  19  20
HETATM   20  N4  UNL     1      14.515   3.097  52.475  1.00  0.00    -0.418 N 
HETATM   21  C17 UNL     1      15.076   4.125  53.275  1.00  0.00     0.142 C 
HETATM   22  C18 UNL     1      13.816   2.056  53.138  1.00  0.00     0.142 C 
ENDBRANCH  19  20
ENDBRANCH  18  19
ENDBRANCH  14  17
ENDBRANCH  12  13
BRANCH   1  23
HETATM   23  O1  UNL     1      21.222   0.078  52.862  1.00  0.00    -0.349 OA
BRANCH  23  24
HETATM   24  C2  UNL     1      21.430  -0.111  54.227  1.00  0.00     0.171 C 
HETATM   25  C1  UNL     1      21.670  -1.524  54.638  1.00  0.00     0.034 C 
ENDBRANCH  23  24
ENDBRANCH   1  23
TORSDOF 6
ENDMDL
