MODEL 1
REMARK VINA RESULT:      -8.0      0.000      0.000
REMARK  7 active torsions:
REMARK  status: ('A' for Active; 'I' for Inactive)
REMARK    1  A    between atoms: C2_2  and  N1_3 
REMARK    2  A    between atoms: C3_4  and  C4_5 
REMARK    3  A    between atoms: C5_6  and  C6_7 
REMARK       I    between atoms: C6_7  and  N2_9 
REMARK    4  A    between atoms: N2_9  and  C7_10 
REMARK    5  A    between atoms: C12_16  and  C13_17 
REMARK    6  A    between atoms: C13_17  and  N4_18 
REMARK    7  A    between atoms: C14_19  and  C15_20 
ROOT
HETATM    1  C7  UNL     1      23.623   4.182  49.810  1.00  0.00     0.035 C 
HETATM    2  C8  UNL     1      23.020   4.767  50.828  1.00  0.00     0.031 C 
HETATM    3  C9  UNL     1      21.886   4.380  51.657  1.00  0.00     0.031 C 
HETATM    4  C10 UNL     1      21.408   3.150  51.703  1.00  0.00     0.051 C 
HETATM    5  N3  UNL     1      20.283   2.917  52.568  1.00  0.00    -0.268 NA
HETATM    6  C11 UNL     1      19.611   1.875  52.155  1.00  0.00     0.098 C 
HETATM    7  C12 UNL     1      20.284   1.314  50.916  1.00  0.00     0.077 C 
HETATM    8  C14 UNL     1      21.705   1.831  51.077  1.00  0.00     0.059 C 
HETATM    9  C21 UNL     1      22.419   1.925  49.798  1.00  0.00    -0.003 C 
HETATM   10  C22 UNL     1      23.200   2.878  49.274  1.00  0.00     0.027 C 
ENDROOT
BRANCH   1  11
HETATM   11  N2  UNL     1      24.736   4.763  49.143  1.00  0.00    -0.316 N 
HETATM   12  C6  UNL     1      25.989   4.300  49.606  1.00  0.00     0.301 C 
HETATM   13  O1  UNL     1      26.130   3.452  50.524  1.00  0.00    -0.258 OA
HETATM   14  H7  UNL     1      24.676   5.481  48.364  1.00  0.00     0.170 HD
BRANCH  12  15
HETATM   15  C5  UNL     1      27.193   4.819  49.003  1.00  0.00     0.001 C 
HETATM   16  C4  UNL     1      28.215   5.272  48.502  1.00  0.00    -0.050 C 
BRANCH  16  17
HETATM   17  C3  UNL     1      29.425   5.794  47.934  1.00  0.00     0.175 C 
HETATM   18  N1  UNL     1      29.654   7.057  47.898  1.00  0.00    -0.293 NA
BRANCH  18  19
HETATM   19  C2  UNL     1      28.658   7.946  48.446  1.00  0.00     0.144 C 
HETATM   20  C1  UNL     1      29.267   9.069  49.254  1.00  0.00     0.028 C 
ENDBRANCH  18  19
ENDBRANCH  16  17
ENDBRANCH  12  15
ENDBRANCH   1  11
BRANCH   8  21
HETATM   21  C15 UNL     1      22.412   0.931  52.025  1.00  0.00    -0.038 A 
HETATM   22  C16 UNL     1      22.049  -0.279  52.575  1.00  0.00     0.009 A 
HETATM   23  C17 UNL     1      22.898  -0.930  53.440  1.00  0.00     0.002 A 
HETATM   24  C18 UNL     1      24.132  -0.447  53.818  1.00  0.00     0.019 A 
HETATM   25  C19 UNL     1      24.492   0.777  53.259  1.00  0.00     0.011 A 
HETATM   26 BR1  UNL     1      26.211   1.434  53.795  1.00  0.00    -0.051 Br
HETATM   27  C20 UNL     1      23.656   1.460  52.380  1.00  0.00     0.027 A 
ENDBRANCH   8  21
BRANCH   7  28
HETATM   28  C13 UNL     1      19.578   1.868  49.715  1.00  0.00     0.278 C 
BRANCH  28  29
HETATM   29  N4  UNL     1      18.378   1.181  49.346  1.00  0.00     0.079 N 
HETATM   30  H14 UNL     1      18.193   0.323  49.897  1.00  0.00     0.312 HD
HETATM   31  H15 UNL     1      17.568   1.835  49.433  1.00  0.00     0.312 HD
ENDBRANCH  28  29
ENDBRANCH   7  28
TORSDOF 7
ENDMDL
MODEL 2
REMARK VINA RESULT:      -7.8      4.681      5.614
REMARK  7 active torsions:
REMARK  status: ('A' for Active; 'I' for Inactive)
REMARK    1  A    between atoms: C2_2  and  N1_3 
REMARK    2  A    between atoms: C3_4  and  C4_5 
REMARK    3  A    between atoms: C5_6  and  C6_7 
REMARK       I    between atoms: C6_7  and  N2_9 
REMARK    4  A    between atoms: N2_9  and  C7_10 
REMARK    5  A    between atoms: C12_16  and  C13_17 
REMARK    6  A    between atoms: C13_17  and  N4_18 
REMARK    7  A    between atoms: C14_19  and  C15_20 
ROOT
HETATM    1  C7  UNL     1      22.980   1.773  51.534  1.00  0.00     0.035 C 
HETATM    2  C8  UNL     1      22.446   2.678  52.333  1.00  0.00     0.031 C 
HETATM    3  C9  UNL     1      21.115   3.266  52.406  1.00  0.00     0.031 C 
HETATM    4  C10 UNL     1      20.060   2.746  51.808  1.00  0.00     0.051 C 
HETATM    5  N3  UNL     1      18.809   3.439  51.970  1.00  0.00    -0.268 NA
HETATM    6  C11 UNL     1      18.013   3.158  50.973  1.00  0.00     0.098 C 
HETATM    7  C12 UNL     1      18.721   2.206  50.028  1.00  0.00     0.077 C 
HETATM    8  C14 UNL     1      19.751   1.569  50.948  1.00  0.00     0.059 C 
HETATM    9  C21 UNL     1      20.911   1.045  50.218  1.00  0.00    -0.003 C 
HETATM   10  C22 UNL     1      22.228   1.123  50.448  1.00  0.00     0.027 C 
ENDROOT
BRANCH   1  11
HETATM   11  N2  UNL     1      24.331   1.346  51.655  1.00  0.00    -0.316 N 
HETATM   12  C6  UNL     1      24.521   0.295  52.581  1.00  0.00     0.301 C 
HETATM   13  O1  UNL     1      23.593  -0.230  53.249  1.00  0.00    -0.258 OA
HETATM   14  H7  UNL     1      25.152   1.751  51.118  1.00  0.00     0.170 HD
BRANCH  12  15
HETATM   15  C5  UNL     1      25.852  -0.223  52.789  1.00  0.00     0.001 C 
HETATM   16  C4  UNL     1      26.988  -0.649  52.957  1.00  0.00    -0.050 C 
BRANCH  16  17
HETATM   17  C3  UNL     1      28.322  -1.132  53.172  1.00  0.00     0.175 C 
HETATM   18  N1  UNL     1      29.109  -0.564  54.011  1.00  0.00    -0.293 NA
BRANCH  18  19
HETATM   19  C2  UNL     1      28.617   0.581  54.740  1.00  0.00     0.144 C 
HETATM   20  C1  UNL     1      29.305   1.865  54.332  1.00  0.00     0.028 C 
ENDBRANCH  18  19
ENDBRANCH  16  17
ENDBRANCH  12  15
ENDBRANCH   1  11
BRANCH   8  21
HETATM   21  C15 UNL     1      19.071   0.499  51.722  1.00  0.00    -0.038 A 
HETATM   22  C16 UNL     1      19.434  -0.159  52.879  1.00  0.00     0.009 A 
HETATM   23  C17 UNL     1      18.614  -1.127  53.411  1.00  0.00     0.002 A 
HETATM   24  C18 UNL     1      17.410  -1.508  52.857  1.00  0.00     0.019 A 
HETATM   25  C19 UNL     1      17.051  -0.839  51.689  1.00  0.00     0.011 A 
HETATM   26 BR1  UNL     1      15.376  -1.381  50.932  1.00  0.00    -0.051 Br
HETATM   27  C20 UNL     1      17.859   0.145  51.125  1.00  0.00     0.027 A 
ENDBRANCH   8  21
BRANCH   7  28
HETATM   28  C13 UNL     1      19.326   3.017  48.922  1.00  0.00     0.278 C 
BRANCH  28  29
HETATM   29  N4  UNL     1      18.913   2.647  47.603  1.00  0.00     0.079 N 
HETATM   30  H14 UNL     1      18.772   1.628  47.471  1.00  0.00     0.312 HD
HETATM   31  H15 UNL     1      18.034   3.158  47.363  1.00  0.00     0.312 HD
ENDBRANCH  28  29
ENDBRANCH   7  28
TORSDOF 7
ENDMDL
MODEL 3
REMARK VINA RESULT:      -7.7      3.830      4.628
REMARK  7 active torsions:
REMARK  status: ('A' for Active; 'I' for Inactive)
REMARK    1  A    between atoms: C2_2  and  N1_3 
REMARK    2  A    between atoms: C3_4  and  C4_5 
REMARK    3  A    between atoms: C5_6  and  C6_7 
REMARK       I    between atoms: C6_7  and  N2_9 
REMARK    4  A    between atoms: N2_9  and  C7_10 
REMARK    5  A    between atoms: C12_16  and  C13_17 
REMARK    6  A    between atoms: C13_17  and  N4_18 
REMARK    7  A    between atoms: C14_19  and  C15_20 
ROOT
HETATM    1  C7  UNL     1      23.347   3.102  51.736  1.00  0.00     0.035 C 
HETATM    2  C8  UNL     1      22.484   3.889  52.350  1.00  0.00     0.031 C 
HETATM    3  C9  UNL     1      21.036   4.027  52.256  1.00  0.00     0.031 C 
HETATM    4  C10 UNL     1      20.257   3.123  51.692  1.00  0.00     0.051 C 
HETATM    5  N3  UNL     1      18.845   3.397  51.674  1.00  0.00    -0.268 NA
HETATM    6  C11 UNL     1      18.278   2.745  50.693  1.00  0.00     0.098 C 
HETATM    7  C12 UNL     1      19.337   1.949  49.952  1.00  0.00     0.077 C 
HETATM    8  C14 UNL     1      20.413   1.804  51.017  1.00  0.00     0.059 C 
HETATM    9  C21 UNL     1      21.746   1.582  50.444  1.00  0.00    -0.003 C 
HETATM   10  C22 UNL     1      22.945   2.106  50.729  1.00  0.00     0.027 C 
ENDROOT
BRANCH   1  11
HETATM   11  N2  UNL     1      24.744   3.147  51.997  1.00  0.00    -0.316 N 
HETATM   12  C6  UNL     1      25.192   2.158  52.903  1.00  0.00     0.301 C 
HETATM   13  O1  UNL     1      24.441   1.305  53.441  1.00  0.00    -0.258 OA
HETATM   14  H7  UNL     1      25.424   3.842  51.572  1.00  0.00     0.170 HD
BRANCH  12  15
HETATM   15  C5  UNL     1      26.594   2.105  53.244  1.00  0.00     0.001 C 
HETATM   16  C4  UNL     1      27.785   2.047  53.523  1.00  0.00    -0.050 C 
BRANCH  16  17
HETATM   17  C3  UNL     1      29.186   1.989  53.828  1.00  0.00     0.175 C 
HETATM   18  N1  UNL     1      29.743   0.893  54.196  1.00  0.00    -0.293 NA
BRANCH  18  19
HETATM   19  C2  UNL     1      28.921  -0.289  54.297  1.00  0.00     0.144 C 
HETATM   20  C1  UNL     1      29.443  -1.430  53.451  1.00  0.00     0.028 C 
ENDBRANCH  18  19
ENDBRANCH  16  17
ENDBRANCH  12  15
ENDBRANCH   1  11
BRANCH   8  21
HETATM   21  C15 UNL     1      20.018   0.688  51.915  1.00  0.00    -0.038 A 
HETATM   22  C16 UNL     1      18.850  -0.038  52.006  1.00  0.00     0.009 A 
HETATM   23  C17 UNL     1      18.730  -1.044  52.936  1.00  0.00     0.002 A 
HETATM   24  C18 UNL     1      19.727  -1.399  53.820  1.00  0.00     0.019 A 
HETATM   25  C19 UNL     1      20.904  -0.662  53.722  1.00  0.00     0.011 A 
HETATM   26 BR1  UNL     1      22.278  -1.168  54.958  1.00  0.00    -0.051 Br
HETATM   27  C20 UNL     1      21.056   0.363  52.792  1.00  0.00     0.027 A 
ENDBRANCH   8  21
BRANCH   7  28
HETATM   28  C13 UNL     1      19.773   2.753  48.765  1.00  0.00     0.278 C 
BRANCH  28  29
HETATM   29  N4  UNL     1      19.111   4.012  48.608  1.00  0.00     0.079 N 
HETATM   30  H14 UNL     1      18.883   4.253  47.626  1.00  0.00     0.312 HD
HETATM   31  H15 UNL     1      18.239   4.014  49.183  1.00  0.00     0.312 HD
ENDBRANCH  28  29
ENDBRANCH   7  28
TORSDOF 7
ENDMDL
MODEL 4
REMARK VINA RESULT:      -7.5      1.456      1.922
REMARK  7 active torsions:
REMARK  status: ('A' for Active; 'I' for Inactive)
REMARK    1  A    between atoms: C2_2  and  N1_3 
REMARK    2  A    between atoms: C3_4  and  C4_5 
REMARK    3  A    between atoms: C5_6  and  C6_7 
REMARK       I    between atoms: C6_7  and  N2_9 
REMARK    4  A    between atoms: N2_9  and  C7_10 
REMARK    5  A    between atoms: C12_16  and  C13_17 
REMARK    6  A    between atoms: C13_17  and  N4_18 
REMARK    7  A    between atoms: C14_19  and  C15_20 
ROOT
HETATM    1  C7  UNL     1      25.065   4.497  50.197  1.00  0.00     0.035 C 
HETATM    2  C8  UNL     1      24.414   5.110  51.168  1.00  0.00     0.031 C 
HETATM    3  C9  UNL     1      23.118   4.871  51.790  1.00  0.00     0.031 C 
HETATM    4  C10 UNL     1      22.447   3.742  51.657  1.00  0.00     0.051 C 
HETATM    5  N3  UNL     1      21.180   3.652  52.331  1.00  0.00    -0.268 NA
HETATM    6  C11 UNL     1      20.421   2.770  51.735  1.00  0.00     0.098 C 
HETATM    7  C12 UNL     1      21.178   2.182  50.558  1.00  0.00     0.077 C 
HETATM    8  C14 UNL     1      22.622   2.434  50.965  1.00  0.00     0.059 C 
HETATM    9  C21 UNL     1      23.530   2.487  49.813  1.00  0.00    -0.003 C 
HETATM   10  C22 UNL     1      24.527   3.322  49.492  1.00  0.00     0.027 C 
ENDROOT
BRANCH   1  11
HETATM   11  N2  UNL     1      26.347   4.919  49.749  1.00  0.00    -0.316 N 
HETATM   12  C6  UNL     1      26.306   5.935  48.767  1.00  0.00     0.301 C 
HETATM   13  O1  UNL     1      25.244   6.436  48.316  1.00  0.00    -0.258 OA
HETATM   14  H7  UNL     1      27.273   4.533  50.093  1.00  0.00     0.170 HD
BRANCH  12  15
HETATM   15  C5  UNL     1      27.548   6.445  48.236  1.00  0.00     0.001 C 
HETATM   16  C4  UNL     1      28.609   6.864  47.791  1.00  0.00    -0.050 C 
BRANCH  16  17
HETATM   17  C3  UNL     1      29.852   7.338  47.252  1.00  0.00     0.175 C 
HETATM   18  N1  UNL     1      30.932   6.654  47.367  1.00  0.00    -0.293 NA
BRANCH  18  19
HETATM   19  C2  UNL     1      30.867   5.387  48.056  1.00  0.00     0.144 C 
HETATM   20  C1  UNL     1      31.560   4.279  47.294  1.00  0.00     0.028 C 
ENDBRANCH  18  19
ENDBRANCH  16  17
ENDBRANCH  12  15
ENDBRANCH   1  11
BRANCH   8  21
HETATM   21  C15 UNL     1      23.020   1.367  51.919  1.00  0.00    -0.038 A 
HETATM   22  C16 UNL     1      22.356   0.239  52.352  1.00  0.00     0.009 A 
HETATM   23  C17 UNL     1      22.953  -0.611  53.254  1.00  0.00     0.002 A 
HETATM   24  C18 UNL     1      24.211  -0.417  53.781  1.00  0.00     0.019 A 
HETATM   25  C19 UNL     1      24.875   0.724  53.339  1.00  0.00     0.011 A 
HETATM   26 BR1  UNL     1      26.623   0.980  54.082  1.00  0.00    -0.051 Br
HETATM   27  C20 UNL     1      24.299   1.605  52.428  1.00  0.00     0.027 A 
ENDBRANCH   8  21
BRANCH   7  28
HETATM   28  C13 UNL     1      20.764   2.926  49.325  1.00  0.00     0.278 C 
BRANCH  28  29
HETATM   29  N4  UNL     1      20.133   2.128  48.318  1.00  0.00     0.079 N 
HETATM   30  H14 UNL     1      19.556   2.668  47.647  1.00  0.00     0.312 HD
HETATM   31  H15 UNL     1      20.863   1.590  47.800  1.00  0.00     0.312 HD
ENDBRANCH  28  29
ENDBRANCH   7  28
TORSDOF 7
ENDMDL
MODEL 5
REMARK VINA RESULT:      -7.5      3.953     11.155
REMARK  7 active torsions:
REMARK  status: ('A' for Active; 'I' for Inactive)
REMARK    1  A    between atoms: C2_2  and  N1_3 
REMARK    2  A    between atoms: C3_4  and  C4_5 
REMARK    3  A    between atoms: C5_6  and  C6_7 
REMARK       I    between atoms: C6_7  and  N2_9 
REMARK    4  A    between atoms: N2_9  and  C7_10 
REMARK    5  A    between atoms: C12_16  and  C13_17 
REMARK    6  A    between atoms: C13_17  and  N4_18 
REMARK    7  A    between atoms: C14_19  and  C15_20 
ROOT
HETATM    1  C7  UNL     1      28.900   7.610  47.674  1.00  0.00     0.035 C 
HETATM    2  C8  UNL     1      29.218   7.615  46.393  1.00  0.00     0.031 C 
HETATM    3  C9  UNL     1      30.321   8.214  45.654  1.00  0.00     0.031 C 
HETATM    4  C10 UNL     1      31.424   8.657  46.229  1.00  0.00     0.051 C 
HETATM    5  N3  UNL     1      32.428   9.224  45.369  1.00  0.00    -0.268 NA
HETATM    6  C11 UNL     1      33.178  10.052  46.047  1.00  0.00     0.098 C 
HETATM    7  C12 UNL     1      32.694  10.093  47.485  1.00  0.00     0.077 C 
HETATM    8  C14 UNL     1      31.982   8.755  47.607  1.00  0.00     0.059 C 
HETATM    9  C21 UNL     1      30.963   8.754  48.664  1.00  0.00    -0.003 C 
HETATM   10  C22 UNL     1      29.707   8.291  48.700  1.00  0.00     0.027 C 
ENDROOT
BRANCH   1  11
HETATM   11  N2  UNL     1      27.748   6.943  48.175  1.00  0.00    -0.316 N 
HETATM   12  C6  UNL     1      27.958   5.575  48.466  1.00  0.00     0.301 C 
HETATM   13  O1  UNL     1      29.055   4.982  48.305  1.00  0.00    -0.258 OA
HETATM   14  H7  UNL     1      26.800   7.392  48.331  1.00  0.00     0.170 HD
BRANCH  12  15
HETATM   15  C5  UNL     1      26.860   4.793  48.982  1.00  0.00     0.001 C 
HETATM   16  C4  UNL     1      25.938   4.123  49.430  1.00  0.00    -0.050 C 
BRANCH  16  17
HETATM   17  C3  UNL     1      24.857   3.353  49.976  1.00  0.00     0.175 C 
HETATM   18  N1  UNL     1      25.043   2.544  50.955  1.00  0.00    -0.293 NA
BRANCH  18  19
HETATM   19  C2  UNL     1      26.375   2.425  51.497  1.00  0.00     0.144 C 
HETATM   20  C1  UNL     1      26.751   0.991  51.799  1.00  0.00     0.028 C 
ENDBRANCH  18  19
ENDBRANCH  16  17
ENDBRANCH  12  15
ENDBRANCH   1  11
BRANCH   8  21
HETATM   21  C15 UNL     1      33.011   7.710  47.848  1.00  0.00    -0.038 A 
HETATM   22  C16 UNL     1      34.311   7.800  48.297  1.00  0.00     0.009 A 
HETATM   23  C17 UNL     1      35.073   6.664  48.443  1.00  0.00     0.002 A 
HETATM   24  C18 UNL     1      34.622   5.392  48.164  1.00  0.00     0.019 A 
HETATM   25  C19 UNL     1      33.308   5.310  47.711  1.00  0.00     0.011 A 
HETATM   26 BR1  UNL     1      32.696   3.534  47.327  1.00  0.00    -0.051 Br
HETATM   27  C20 UNL     1      32.511   6.440  47.551  1.00  0.00     0.027 A 
ENDBRANCH   8  21
BRANCH   7  28
HETATM   28  C13 UNL     1      31.782  11.273  47.632  1.00  0.00     0.278 C 
BRANCH  28  29
HETATM   29  N4  UNL     1      31.833  12.217  46.558  1.00  0.00     0.079 N 
HETATM   30  H14 UNL     1      30.993  12.818  46.480  1.00  0.00     0.312 HD
HETATM   31  H15 UNL     1      32.683  12.815  46.668  1.00  0.00     0.312 HD
ENDBRANCH  28  29
ENDBRANCH   7  28
TORSDOF 7
ENDMDL
MODEL 6
REMARK VINA RESULT:      -7.4      4.170      7.493
REMARK  7 active torsions:
REMARK  status: ('A' for Active; 'I' for Inactive)
REMARK    1  A    between atoms: C2_2  and  N1_3 
REMARK    2  A    between atoms: C3_4  and  C4_5 
REMARK    3  A    between atoms: C5_6  and  C6_7 
REMARK       I    between atoms: C6_7  and  N2_9 
REMARK    4  A    between atoms: N2_9  and  C7_10 
REMARK    5  A    between atoms: C12_16  and  C13_17 
REMARK    6  A    between atoms: C13_17  and  N4_18 
REMARK    7  A    between atoms: C14_19  and  C15_20 
ROOT
HETATM    1  C7  UNL     1      24.819   3.377  51.070  1.00  0.00     0.035 C 
HETATM    2  C8  UNL     1      24.127   4.175  51.862  1.00  0.00     0.031 C 
HETATM    3  C9  UNL     1      23.809   5.596  51.794  1.00  0.00     0.031 C 
HETATM    4  C10 UNL     1      23.943   6.317  50.697  1.00  0.00     0.051 C 
HETATM    5  N3  UNL     1      23.589   7.709  50.782  1.00  0.00    -0.268 NA
HETATM    6  C11 UNL     1      24.223   8.386  49.862  1.00  0.00     0.098 C 
HETATM    7  C12 UNL     1      25.090   7.435  49.058  1.00  0.00     0.077 C 
HETATM    8  C14 UNL     1      24.386   6.107  49.290  1.00  0.00     0.059 C 
HETATM    9  C21 UNL     1      25.281   4.957  49.113  1.00  0.00    -0.003 C 
HETATM   10  C22 UNL     1      25.464   3.842  49.832  1.00  0.00     0.027 C 
ENDROOT
BRANCH   1  11
HETATM   11  N2  UNL     1      24.998   1.993  51.346  1.00  0.00    -0.316 N 
HETATM   12  C6  UNL     1      26.303   1.658  51.778  1.00  0.00     0.301 C 
HETATM   13  O1  UNL     1      27.235   2.492  51.913  1.00  0.00    -0.258 OA
HETATM   14  H7  UNL     1      24.250   1.248  51.251  1.00  0.00     0.170 HD
BRANCH  12  15
HETATM   15  C5  UNL     1      26.605   0.282  52.089  1.00  0.00     0.001 C 
HETATM   16  C4  UNL     1      26.877  -0.883  52.352  1.00  0.00    -0.050 C 
BRANCH  16  17
HETATM   17  C3  UNL     1      27.203  -2.241  52.684  1.00  0.00     0.175 C 
HETATM   18  N1  UNL     1      28.382  -2.568  53.071  1.00  0.00    -0.293 NA
BRANCH  18  19
HETATM   19  C2  UNL     1      29.380  -1.531  53.165  1.00  0.00     0.144 C 
HETATM   20  C1  UNL     1      29.212  -0.677  54.402  1.00  0.00     0.028 C 
ENDBRANCH  18  19
ENDBRANCH  16  17
ENDBRANCH  12  15
ENDBRANCH   1  11
BRANCH   8  21
HETATM   21  C15 UNL     1      23.227   6.037  48.363  1.00  0.00    -0.038 A 
HETATM   22  C16 UNL     1      21.944   5.565  48.544  1.00  0.00     0.009 A 
HETATM   23  C17 UNL     1      21.036   5.616  47.513  1.00  0.00     0.002 A 
HETATM   24  C18 UNL     1      21.317   6.123  46.262  1.00  0.00     0.019 A 
HETATM   25  C19 UNL     1      22.614   6.598  46.087  1.00  0.00     0.011 A 
HETATM   26 BR1  UNL     1      22.989   7.298  44.343  1.00  0.00    -0.051 Br
HETATM   27  C20 UNL     1      23.557   6.560  47.111  1.00  0.00     0.027 A 
ENDBRANCH   8  21
BRANCH   7  28
HETATM   28  C13 UNL     1      26.477   7.485  49.623  1.00  0.00     0.278 C 
BRANCH  28  29
HETATM   29  N4  UNL     1      26.680   8.463  50.647  1.00  0.00     0.079 N 
HETATM   30  H14 UNL     1      27.671   8.730  50.791  1.00  0.00     0.312 HD
HETATM   31  H15 UNL     1      26.116   9.314  50.426  1.00  0.00     0.312 HD
ENDBRANCH  28  29
ENDBRANCH   7  28
TORSDOF 7
ENDMDL
MODEL 7
REMARK VINA RESULT:      -7.3      3.588      7.021
REMARK  7 active torsions:
REMARK  status: ('A' for Active; 'I' for Inactive)
REMARK    1  A    between atoms: C2_2  and  N1_3 
REMARK    2  A    between atoms: C3_4  and  C4_5 
REMARK    3  A    between atoms: C5_6  and  C6_7 
REMARK       I    between atoms: C6_7  and  N2_9 
REMARK    4  A    between atoms: N2_9  and  C7_10 
REMARK    5  A    between atoms: C12_16  and  C13_17 
REMARK    6  A    between atoms: C13_17  and  N4_18 
REMARK    7  A    between atoms: C14_19  and  C15_20 
ROOT
HETATM    1  C7  UNL     1      23.946   3.704  50.413  1.00  0.00     0.035 C 
HETATM    2  C8  UNL     1      23.717   3.833  49.119  1.00  0.00     0.031 C 
HETATM    3  C9  UNL     1      23.330   4.972  48.296  1.00  0.00     0.031 C 
HETATM    4  C10 UNL     1      23.418   6.224  48.703  1.00  0.00     0.051 C 
HETATM    5  N3  UNL     1      22.999   7.244  47.779  1.00  0.00    -0.268 NA
HETATM    6  C11 UNL     1      22.649   8.320  48.433  1.00  0.00     0.098 C 
HETATM    7  C12 UNL     1      22.823   8.073  49.920  1.00  0.00     0.077 C 
HETATM    8  C14 UNL     1      23.854   6.955  49.928  1.00  0.00     0.059 C 
HETATM    9  C21 UNL     1      23.801   6.148  51.152  1.00  0.00    -0.003 C 
HETATM   10  C22 UNL     1      23.837   4.826  51.360  1.00  0.00     0.027 C 
ENDROOT
BRANCH   1  11
HETATM   11  N2  UNL     1      24.320   2.466  51.004  1.00  0.00    -0.316 N 
HETATM   12  C6  UNL     1      25.716   2.250  51.050  1.00  0.00     0.301 C 
HETATM   13  O1  UNL     1      26.569   3.065  50.614  1.00  0.00    -0.258 OA
HETATM   14  H7  UNL     1      23.646   1.742  51.388  1.00  0.00     0.170 HD
BRANCH  12  15
HETATM   15  C5  UNL     1      26.216   1.026  51.630  1.00  0.00     0.001 C 
HETATM   16  C4  UNL     1      26.644  -0.004  52.136  1.00  0.00    -0.050 C 
BRANCH  16  17
HETATM   17  C3  UNL     1      27.124  -1.213  52.742  1.00  0.00     0.175 C 
HETATM   18  N1  UNL     1      28.221  -1.235  53.407  1.00  0.00    -0.293 NA
BRANCH  18  19
HETATM   19  C2  UNL     1      28.967  -0.005  53.532  1.00  0.00     0.144 C 
HETATM   20  C1  UNL     1      28.823   0.622  54.901  1.00  0.00     0.028 C 
ENDBRANCH  18  19
ENDBRANCH  16  17
ENDBRANCH  12  15
ENDBRANCH   1  11
BRANCH   8  21
HETATM   21  C15 UNL     1      25.194   7.568  49.742  1.00  0.00    -0.038 A 
HETATM   22  C16 UNL     1      25.666   8.830  50.032  1.00  0.00     0.009 A 
HETATM   23  C17 UNL     1      26.975   9.158  49.765  1.00  0.00     0.002 A 
HETATM   24  C18 UNL     1      27.889   8.291  49.206  1.00  0.00     0.019 A 
HETATM   25  C19 UNL     1      27.404   7.018  48.915  1.00  0.00     0.011 A 
HETATM   26 BR1  UNL     1      28.687   5.825  48.137  1.00  0.00    -0.051 Br
HETATM   27  C20 UNL     1      26.086   6.655  49.173  1.00  0.00     0.027 A 
ENDBRANCH   8  21
BRANCH   7  28
HETATM   28  C13 UNL     1      21.494   7.667  50.480  1.00  0.00     0.278 C 
BRANCH  28  29
HETATM   29  N4  UNL     1      20.374   7.916  49.624  1.00  0.00     0.079 N 
HETATM   30  H14 UNL     1      19.997   8.880  49.687  1.00  0.00     0.312 HD
HETATM   31  H15 UNL     1      20.643   7.707  48.637  1.00  0.00     0.312 HD
ENDBRANCH  28  29
ENDBRANCH   7  28
TORSDOF 7
ENDMDL
MODEL 8
REMARK VINA RESULT:      -7.3      3.806      5.922
REMARK  7 active torsions:
REMARK  status: ('A' for Active; 'I' for Inactive)
REMARK    1  A    between atoms: C2_2  and  N1_3 
REMARK    2  A    between atoms: C3_4  and  C4_5 
REMARK    3  A    between atoms: C5_6  and  C6_7 
REMARK       I    between atoms: C6_7  and  N2_9 
REMARK    4  A    between atoms: N2_9  and  C7_10 
REMARK    5  A    between atoms: C12_16  and  C13_17 
REMARK    6  A    between atoms: C13_17  and  N4_18 
REMARK    7  A    between atoms: C14_19  and  C15_20 
ROOT
HETATM    1  C7  UNL     1      23.720   5.572  51.289  1.00  0.00     0.035 C 
HETATM    2  C8  UNL     1      24.499   5.032  50.371  1.00  0.00     0.031 C 
HETATM    3  C9  UNL     1      25.289   3.808  50.344  1.00  0.00     0.031 C 
HETATM    4  C10 UNL     1      25.123   2.820  51.203  1.00  0.00     0.051 C 
HETATM    5  N3  UNL     1      25.978   1.672  51.053  1.00  0.00    -0.268 NA
HETATM    6  C11 UNL     1      26.084   1.044  52.194  1.00  0.00     0.098 C 
HETATM    7  C12 UNL     1      25.261   1.775  53.239  1.00  0.00     0.077 C 
HETATM    8  C14 UNL     1      24.252   2.514  52.373  1.00  0.00     0.059 C 
HETATM    9  C21 UNL     1      23.705   3.703  53.036  1.00  0.00    -0.003 C 
HETATM   10  C22 UNL     1      23.485   4.951  52.603  1.00  0.00     0.027 C 
ENDROOT
BRANCH   1  11
HETATM   11  N2  UNL     1      23.036   6.802  51.086  1.00  0.00    -0.316 N 
HETATM   12  C6  UNL     1      21.753   6.657  50.509  1.00  0.00     0.301 C 
HETATM   13  O1  UNL     1      21.242   5.551  50.197  1.00  0.00    -0.258 OA
HETATM   14  H7  UNL     1      23.416   7.761  51.330  1.00  0.00     0.170 HD
BRANCH  12  15
HETATM   15  C5  UNL     1      20.962   7.838  50.256  1.00  0.00     0.001 C 
HETATM   16  C4  UNL     1      20.289   8.842  50.058  1.00  0.00    -0.050 C 
BRANCH  16  17
HETATM   17  C3  UNL     1      19.519  10.032  49.834  1.00  0.00     0.175 C 
HETATM   18  N1  UNL     1      19.957  10.979  49.086  1.00  0.00    -0.293 NA
BRANCH  18  19
HETATM   19  C2  UNL     1      21.253  10.818  48.472  1.00  0.00     0.144 C 
HETATM   20  C1  UNL     1      21.175  10.770  46.962  1.00  0.00     0.028 C 
ENDBRANCH  18  19
ENDBRANCH  16  17
ENDBRANCH  12  15
ENDBRANCH   1  11
BRANCH   8  21
HETATM   21  C15 UNL     1      23.176   1.556  52.008  1.00  0.00    -0.038 A 
HETATM   22  C16 UNL     1      22.475   1.379  50.834  1.00  0.00     0.009 A 
HETATM   23  C17 UNL     1      21.512   0.400  50.744  1.00  0.00     0.002 A 
HETATM   24  C18 UNL     1      21.179  -0.451  51.776  1.00  0.00     0.019 A 
HETATM   25  C19 UNL     1      21.891  -0.266  52.957  1.00  0.00     0.011 A 
HETATM   26 BR1  UNL     1      21.416  -1.457  54.382  1.00  0.00    -0.051 Br
HETATM   27  C20 UNL     1      22.871   0.715  53.081  1.00  0.00     0.027 A 
ENDBRANCH   8  21
BRANCH   7  28
HETATM   28  C13 UNL     1      26.178   2.684  53.998  1.00  0.00     0.278 C 
BRANCH  28  29
HETATM   29  N4  UNL     1      27.574   2.441  53.800  1.00  0.00     0.079 N 
HETATM   30  H14 UNL     1      27.905   2.622  52.834  1.00  0.00     0.312 HD
HETATM   31  H15 UNL     1      28.122   3.021  54.474  1.00  0.00     0.312 HD
ENDBRANCH  28  29
ENDBRANCH   7  28
TORSDOF 7
ENDMDL
MODEL 9
REMARK VINA RESULT:      -7.2      3.765      5.788
REMARK  7 active torsions:
REMARK  status: ('A' for Active; 'I' for Inactive)
REMARK    1  A    between atoms: C2_2  and  N1_3 
REMARK    2  A    between atoms: C3_4  and  C4_5 
REMARK    3  A    between atoms: C5_6  and  C6_7 
REMARK       I    between atoms: C6_7  and  N2_9 
REMARK    4  A    between atoms: N2_9  and  C7_10 
REMARK    5  A    between atoms: C12_16  and  C13_17 
REMARK    6  A    between atoms: C13_17  and  N4_18 
REMARK    7  A    between atoms: C14_19  and  C15_20 
ROOT
HETATM    1  C7  UNL     1      24.994   3.372  51.862  1.00  0.00     0.035 C 
HETATM    2  C8  UNL     1      25.347   2.460  50.975  1.00  0.00     0.031 C 
HETATM    3  C9  UNL     1      25.904   1.121  51.107  1.00  0.00     0.031 C 
HETATM    4  C10 UNL     1      25.891   0.438  52.236  1.00  0.00     0.051 C 
HETATM    5  N3  UNL     1      26.479  -0.875  52.214  1.00  0.00    -0.268 NA
HETATM    6  C11 UNL     1      26.863  -1.211  53.417  1.00  0.00     0.098 C 
HETATM    7  C12 UNL     1      26.537  -0.079  54.374  1.00  0.00     0.077 C 
HETATM    8  C14 UNL     1      25.415   0.634  53.635  1.00  0.00     0.059 C 
HETATM    9  C21 UNL     1      25.288   2.042  54.028  1.00  0.00    -0.003 C 
HETATM   10  C22 UNL     1      25.117   3.163  53.314  1.00  0.00     0.027 C 
ENDROOT
BRANCH   1  11
HETATM   11  N2  UNL     1      24.461   4.636  51.490  1.00  0.00    -0.316 N 
HETATM   12  C6  UNL     1      23.053   4.653  51.365  1.00  0.00     0.301 C 
HETATM   13  O1  UNL     1      22.317   3.651  51.561  1.00  0.00    -0.258 OA
HETATM   14  H7  UNL     1      25.032   5.513  51.313  1.00  0.00     0.170 HD
BRANCH  12  15
HETATM   15  C5  UNL     1      22.397   5.883  50.992  1.00  0.00     0.001 C 
HETATM   16  C4  UNL     1      21.841   6.932  50.692  1.00  0.00    -0.050 C 
BRANCH  16  17
HETATM   17  C3  UNL     1      21.210   8.174  50.344  1.00  0.00     0.175 C 
HETATM   18  N1  UNL     1      21.580   8.843  49.313  1.00  0.00    -0.293 NA
BRANCH  18  19
HETATM   19  C2  UNL     1      22.653   8.314  48.506  1.00  0.00     0.144 C 
HETATM   20  C1  UNL     1      23.863   9.222  48.487  1.00  0.00     0.028 C 
ENDBRANCH  18  19
ENDBRANCH  16  17
ENDBRANCH  12  15
ENDBRANCH   1  11
BRANCH   8  21
HETATM   21  C15 UNL     1      24.156  -0.113  53.886  1.00  0.00    -0.038 A 
HETATM   22  C16 UNL     1      23.836  -1.067  54.828  1.00  0.00     0.009 A 
HETATM   23  C17 UNL     1      22.575  -1.615  54.858  1.00  0.00     0.002 A 
HETATM   24  C18 UNL     1      21.564  -1.272  53.986  1.00  0.00     0.019 A 
HETATM   25  C19 UNL     1      21.895  -0.308  53.037  1.00  0.00     0.011 A 
HETATM   26 BR1  UNL     1      20.479   0.157  51.832  1.00  0.00    -0.051 Br
HETATM   27  C20 UNL     1      23.162   0.266  52.980  1.00  0.00     0.027 A 
ENDBRANCH   8  21
BRANCH   7  28
HETATM   28  C13 UNL     1      27.771   0.756  54.540  1.00  0.00     0.278 C 
BRANCH  28  29
HETATM   29  N4  UNL     1      28.993   0.114  54.162  1.00  0.00     0.079 N 
HETATM   30  H14 UNL     1      29.532  -0.276  54.957  1.00  0.00     0.312 HD
HETATM   31  H15 UNL     1      28.783  -0.644  53.474  1.00  0.00     0.312 HD
ENDBRANCH  28  29
ENDBRANCH   7  28
TORSDOF 7
ENDMDL
