MODEL 1
REMARK VINA RESULT:      -7.3      0.000      0.000
REMARK  7 active torsions:
REMARK  status: ('A' for Active; 'I' for Inactive)
REMARK    1  A    between atoms: N1_2  and  C2_3 
REMARK    2  A    between atoms: N2_4  and  C3_5 
REMARK    3  A    between atoms: C3_5  and  N3_6 
REMARK    4  A    between atoms: N3_6  and  C4_7 
REMARK    5  A    between atoms: C7_10  and  O1_11 
REMARK    6  A    between atoms: O1_11  and  C8_12 
REMARK    7  A    between atoms: C8_12  and  C9_13 
ROOT
HETATM    1  C4  UNL     1      25.161   0.468  52.672  1.00  0.00     0.031 A 
HETATM    2  C5  UNL     1      24.412   1.425  52.009  1.00  0.00     0.032 A 
HETATM    3  C6  UNL     1      23.054   1.521  52.254  1.00  0.00     0.041 A 
HETATM    4  C7  UNL     1      22.430   0.678  53.149  1.00  0.00     0.091 A 
HETATM    5  C15 UNL     1      23.192  -0.285  53.815  1.00  0.00     0.069 A 
HETATM    6 CL1  UNL     1      22.428  -1.371  54.958  1.00  0.00    -0.081 Cl
HETATM    7  C16 UNL     1      24.567  -0.396  53.580  1.00  0.00     0.056 A 
ENDROOT
BRANCH   4   8
HETATM    8  O1  UNL     1      21.065   0.768  53.401  1.00  0.00    -0.345 OA
BRANCH   8   9
HETATM    9  C8  UNL     1      20.175   0.765  52.307  1.00  0.00     0.214 C 
BRANCH   9  10
HETATM   10  C9  UNL     1      19.038  -0.173  52.492  1.00  0.00    -0.031 A 
HETATM   11  C10 UNL     1      17.912  -0.001  51.680  1.00  0.00     0.009 A 
HETATM   12  C11 UNL     1      16.772  -0.778  51.719  1.00  0.00     0.004 A 
HETATM   13  C12 UNL     1      16.742  -1.811  52.634  1.00  0.00     0.042 A 
HETATM   14  C13 UNL     1      17.835  -2.014  53.454  1.00  0.00     0.117 A 
HETATM   15  F1  UNL     1      17.786  -3.033  54.348  1.00  0.00    -0.206 F 
HETATM   16  C14 UNL     1      18.960  -1.218  53.391  1.00  0.00     0.051 A 
ENDBRANCH   9  10
ENDBRANCH   8   9
ENDBRANCH   4   8
BRANCH   1  17
HETATM   17  N3  UNL     1      26.578   0.295  52.482  1.00  0.00    -0.372 N 
HETATM   18  H6  UNL     1      26.852  -0.618  52.018  1.00  0.00     0.161 HD
BRANCH  17  19
HETATM   19  C3  UNL     1      27.592   1.260  52.872  1.00  0.00     0.272 C 
BRANCH  19  20
HETATM   20  N2  UNL     1      27.695   1.272  54.336  1.00  0.00    -0.264 NA
HETATM   21  C2  UNL     1      28.265   0.220  54.839  1.00  0.00     0.227 C 
BRANCH  21  22
HETATM   22  N1  UNL     1      28.751  -0.859  54.026  1.00  0.00    -0.265 NA
HETATM   23  C1  UNL     1      29.999  -1.011  53.753  1.00  0.00     0.150 C 
ENDBRANCH  21  22
ENDBRANCH  19  20
ENDBRANCH  17  19
ENDBRANCH   1  17
TORSDOF 7
ENDMDL
MODEL 2
REMARK VINA RESULT:      -7.2      5.635      8.198
REMARK  7 active torsions:
REMARK  status: ('A' for Active; 'I' for Inactive)
REMARK    1  A    between atoms: N1_2  and  C2_3 
REMARK    2  A    between atoms: N2_4  and  C3_5 
REMARK    3  A    between atoms: C3_5  and  N3_6 
REMARK    4  A    between atoms: N3_6  and  C4_7 
REMARK    5  A    between atoms: C7_10  and  O1_11 
REMARK    6  A    between atoms: O1_11  and  C8_12 
REMARK    7  A    between atoms: C8_12  and  C9_13 
ROOT
HETATM    1  C4  UNL     1      25.699   0.984  52.478  1.00  0.00     0.031 A 
HETATM    2  C5  UNL     1      26.666   1.463  51.611  1.00  0.00     0.032 A 
HETATM    3  C6  UNL     1      26.472   2.673  50.970  1.00  0.00     0.041 A 
HETATM    4  C7  UNL     1      25.328   3.415  51.180  1.00  0.00     0.091 A 
HETATM    5  C15 UNL     1      24.357   2.925  52.056  1.00  0.00     0.069 A 
HETATM    6 CL1  UNL     1      22.892   3.843  52.342  1.00  0.00    -0.081 Cl
HETATM    7  C16 UNL     1      24.537   1.703  52.713  1.00  0.00     0.056 A 
ENDROOT
BRANCH   4   8
HETATM    8  O1  UNL     1      25.124   4.632  50.539  1.00  0.00    -0.345 OA
BRANCH   8   9
HETATM    9  C8  UNL     1      25.334   4.707  49.147  1.00  0.00     0.214 C 
BRANCH   9  10
HETATM   10  C9  UNL     1      26.586   5.421  48.791  1.00  0.00    -0.031 A 
HETATM   11  C10 UNL     1      26.536   6.815  48.691  1.00  0.00     0.009 A 
HETATM   12  C11 UNL     1      27.601   7.633  48.369  1.00  0.00     0.004 A 
HETATM   13  C12 UNL     1      28.816   7.023  48.129  1.00  0.00     0.042 A 
HETATM   14  C13 UNL     1      28.906   5.648  48.218  1.00  0.00     0.117 A 
HETATM   15  F1  UNL     1      30.107   5.067  47.977  1.00  0.00    -0.206 F 
HETATM   16  C14 UNL     1      27.821   4.858  48.540  1.00  0.00     0.051 A 
ENDBRANCH   9  10
ENDBRANCH   8   9
ENDBRANCH   4   8
BRANCH   1  17
HETATM   17  N3  UNL     1      25.816  -0.263  53.188  1.00  0.00    -0.372 N 
HETATM   18  H6  UNL     1      25.766  -1.126  52.574  1.00  0.00     0.161 HD
BRANCH  17  19
HETATM   19  C3  UNL     1      25.990  -0.388  54.625  1.00  0.00     0.272 C 
BRANCH  19  20
HETATM   20  N2  UNL     1      27.004   0.580  55.064  1.00  0.00    -0.264 NA
HETATM   21  C2  UNL     1      28.224   0.232  54.794  1.00  0.00     0.227 C 
BRANCH  21  22
HETATM   22  N1  UNL     1      28.549  -0.994  54.123  1.00  0.00    -0.265 NA
HETATM   23  C1  UNL     1      29.584  -1.118  53.370  1.00  0.00     0.150 C 
ENDBRANCH  21  22
ENDBRANCH  19  20
ENDBRANCH  17  19
ENDBRANCH   1  17
TORSDOF 7
ENDMDL
MODEL 3
REMARK VINA RESULT:      -7.1      2.540      3.382
REMARK  7 active torsions:
REMARK  status: ('A' for Active; 'I' for Inactive)
REMARK    1  A    between atoms: N1_2  and  C2_3 
REMARK    2  A    between atoms: N2_4  and  C3_5 
REMARK    3  A    between atoms: C3_5  and  N3_6 
REMARK    4  A    between atoms: N3_6  and  C4_7 
REMARK    5  A    between atoms: C7_10  and  O1_11 
REMARK    6  A    between atoms: O1_11  and  C8_12 
REMARK    7  A    between atoms: C8_12  and  C9_13 
ROOT
HETATM    1  C4  UNL     1      27.156   2.048  52.934  1.00  0.00     0.031 A 
HETATM    2  C5  UNL     1      26.094   1.777  53.778  1.00  0.00     0.032 A 
HETATM    3  C6  UNL     1      24.798   1.931  53.321  1.00  0.00     0.041 A 
HETATM    4  C7  UNL     1      24.543   2.353  52.032  1.00  0.00     0.091 A 
HETATM    5  C15 UNL     1      25.620   2.625  51.186  1.00  0.00     0.069 A 
HETATM    6 CL1  UNL     1      25.329   3.164  49.544  1.00  0.00    -0.081 Cl
HETATM    7  C16 UNL     1      26.937   2.474  51.632  1.00  0.00     0.056 A 
ENDROOT
BRANCH   4   8
HETATM    8  O1  UNL     1      23.243   2.511  51.564  1.00  0.00    -0.345 OA
BRANCH   8   9
HETATM    9  C8  UNL     1      22.618   1.422  50.925  1.00  0.00     0.214 C 
BRANCH   9  10
HETATM   10  C9  UNL     1      21.737   0.647  51.836  1.00  0.00    -0.031 A 
HETATM   11  C10 UNL     1      20.357   0.858  51.745  1.00  0.00     0.009 A 
HETATM   12  C11 UNL     1      19.400   0.226  52.513  1.00  0.00     0.004 A 
HETATM   13  C12 UNL     1      19.841  -0.690  53.446  1.00  0.00     0.042 A 
HETATM   14  C13 UNL     1      21.196  -0.926  53.567  1.00  0.00     0.117 A 
HETATM   15  F1  UNL     1      21.611  -1.828  54.490  1.00  0.00    -0.206 F 
HETATM   16  C14 UNL     1      22.129  -0.277  52.784  1.00  0.00     0.051 A 
ENDBRANCH   9  10
ENDBRANCH   8   9
ENDBRANCH   4   8
BRANCH   1  17
HETATM   17  N3  UNL     1      28.536   1.916  53.323  1.00  0.00    -0.372 N 
HETATM   18  H6  UNL     1      29.204   2.555  52.805  1.00  0.00     0.161 HD
BRANCH  17  19
HETATM   19  C3  UNL     1      29.028   0.999  54.337  1.00  0.00     0.272 C 
BRANCH  19  20
HETATM   20  N2  UNL     1      29.902   0.009  53.695  1.00  0.00    -0.264 NA
HETATM   21  C2  UNL     1      29.306  -1.095  53.367  1.00  0.00     0.227 C 
BRANCH  21  22
HETATM   22  N1  UNL     1      27.911  -1.324  53.613  1.00  0.00    -0.265 NA
HETATM   23  C1  UNL     1      27.098  -1.699  52.689  1.00  0.00     0.150 C 
ENDBRANCH  21  22
ENDBRANCH  19  20
ENDBRANCH  17  19
ENDBRANCH   1  17
TORSDOF 7
ENDMDL
MODEL 4
REMARK VINA RESULT:      -7.1      1.643      2.374
REMARK  7 active torsions:
REMARK  status: ('A' for Active; 'I' for Inactive)
REMARK    1  A    between atoms: N1_2  and  C2_3 
REMARK    2  A    between atoms: N2_4  and  C3_5 
REMARK    3  A    between atoms: C3_5  and  N3_6 
REMARK    4  A    between atoms: N3_6  and  C4_7 
REMARK    5  A    between atoms: C7_10  and  O1_11 
REMARK    6  A    between atoms: O1_11  and  C8_12 
REMARK    7  A    between atoms: C8_12  and  C9_13 
ROOT
HETATM    1  C4  UNL     1      24.845  -0.641  54.205  1.00  0.00     0.031 A 
HETATM    2  C5  UNL     1      23.866  -1.117  55.061  1.00  0.00     0.032 A 
HETATM    3  C6  UNL     1      22.536  -0.842  54.799  1.00  0.00     0.041 A 
HETATM    4  C7  UNL     1      22.165  -0.100  53.698  1.00  0.00     0.091 A 
HETATM    5  C15 UNL     1      23.158   0.378  52.839  1.00  0.00     0.069 A 
HETATM    6 CL1  UNL     1      22.719   1.325  51.432  1.00  0.00    -0.081 Cl
HETATM    7  C16 UNL     1      24.509   0.109  53.088  1.00  0.00     0.056 A 
ENDROOT
BRANCH   4   8
HETATM    8  O1  UNL     1      20.830   0.182  53.428  1.00  0.00    -0.345 OA
BRANCH   8   9
HETATM    9  C8  UNL     1      19.860  -0.796  53.725  1.00  0.00     0.214 C 
BRANCH   9  10
HETATM   10  C9  UNL     1      18.678  -0.727  52.828  1.00  0.00    -0.031 A 
HETATM   11  C10 UNL     1      18.813  -0.026  51.625  1.00  0.00     0.009 A 
HETATM   12  C11 UNL     1      17.820   0.137  50.680  1.00  0.00     0.004 A 
HETATM   13  C12 UNL     1      16.595  -0.442  50.943  1.00  0.00     0.042 A 
HETATM   14  C13 UNL     1      16.423  -1.143  52.119  1.00  0.00     0.117 A 
HETATM   15  F1  UNL     1      15.212  -1.704  52.361  1.00  0.00    -0.206 F 
HETATM   16  C14 UNL     1      17.435  -1.287  53.046  1.00  0.00     0.051 A 
ENDBRANCH   9  10
ENDBRANCH   8   9
ENDBRANCH   4   8
BRANCH   1  17
HETATM   17  N3  UNL     1      26.252  -0.878  54.398  1.00  0.00    -0.372 N 
HETATM   18  H6  UNL     1      26.531  -1.091  55.399  1.00  0.00     0.161 HD
BRANCH  17  19
HETATM   19  C3  UNL     1      27.252  -0.841  53.344  1.00  0.00     0.272 C 
BRANCH  19  20
HETATM   20  N2  UNL     1      28.585  -0.904  53.955  1.00  0.00    -0.264 NA
HETATM   21  C2  UNL     1      29.011   0.229  54.423  1.00  0.00     0.227 C 
BRANCH  21  22
HETATM   22  N1  UNL     1      28.240   1.436  54.346  1.00  0.00    -0.265 NA
HETATM   23  C1  UNL     1      28.606   2.447  53.639  1.00  0.00     0.150 C 
ENDBRANCH  21  22
ENDBRANCH  19  20
ENDBRANCH  17  19
ENDBRANCH   1  17
TORSDOF 7
ENDMDL
MODEL 5
REMARK VINA RESULT:      -7.0      3.065      3.997
REMARK  7 active torsions:
REMARK  status: ('A' for Active; 'I' for Inactive)
REMARK    1  A    between atoms: N1_2  and  C2_3 
REMARK    2  A    between atoms: N2_4  and  C3_5 
REMARK    3  A    between atoms: C3_5  and  N3_6 
REMARK    4  A    between atoms: N3_6  and  C4_7 
REMARK    5  A    between atoms: C7_10  and  O1_11 
REMARK    6  A    between atoms: O1_11  and  C8_12 
REMARK    7  A    between atoms: C8_12  and  C9_13 
ROOT
HETATM    1  C4  UNL     1      24.638  -0.315  53.927  1.00  0.00     0.031 A 
HETATM    2  C5  UNL     1      23.497  -1.025  54.260  1.00  0.00     0.032 A 
HETATM    3  C6  UNL     1      22.256  -0.533  53.901  1.00  0.00     0.041 A 
HETATM    4  C7  UNL     1      22.132   0.656  53.214  1.00  0.00     0.091 A 
HETATM    5  C15 UNL     1      23.287   1.368  52.882  1.00  0.00     0.069 A 
HETATM    6 CL1  UNL     1      23.163   2.883  52.010  1.00  0.00    -0.081 Cl
HETATM    7  C16 UNL     1      24.551   0.885  53.236  1.00  0.00     0.056 A 
ENDROOT
BRANCH   4   8
HETATM    8  O1  UNL     1      20.887   1.159  52.850  1.00  0.00    -0.345 OA
BRANCH   8   9
HETATM    9  C8  UNL     1      20.168   0.506  51.828  1.00  0.00     0.214 C 
BRANCH   9  10
HETATM   10  C9  UNL     1      20.365   1.131  50.495  1.00  0.00    -0.031 A 
HETATM   11  C10 UNL     1      19.400   2.043  50.054  1.00  0.00     0.009 A 
HETATM   12  C11 UNL     1      19.426   2.713  48.847  1.00  0.00     0.004 A 
HETATM   13  C12 UNL     1      20.493   2.462  48.007  1.00  0.00     0.042 A 
HETATM   14  C13 UNL     1      21.466   1.569  48.408  1.00  0.00     0.117 A 
HETATM   15  F1  UNL     1      22.507   1.335  47.569  1.00  0.00    -0.206 F 
HETATM   16  C14 UNL     1      21.411   0.914  49.621  1.00  0.00     0.051 A 
ENDBRANCH   9  10
ENDBRANCH   8   9
ENDBRANCH   4   8
BRANCH   1  17
HETATM   17  N3  UNL     1      25.970  -0.749  54.259  1.00  0.00    -0.372 N 
HETATM   18  H6  UNL     1      26.097  -1.049  55.268  1.00  0.00     0.161 HD
BRANCH  17  19
HETATM   19  C3  UNL     1      27.085  -0.793  53.328  1.00  0.00     0.272 C 
BRANCH  19  20
HETATM   20  N2  UNL     1      28.335  -0.894  54.092  1.00  0.00    -0.264 NA
HETATM   21  C2  UNL     1      28.779   0.239  54.540  1.00  0.00     0.227 C 
BRANCH  21  22
HETATM   22  N1  UNL     1      28.101   1.482  54.304  1.00  0.00    -0.265 NA
HETATM   23  C1  UNL     1      28.645   2.454  53.660  1.00  0.00     0.150 C 
ENDBRANCH  21  22
ENDBRANCH  19  20
ENDBRANCH  17  19
ENDBRANCH   1  17
TORSDOF 7
ENDMDL
MODEL 6
REMARK VINA RESULT:      -7.0      1.385      1.886
REMARK  7 active torsions:
REMARK  status: ('A' for Active; 'I' for Inactive)
REMARK    1  A    between atoms: N1_2  and  C2_3 
REMARK    2  A    between atoms: N2_4  and  C3_5 
REMARK    3  A    between atoms: C3_5  and  N3_6 
REMARK    4  A    between atoms: N3_6  and  C4_7 
REMARK    5  A    between atoms: C7_10  and  O1_11 
REMARK    6  A    between atoms: O1_11  and  C8_12 
REMARK    7  A    between atoms: C8_12  and  C9_13 
ROOT
HETATM    1  C4  UNL     1      24.950   0.550  52.733  1.00  0.00     0.031 A 
HETATM    2  C5  UNL     1      24.497  -0.498  53.516  1.00  0.00     0.032 A 
HETATM    3  C6  UNL     1      23.171  -0.535  53.909  1.00  0.00     0.041 A 
HETATM    4  C7  UNL     1      22.289   0.456  53.534  1.00  0.00     0.091 A 
HETATM    5  C15 UNL     1      22.753   1.510  52.744  1.00  0.00     0.069 A 
HETATM    6 CL1  UNL     1      21.657   2.786  52.252  1.00  0.00    -0.081 Cl
HETATM    7  C16 UNL     1      24.091   1.564  52.337  1.00  0.00     0.056 A 
ENDROOT
BRANCH   4   8
HETATM    8  O1  UNL     1      20.954   0.426  53.925  1.00  0.00    -0.345 OA
BRANCH   8   9
HETATM    9  C8  UNL     1      20.257  -0.796  53.854  1.00  0.00     0.214 C 
BRANCH   9  10
HETATM   10  C9  UNL     1      19.044  -0.719  53.000  1.00  0.00    -0.031 A 
HETATM   11  C10 UNL     1      19.122   0.034  51.823  1.00  0.00     0.009 A 
HETATM   12  C11 UNL     1      18.095   0.211  50.918  1.00  0.00     0.004 A 
HETATM   13  C12 UNL     1      16.892  -0.407  51.197  1.00  0.00     0.042 A 
HETATM   14  C13 UNL     1      16.776  -1.159  52.349  1.00  0.00     0.117 A 
HETATM   15  F1  UNL     1      15.586  -1.757  52.607  1.00  0.00    -0.206 F 
HETATM   16  C14 UNL     1      17.822  -1.316  53.235  1.00  0.00     0.051 A 
ENDBRANCH   9  10
ENDBRANCH   8   9
ENDBRANCH   4   8
BRANCH   1  17
HETATM   17  N3  UNL     1      26.310   0.672  52.278  1.00  0.00    -0.372 N 
HETATM   18  H6  UNL     1      26.581  -0.007  51.510  1.00  0.00     0.161 HD
BRANCH  17  19
HETATM   19  C3  UNL     1      27.276   1.628  52.793  1.00  0.00     0.272 C 
BRANCH  19  20
HETATM   20  N2  UNL     1      27.416   1.426  54.240  1.00  0.00    -0.264 NA
HETATM   21  C2  UNL     1      28.113   0.383  54.568  1.00  0.00     0.227 C 
BRANCH  21  22
HETATM   22  N1  UNL     1      28.696  -0.495  53.594  1.00  0.00    -0.265 NA
HETATM   23  C1  UNL     1      29.903  -0.928  53.688  1.00  0.00     0.150 C 
ENDBRANCH  21  22
ENDBRANCH  19  20
ENDBRANCH  17  19
ENDBRANCH   1  17
TORSDOF 7
ENDMDL
MODEL 7
REMARK VINA RESULT:      -7.0      2.024      2.743
REMARK  7 active torsions:
REMARK  status: ('A' for Active; 'I' for Inactive)
REMARK    1  A    between atoms: N1_2  and  C2_3 
REMARK    2  A    between atoms: N2_4  and  C3_5 
REMARK    3  A    between atoms: C3_5  and  N3_6 
REMARK    4  A    between atoms: N3_6  and  C4_7 
REMARK    5  A    between atoms: C7_10  and  O1_11 
REMARK    6  A    between atoms: O1_11  and  C8_12 
REMARK    7  A    between atoms: C8_12  and  C9_13 
ROOT
HETATM    1  C4  UNL     1      26.338   0.844  53.897  1.00  0.00     0.031 A 
HETATM    2  C5  UNL     1      25.732  -0.198  54.576  1.00  0.00     0.032 A 
HETATM    3  C6  UNL     1      24.469  -0.618  54.200  1.00  0.00     0.041 A 
HETATM    4  C7  UNL     1      23.800  -0.015  53.155  1.00  0.00     0.091 A 
HETATM    5  C15 UNL     1      24.418   1.036  52.475  1.00  0.00     0.069 A 
HETATM    6 CL1  UNL     1      23.593   1.823  51.144  1.00  0.00    -0.081 Cl
HETATM    7  C16 UNL     1      25.695   1.474  52.841  1.00  0.00     0.056 A 
ENDROOT
BRANCH   4   8
HETATM    8  O1  UNL     1      22.529  -0.431  52.771  1.00  0.00    -0.345 OA
BRANCH   8   9
HETATM    9  C8  UNL     1      21.422  -0.019  53.539  1.00  0.00     0.214 C 
BRANCH   9  10
HETATM   10  C9  UNL     1      20.134  -0.151  52.812  1.00  0.00    -0.031 A 
HETATM   11  C10 UNL     1      19.102  -0.861  53.436  1.00  0.00     0.009 A 
HETATM   12  C11 UNL     1      17.847  -1.079  52.904  1.00  0.00     0.004 A 
HETATM   13  C12 UNL     1      17.589  -0.551  51.654  1.00  0.00     0.042 A 
HETATM   14  C13 UNL     1      18.582   0.156  51.007  1.00  0.00     0.117 A 
HETATM   15  F1  UNL     1      18.311   0.666  49.779  1.00  0.00    -0.206 F 
HETATM   16  C14 UNL     1      19.828   0.356  51.565  1.00  0.00     0.051 A 
ENDBRANCH   9  10
ENDBRANCH   8   9
ENDBRANCH   4   8
BRANCH   1  17
HETATM   17  N3  UNL     1      27.648   1.347  54.218  1.00  0.00    -0.372 N 
HETATM   18  H6  UNL     1      27.802   2.367  53.971  1.00  0.00     0.161 HD
BRANCH  17  19
HETATM   19  C3  UNL     1      28.710   0.567  54.833  1.00  0.00     0.272 C 
BRANCH  19  20
HETATM   20  N2  UNL     1      29.758   0.326  53.833  1.00  0.00    -0.264 NA
HETATM   21  C2  UNL     1      29.729  -0.859  53.306  1.00  0.00     0.227 C 
BRANCH  21  22
HETATM   22  N1  UNL     1      28.754  -1.845  53.673  1.00  0.00    -0.265 NA
HETATM   23  C1  UNL     1      28.304  -2.716  52.840  1.00  0.00     0.150 C 
ENDBRANCH  21  22
ENDBRANCH  19  20
ENDBRANCH  17  19
ENDBRANCH   1  17
TORSDOF 7
ENDMDL
MODEL 8
REMARK VINA RESULT:      -6.9      1.514      1.812
REMARK  7 active torsions:
REMARK  status: ('A' for Active; 'I' for Inactive)
REMARK    1  A    between atoms: N1_2  and  C2_3 
REMARK    2  A    between atoms: N2_4  and  C3_5 
REMARK    3  A    between atoms: C3_5  and  N3_6 
REMARK    4  A    between atoms: N3_6  and  C4_7 
REMARK    5  A    between atoms: C7_10  and  O1_11 
REMARK    6  A    between atoms: O1_11  and  C8_12 
REMARK    7  A    between atoms: C8_12  and  C9_13 
ROOT
HETATM    1  C4  UNL     1      24.736   0.459  53.454  1.00  0.00     0.031 A 
HETATM    2  C5  UNL     1      23.786  -0.479  53.818  1.00  0.00     0.032 A 
HETATM    3  C6  UNL     1      22.592  -0.550  53.124  1.00  0.00     0.041 A 
HETATM    4  C7  UNL     1      22.329   0.300  52.071  1.00  0.00     0.091 A 
HETATM    5  C15 UNL     1      23.292   1.245  51.709  1.00  0.00     0.069 A 
HETATM    6 CL1  UNL     1      22.987   2.340  50.375  1.00  0.00    -0.081 Cl
HETATM    7  C16 UNL     1      24.506   1.330  52.399  1.00  0.00     0.056 A 
ENDROOT
BRANCH   4   8
HETATM    8  O1  UNL     1      21.131   0.236  51.367  1.00  0.00    -0.345 OA
BRANCH   8   9
HETATM    9  C8  UNL     1      19.996   0.873  51.908  1.00  0.00     0.214 C 
BRANCH   9  10
HETATM   10  C9  UNL     1      18.897  -0.076  52.222  1.00  0.00    -0.031 A 
HETATM   11  C10 UNL     1      17.718   0.020  51.475  1.00  0.00     0.009 A 
HETATM   12  C11 UNL     1      16.603  -0.778  51.634  1.00  0.00     0.004 A 
HETATM   13  C12 UNL     1      16.657  -1.752  52.610  1.00  0.00     0.042 A 
HETATM   14  C13 UNL     1      17.804  -1.879  53.368  1.00  0.00     0.117 A 
HETATM   15  F1  UNL     1      17.839  -2.842  54.324  1.00  0.00    -0.206 F 
HETATM   16  C14 UNL     1      18.902  -1.064  53.185  1.00  0.00     0.051 A 
ENDBRANCH   9  10
ENDBRANCH   8   9
ENDBRANCH   4   8
BRANCH   1  17
HETATM   17  N3  UNL     1      26.005   0.605  54.118  1.00  0.00    -0.372 N 
HETATM   18  H6  UNL     1      26.123  -0.000  54.981  1.00  0.00     0.161 HD
BRANCH  17  19
HETATM   19  C3  UNL     1      27.072   1.491  53.685  1.00  0.00     0.272 C 
BRANCH  19  20
HETATM   20  N2  UNL     1      28.180   1.400  54.644  1.00  0.00    -0.264 NA
HETATM   21  C2  UNL     1      28.929   0.352  54.494  1.00  0.00     0.227 C 
BRANCH  21  22
HETATM   22  N1  UNL     1      28.689  -0.631  53.476  1.00  0.00    -0.265 NA
HETATM   23  C1  UNL     1      29.392  -1.703  53.371  1.00  0.00     0.150 C 
ENDBRANCH  21  22
ENDBRANCH  19  20
ENDBRANCH  17  19
ENDBRANCH   1  17
TORSDOF 7
ENDMDL
MODEL 9
REMARK VINA RESULT:      -6.8      4.532      8.731
REMARK  7 active torsions:
REMARK  status: ('A' for Active; 'I' for Inactive)
REMARK    1  A    between atoms: N1_2  and  C2_3 
REMARK    2  A    between atoms: N2_4  and  C3_5 
REMARK    3  A    between atoms: C3_5  and  N3_6 
REMARK    4  A    between atoms: N3_6  and  C4_7 
REMARK    5  A    between atoms: C7_10  and  O1_11 
REMARK    6  A    between atoms: O1_11  and  C8_12 
REMARK    7  A    between atoms: C8_12  and  C9_13 
ROOT
HETATM    1  C4  UNL     1      20.877   0.989  52.481  1.00  0.00     0.031 A 
HETATM    2  C5  UNL     1      21.455  -0.204  52.878  1.00  0.00     0.032 A 
HETATM    3  C6  UNL     1      22.807  -0.247  53.167  1.00  0.00     0.041 A 
HETATM    4  C7  UNL     1      23.593   0.882  53.067  1.00  0.00     0.091 A 
HETATM    5  C15 UNL     1      23.003   2.082  52.666  1.00  0.00     0.069 A 
HETATM    6 CL1  UNL     1      23.975   3.534  52.528  1.00  0.00    -0.081 Cl
HETATM    7  C16 UNL     1      21.637   2.144  52.369  1.00  0.00     0.056 A 
ENDROOT
BRANCH   4   8
HETATM    8  O1  UNL     1      24.953   0.847  53.355  1.00  0.00    -0.345 OA
BRANCH   8   9
HETATM    9  C8  UNL     1      25.635  -0.382  53.251  1.00  0.00     0.214 C 
BRANCH   9  10
HETATM   10  C9  UNL     1      27.098  -0.250  53.468  1.00  0.00    -0.031 A 
HETATM   11  C10 UNL     1      27.913  -1.326  53.098  1.00  0.00     0.009 A 
HETATM   12  C11 UNL     1      29.286  -1.371  53.231  1.00  0.00     0.004 A 
HETATM   13  C12 UNL     1      29.906  -0.263  53.772  1.00  0.00     0.042 A 
HETATM   14  C13 UNL     1      29.137   0.819  54.149  1.00  0.00     0.117 A 
HETATM   15  F1  UNL     1      29.764   1.898  54.680  1.00  0.00    -0.206 F 
HETATM   16  C14 UNL     1      27.765   0.834  54.004  1.00  0.00     0.051 A 
ENDBRANCH   9  10
ENDBRANCH   8   9
ENDBRANCH   4   8
BRANCH   1  17
HETATM   17  N3  UNL     1      19.480   1.128  52.160  1.00  0.00    -0.372 N 
HETATM   18  H6  UNL     1      18.955   1.821  52.767  1.00  0.00     0.161 HD
BRANCH  17  19
HETATM   19  C3  UNL     1      18.795   0.403  51.103  1.00  0.00     0.272 C 
BRANCH  19  20
HETATM   20  N2  UNL     1      17.368   0.319  51.437  1.00  0.00    -0.264 NA
HETATM   21  C2  UNL     1      17.086  -0.551  52.357  1.00  0.00     0.227 C 
BRANCH  21  22
HETATM   22  N1  UNL     1      18.089  -1.358  52.991  1.00  0.00    -0.265 NA
HETATM   23  C1  UNL     1      17.804  -2.438  53.630  1.00  0.00     0.150 C 
ENDBRANCH  21  22
ENDBRANCH  19  20
ENDBRANCH  17  19
ENDBRANCH   1  17
TORSDOF 7
ENDMDL
