MODEL 1
REMARK VINA RESULT:      -6.4      0.000      0.000
REMARK  3 active torsions:
REMARK  status: ('A' for Active; 'I' for Inactive)
REMARK    1  A    between atoms: C2_2  and  C3_3 
REMARK       I    between atoms: C3_3  and  N1_5 
REMARK    2  A    between atoms: N1_5  and  C4_6 
REMARK    3  A    between atoms: C4_6  and  C7_9 
ROOT
HETATM    1  C7  UNL     1      22.863   4.118  51.656  1.00  0.00     0.003 A 
HETATM    2  C8  UNL     1      23.038   5.422  51.693  1.00  0.00     0.031 A 
HETATM    3  C9  UNL     1      21.849   6.122  51.259  1.00  0.00     0.111 A 
HETATM    4  N2  UNL     1      20.794   5.538  50.897  1.00  0.00    -0.298 NA
HETATM    5  C10 UNL     1      20.550   4.140  50.838  1.00  0.00     0.188 A 
HETATM    6  C11 UNL     1      21.717   3.297  51.261  1.00  0.00     0.097 A 
HETATM    7  C12 UNL     1      21.213   2.455  52.396  1.00  0.00     0.030 A 
HETATM    8  C13 UNL     1      21.019   1.152  52.351  1.00  0.00     0.011 A 
HETATM    9 BR1  UNL     1      20.361   0.148  53.856  1.00  0.00    -0.051 Br
HETATM   10  C14 UNL     1      21.351   0.429  51.139  1.00  0.00     0.035 A 
HETATM   11  C15 UNL     1      21.849   0.992  50.057  1.00  0.00     0.085 A 
HETATM   12  N3  UNL     1      22.050   2.395  50.158  1.00  0.00    -0.381 N 
HETATM   13  H16 UNL     1      22.496   2.948  49.375  1.00  0.00     0.160 HD
ENDROOT
BRANCH   1  14
HETATM   14  C4  UNL     1      24.099   3.454  52.109  1.00  0.00     0.040 C 
HETATM   15  C5  UNL     1      24.400   2.604  53.078  1.00  0.00    -0.001 C 
HETATM   16  C6  UNL     1      25.802   2.196  53.169  1.00  0.00     0.038 C 
BRANCH  14  17
HETATM   17  N1  UNL     1      25.412   3.606  51.529  1.00  0.00    -0.323 N 
HETATM   18  C3  UNL     1      25.407   3.460  50.115  1.00  0.00     0.244 C 
HETATM   19  O1  UNL     1      24.633   3.237  49.150  1.00  0.00    -0.268 OA
HETATM   20  H4  UNL     1      26.323   3.795  51.990  1.00  0.00     0.169 HD
BRANCH  18  21
HETATM   21  C2  UNL     1      26.682   3.591  49.427  1.00  0.00     0.064 C 
HETATM   22  C1  UNL     1      27.131   4.729  48.925  1.00  0.00     0.017 C 
ENDBRANCH  18  21
ENDBRANCH  14  17
ENDBRANCH   1  14
TORSDOF 3
ENDMDL
MODEL 2
REMARK VINA RESULT:      -6.4      3.226      4.842
REMARK  3 active torsions:
REMARK  status: ('A' for Active; 'I' for Inactive)
REMARK    1  A    between atoms: C2_2  and  C3_3 
REMARK       I    between atoms: C3_3  and  N1_5 
REMARK    2  A    between atoms: N1_5  and  C4_6 
REMARK    3  A    between atoms: C4_6  and  C7_9 
ROOT
HETATM    1  C7  UNL     1      23.661   0.280  53.248  1.00  0.00     0.003 A 
HETATM    2  C8  UNL     1      23.880  -0.666  54.136  1.00  0.00     0.031 A 
HETATM    3  C9  UNL     1      22.650  -1.074  54.780  1.00  0.00     0.111 A 
HETATM    4  N2  UNL     1      21.528  -0.575  54.508  1.00  0.00    -0.298 NA
HETATM    5  C10 UNL     1      21.234   0.442  53.561  1.00  0.00     0.188 A 
HETATM    6  C11 UNL     1      22.435   0.959  52.825  1.00  0.00     0.097 A 
HETATM    7  C12 UNL     1      22.141   0.734  51.371  1.00  0.00     0.030 A 
HETATM    8  C13 UNL     1      21.902   1.681  50.486  1.00  0.00     0.011 A 
HETATM    9 BR1  UNL     1      21.528   1.302  48.636  1.00  0.00    -0.051 Br
HETATM   10  C14 UNL     1      21.964   3.069  50.902  1.00  0.00     0.035 A 
HETATM   11  C15 UNL     1      22.252   3.460  52.126  1.00  0.00     0.085 A 
HETATM   12  N3  UNL     1      22.513   2.404  53.041  1.00  0.00    -0.381 N 
HETATM   13  H16 UNL     1      22.810   2.596  54.036  1.00  0.00     0.160 HD
ENDROOT
BRANCH   1  14
HETATM   14  C4  UNL     1      24.941   0.657  52.621  1.00  0.00     0.040 C 
HETATM   15  C5  UNL     1      25.314   1.561  51.729  1.00  0.00    -0.001 C 
HETATM   16  C6  UNL     1      26.734   1.583  51.383  1.00  0.00     0.038 C 
BRANCH  14  17
HETATM   17  N1  UNL     1      26.227   0.048  52.870  1.00  0.00    -0.323 N 
HETATM   18  C3  UNL     1      26.825   0.504  54.077  1.00  0.00     0.244 C 
HETATM   19  O1  UNL     1      26.625   1.283  55.043  1.00  0.00    -0.268 OA
HETATM   20  H4  UNL     1      26.751  -0.648  52.306  1.00  0.00     0.169 HD
BRANCH  18  21
HETATM   21  C2  UNL     1      28.128  -0.044  54.424  1.00  0.00     0.064 C 
HETATM   22  C1  UNL     1      28.889  -0.715  53.577  1.00  0.00     0.017 C 
ENDBRANCH  18  21
ENDBRANCH  14  17
ENDBRANCH   1  14
TORSDOF 3
ENDMDL
MODEL 3
REMARK VINA RESULT:      -6.2      2.955      5.141
REMARK  3 active torsions:
REMARK  status: ('A' for Active; 'I' for Inactive)
REMARK    1  A    between atoms: C2_2  and  C3_3 
REMARK       I    between atoms: C3_3  and  N1_5 
REMARK    2  A    between atoms: N1_5  and  C4_6 
REMARK    3  A    between atoms: C4_6  and  C7_9 
ROOT
HETATM    1  C7  UNL     1      22.388   1.909  50.188  1.00  0.00     0.003 A 
HETATM    2  C8  UNL     1      21.604   0.967  49.707  1.00  0.00     0.031 A 
HETATM    3  C9  UNL     1      20.825   1.455  48.590  1.00  0.00     0.111 A 
HETATM    4  N2  UNL     1      20.905   2.632  48.152  1.00  0.00    -0.298 NA
HETATM    5  C10 UNL     1      21.731   3.685  48.629  1.00  0.00     0.188 A 
HETATM    6  C11 UNL     1      22.590   3.306  49.800  1.00  0.00     0.097 A 
HETATM    7  C12 UNL     1      24.001   3.569  49.363  1.00  0.00     0.030 A 
HETATM    8  C13 UNL     1      24.778   4.525  49.832  1.00  0.00     0.011 A 
HETATM    9 BR1  UNL     1      26.580   4.796  49.209  1.00  0.00    -0.051 Br
HETATM   10  C14 UNL     1      24.282   5.385  50.888  1.00  0.00     0.035 A 
HETATM   11  C15 UNL     1      23.086   5.275  51.430  1.00  0.00     0.085 A 
HETATM   12  N3  UNL     1      22.290   4.224  50.899  1.00  0.00    -0.381 N 
HETATM   13  H16 UNL     1      21.334   4.002  51.292  1.00  0.00     0.160 HD
ENDROOT
BRANCH   1  14
HETATM   14  C4  UNL     1      23.159   1.361  51.319  1.00  0.00     0.040 C 
HETATM   15  C5  UNL     1      24.431   1.389  51.682  1.00  0.00    -0.001 C 
HETATM   16  C6  UNL     1      24.768   0.684  52.919  1.00  0.00     0.038 C 
BRANCH  14  17
HETATM   17  N1  UNL     1      22.633   0.575  52.411  1.00  0.00    -0.323 N 
HETATM   18  C3  UNL     1      21.483   1.162  53.005  1.00  0.00     0.244 C 
HETATM   19  O1  UNL     1      20.729   2.164  52.914  1.00  0.00    -0.268 OA
HETATM   20  H4  UNL     1      22.973  -0.323  52.805  1.00  0.00     0.169 HD
BRANCH  18  21
HETATM   21  C2  UNL     1      20.872   0.453  54.119  1.00  0.00     0.064 C 
HETATM   22  C1  UNL     1      21.484  -0.495  54.808  1.00  0.00     0.017 C 
ENDBRANCH  18  21
ENDBRANCH  14  17
ENDBRANCH   1  14
TORSDOF 3
ENDMDL
MODEL 4
REMARK VINA RESULT:      -6.1      3.542      5.328
REMARK  3 active torsions:
REMARK  status: ('A' for Active; 'I' for Inactive)
REMARK    1  A    between atoms: C2_2  and  C3_3 
REMARK       I    between atoms: C3_3  and  N1_5 
REMARK    2  A    between atoms: N1_5  and  C4_6 
REMARK    3  A    between atoms: C4_6  and  C7_9 
ROOT
HETATM    1  C7  UNL     1      23.856   3.792  49.147  1.00  0.00     0.003 A 
HETATM    2  C8  UNL     1      23.123   2.892  48.527  1.00  0.00     0.031 A 
HETATM    3  C9  UNL     1      22.172   3.517  47.634  1.00  0.00     0.111 A 
HETATM    4  N2  UNL     1      22.077   4.763  47.485  1.00  0.00    -0.298 NA
HETATM    5  C10 UNL     1      22.840   5.777  48.125  1.00  0.00     0.188 A 
HETATM    6  C11 UNL     1      23.865   5.255  49.088  1.00  0.00     0.097 A 
HETATM    7  C12 UNL     1      25.180   5.789  48.602  1.00  0.00     0.030 A 
HETATM    8  C13 UNL     1      25.903   6.705  49.215  1.00  0.00     0.011 A 
HETATM    9 BR1  UNL     1      27.582   7.339  48.515  1.00  0.00    -0.051 Br
HETATM   10  C14 UNL     1      25.449   7.232  50.487  1.00  0.00     0.035 A 
HETATM   11  C15 UNL     1      24.343   6.849  51.091  1.00  0.00     0.085 A 
HETATM   12  N3  UNL     1      23.603   5.852  50.398  1.00  0.00    -0.381 N 
HETATM   13  H16 UNL     1      22.728   5.426  50.811  1.00  0.00     0.160 HD
ENDROOT
BRANCH   1  14
HETATM   14  C4  UNL     1      24.807   3.105  50.040  1.00  0.00     0.040 C 
HETATM   15  C5  UNL     1      26.117   3.153  50.223  1.00  0.00    -0.001 C 
HETATM   16  C6  UNL     1      26.661   2.264  51.249  1.00  0.00     0.038 C 
BRANCH  14  17
HETATM   17  N1  UNL     1      24.481   2.105  51.029  1.00  0.00    -0.323 N 
HETATM   18  C3  UNL     1      23.529   2.564  51.980  1.00  0.00     0.244 C 
HETATM   19  O1  UNL     1      22.842   3.574  52.278  1.00  0.00    -0.268 OA
HETATM   20  H4  UNL     1      24.838   1.136  51.135  1.00  0.00     0.169 HD
BRANCH  18  21
HETATM   21  C2  UNL     1      23.130   1.635  53.026  1.00  0.00     0.064 C 
HETATM   22  C1  UNL     1      23.471   0.358  53.041  1.00  0.00     0.017 C 
ENDBRANCH  18  21
ENDBRANCH  14  17
ENDBRANCH   1  14
TORSDOF 3
ENDMDL
MODEL 5
REMARK VINA RESULT:      -6.0      2.443      4.182
REMARK  3 active torsions:
REMARK  status: ('A' for Active; 'I' for Inactive)
REMARK    1  A    between atoms: C2_2  and  C3_3 
REMARK       I    between atoms: C3_3  and  N1_5 
REMARK    2  A    between atoms: N1_5  and  C4_6 
REMARK    3  A    between atoms: C4_6  and  C7_9 
ROOT
HETATM    1  C7  UNL     1      21.838   0.844  51.846  1.00  0.00     0.003 A 
HETATM    2  C8  UNL     1      22.926   0.299  52.349  1.00  0.00     0.031 A 
HETATM    3  C9  UNL     1      22.709  -0.143  53.709  1.00  0.00     0.111 A 
HETATM    4  N2  UNL     1      21.612  -0.014  54.313  1.00  0.00    -0.298 NA
HETATM    5  C10 UNL     1      20.410   0.561  53.821  1.00  0.00     0.188 A 
HETATM    6  C11 UNL     1      20.506   1.068  52.412  1.00  0.00     0.097 A 
HETATM    7  C12 UNL     1      19.442   0.337  51.649  1.00  0.00     0.030 A 
HETATM    8  C13 UNL     1      18.343   0.880  51.163  1.00  0.00     0.011 A 
HETATM    9 BR1  UNL     1      17.022  -0.137  50.199  1.00  0.00    -0.051 Br
HETATM   10  C14 UNL     1      18.130   2.305  51.318  1.00  0.00     0.035 A 
HETATM   11  C15 UNL     1      18.977   3.117  51.917  1.00  0.00     0.085 A 
HETATM   12  N3  UNL     1      20.150   2.488  52.414  1.00  0.00    -0.381 N 
HETATM   13  H16 UNL     1      20.928   3.045  52.865  1.00  0.00     0.160 HD
ENDROOT
BRANCH   1  14
HETATM   14  C4  UNL     1      22.111   1.274  50.463  1.00  0.00     0.040 C 
HETATM   15  C5  UNL     1      21.542   1.056  49.288  1.00  0.00    -0.001 C 
HETATM   16  C6  UNL     1      22.169   1.700  48.134  1.00  0.00     0.038 C 
BRANCH  14  17
HETATM   17  N1  UNL     1      23.192   2.129  50.031  1.00  0.00    -0.323 N 
HETATM   18  C3  UNL     1      23.182   3.394  50.679  1.00  0.00     0.244 C 
HETATM   19  O1  UNL     1      22.540   4.062  51.529  1.00  0.00    -0.268 OA
HETATM   20  H4  UNL     1      23.942   1.949  49.336  1.00  0.00     0.169 HD
BRANCH  18  21
HETATM   21  C2  UNL     1      24.229   4.337  50.315  1.00  0.00     0.064 C 
HETATM   22  C1  UNL     1      25.213   4.053  49.479  1.00  0.00     0.017 C 
ENDBRANCH  18  21
ENDBRANCH  14  17
ENDBRANCH   1  14
TORSDOF 3
ENDMDL
MODEL 6
REMARK VINA RESULT:      -6.0      2.289      2.791
REMARK  3 active torsions:
REMARK  status: ('A' for Active; 'I' for Inactive)
REMARK    1  A    between atoms: C2_2  and  C3_3 
REMARK       I    between atoms: C3_3  and  N1_5 
REMARK    2  A    between atoms: N1_5  and  C4_6 
REMARK    3  A    between atoms: C4_6  and  C7_9 
ROOT
HETATM    1  C7  UNL     1      22.996   2.876  52.316  1.00  0.00     0.003 A 
HETATM    2  C8  UNL     1      23.679   3.750  53.026  1.00  0.00     0.031 A 
HETATM    3  C9  UNL     1      23.504   5.091  52.512  1.00  0.00     0.111 A 
HETATM    4  N2  UNL     1      22.786   5.363  51.515  1.00  0.00    -0.298 NA
HETATM    5  C10 UNL     1      22.030   4.464  50.716  1.00  0.00     0.188 A 
HETATM    6  C11 UNL     1      22.132   3.030  51.144  1.00  0.00     0.097 A 
HETATM    7  C12 UNL     1      20.724   2.593  51.424  1.00  0.00     0.030 A 
HETATM    8  C13 UNL     1      20.035   1.733  50.701  1.00  0.00     0.011 A 
HETATM    9 BR1  UNL     1      18.226   1.232  51.129  1.00  0.00    -0.051 Br
HETATM   10  C14 UNL     1      20.669   1.100  49.561  1.00  0.00     0.035 A 
HETATM   11  C15 UNL     1      21.913   1.323  49.190  1.00  0.00     0.085 A 
HETATM   12  N3  UNL     1      22.618   2.249  50.006  1.00  0.00    -0.381 N 
HETATM   13  H16 UNL     1      23.639   2.466  49.841  1.00  0.00     0.160 HD
ENDROOT
BRANCH   1  14
HETATM   14  C4  UNL     1      23.206   1.530  52.881  1.00  0.00     0.040 C 
HETATM   15  C5  UNL     1      22.414   0.588  53.367  1.00  0.00    -0.001 C 
HETATM   16  C6  UNL     1      23.070  -0.632  53.838  1.00  0.00     0.038 C 
BRANCH  14  17
HETATM   17  N1  UNL     1      24.475   0.862  53.050  1.00  0.00    -0.323 N 
HETATM   18  C3  UNL     1      25.387   1.143  51.996  1.00  0.00     0.244 C 
HETATM   19  O1  UNL     1      25.485   1.792  50.924  1.00  0.00    -0.268 OA
HETATM   20  H4  UNL     1      24.795   0.228  53.807  1.00  0.00     0.169 HD
BRANCH  18  21
HETATM   21  C2  UNL     1      26.699   0.518  52.066  1.00  0.00     0.064 C 
HETATM   22  C1  UNL     1      26.899  -0.723  52.477  1.00  0.00     0.017 C 
ENDBRANCH  18  21
ENDBRANCH  14  17
ENDBRANCH   1  14
TORSDOF 3
ENDMDL
MODEL 7
REMARK VINA RESULT:      -5.9      2.613      5.190
REMARK  3 active torsions:
REMARK  status: ('A' for Active; 'I' for Inactive)
REMARK    1  A    between atoms: C2_2  and  C3_3 
REMARK       I    between atoms: C3_3  and  N1_5 
REMARK    2  A    between atoms: N1_5  and  C4_6 
REMARK    3  A    between atoms: C4_6  and  C7_9 
ROOT
HETATM    1  C7  UNL     1      24.336   2.308  51.035  1.00  0.00     0.003 A 
HETATM    2  C8  UNL     1      23.914   2.949  49.966  1.00  0.00     0.031 A 
HETATM    3  C9  UNL     1      25.004   3.627  49.298  1.00  0.00     0.111 A 
HETATM    4  N2  UNL     1      26.194   3.592  49.705  1.00  0.00    -0.298 NA
HETATM    5  C10 UNL     1      26.705   2.918  50.846  1.00  0.00     0.188 A 
HETATM    6  C11 UNL     1      25.666   2.176  51.634  1.00  0.00     0.097 A 
HETATM    7  C12 UNL     1      26.128   0.749  51.665  1.00  0.00     0.030 A 
HETATM    8  C13 UNL     1      26.569   0.114  52.733  1.00  0.00     0.011 A 
HETATM    9 BR1  UNL     1      27.151  -1.721  52.682  1.00  0.00    -0.051 Br
HETATM   10  C14 UNL     1      26.582   0.801  54.010  1.00  0.00     0.035 A 
HETATM   11  C15 UNL     1      26.170   2.039  54.185  1.00  0.00     0.085 A 
HETATM   12  N3  UNL     1      25.693   2.679  53.008  1.00  0.00    -0.381 N 
HETATM   13  H16 UNL     1      25.285   3.653  53.035  1.00  0.00     0.160 HD
ENDROOT
BRANCH   1  14
HETATM   14  C4  UNL     1      23.191   1.635  51.675  1.00  0.00     0.040 C 
HETATM   15  C5  UNL     1      23.052   0.598  52.485  1.00  0.00    -0.001 C 
HETATM   16  C6  UNL     1      21.684   0.265  52.883  1.00  0.00     0.038 C 
BRANCH  14  17
HETATM   17  N1  UNL     1      21.801   2.001  51.541  1.00  0.00    -0.323 N 
HETATM   18  C3  UNL     1      21.531   3.313  52.018  1.00  0.00     0.244 C 
HETATM   19  O1  UNL     1      22.096   4.309  52.537  1.00  0.00    -0.268 OA
HETATM   20  H4  UNL     1      21.004   1.454  51.162  1.00  0.00     0.169 HD
BRANCH  18  21
HETATM   21  C2  UNL     1      20.157   3.784  51.933  1.00  0.00     0.064 C 
HETATM   22  C1  UNL     1      19.137   3.011  51.603  1.00  0.00     0.017 C 
ENDBRANCH  18  21
ENDBRANCH  14  17
ENDBRANCH   1  14
TORSDOF 3
ENDMDL
MODEL 8
REMARK VINA RESULT:      -5.8      6.345      9.544
REMARK  3 active torsions:
REMARK  status: ('A' for Active; 'I' for Inactive)
REMARK    1  A    between atoms: C2_2  and  C3_3 
REMARK       I    between atoms: C3_3  and  N1_5 
REMARK    2  A    between atoms: N1_5  and  C4_6 
REMARK    3  A    between atoms: C4_6  and  C7_9 
ROOT
HETATM    1  C7  UNL     1      29.253   7.466  47.018  1.00  0.00     0.003 A 
HETATM    2  C8  UNL     1      28.543   8.103  46.111  1.00  0.00     0.031 A 
HETATM    3  C9  UNL     1      29.384   8.931  45.275  1.00  0.00     0.111 A 
HETATM    4  N2  UNL     1      30.632   9.014  45.414  1.00  0.00    -0.298 NA
HETATM    5  C10 UNL     1      31.447   8.350  46.370  1.00  0.00     0.188 A 
HETATM    6  C11 UNL     1      30.688   7.459  47.309  1.00  0.00     0.097 A 
HETATM    7  C12 UNL     1      31.289   6.095  47.141  1.00  0.00     0.030 A 
HETATM    8  C13 UNL     1      32.016   5.466  48.042  1.00  0.00     0.011 A 
HETATM    9 BR1  UNL     1      32.756   3.714  47.740  1.00  0.00    -0.051 Br
HETATM   10  C14 UNL     1      32.239   6.090  49.331  1.00  0.00     0.035 A 
HETATM   11  C15 UNL     1      31.752   7.264  49.677  1.00  0.00     0.085 A 
HETATM   12  N3  UNL     1      30.966   7.898  48.677  1.00  0.00    -0.381 N 
HETATM   13  H16 UNL     1      30.477   8.817  48.858  1.00  0.00     0.160 HD
ENDROOT
BRANCH   1  14
HETATM   14  C4  UNL     1      28.351   6.638  47.840  1.00  0.00     0.040 C 
HETATM   15  C5  UNL     1      28.329   5.367  48.210  1.00  0.00    -0.001 C 
HETATM   16  C6  UNL     1      27.207   4.957  49.054  1.00  0.00     0.038 C 
BRANCH  14  17
HETATM   17  N1  UNL     1      27.146   7.082  48.499  1.00  0.00    -0.323 N 
HETATM   18  C3  UNL     1      27.360   8.222  49.321  1.00  0.00     0.244 C 
HETATM   19  O1  UNL     1      28.263   9.013  49.695  1.00  0.00    -0.268 OA
HETATM   20  H4  UNL     1      26.185   6.693  48.456  1.00  0.00     0.169 HD
BRANCH  18  21
HETATM   21  C2  UNL     1      26.209   8.753  50.037  1.00  0.00     0.064 C 
HETATM   22  C1  UNL     1      25.053   8.120  50.138  1.00  0.00     0.017 C 
ENDBRANCH  18  21
ENDBRANCH  14  17
ENDBRANCH   1  14
TORSDOF 3
ENDMDL
MODEL 9
REMARK VINA RESULT:      -5.8      2.097      3.475
REMARK  3 active torsions:
REMARK  status: ('A' for Active; 'I' for Inactive)
REMARK    1  A    between atoms: C2_2  and  C3_3 
REMARK       I    between atoms: C3_3  and  N1_5 
REMARK    2  A    between atoms: N1_5  and  C4_6 
REMARK    3  A    between atoms: C4_6  and  C7_9 
ROOT
HETATM    1  C7  UNL     1      23.236   2.134  52.397  1.00  0.00     0.003 A 
HETATM    2  C8  UNL     1      24.191   1.497  53.041  1.00  0.00     0.031 A 
HETATM    3  C9  UNL     1      23.813   0.128  53.315  1.00  0.00     0.111 A 
HETATM    4  N2  UNL     1      22.708  -0.368  52.973  1.00  0.00    -0.298 NA
HETATM    5  C10 UNL     1      21.646   0.270  52.278  1.00  0.00     0.188 A 
HETATM    6  C11 UNL     1      21.913   1.707  51.938  1.00  0.00     0.097 A 
HETATM    7  C12 UNL     1      21.781   1.797  50.446  1.00  0.00     0.030 A 
HETATM    8  C13 UNL     1      20.813   2.419  49.803  1.00  0.00     0.011 A 
HETATM    9 BR1  UNL     1      20.717   2.480  47.881  1.00  0.00    -0.051 Br
HETATM   10  C14 UNL     1      19.799   3.125  50.562  1.00  0.00     0.035 A 
HETATM   11  C15 UNL     1      19.778   3.195  51.877  1.00  0.00     0.085 A 
HETATM   12  N3  UNL     1      20.847   2.519  52.525  1.00  0.00    -0.381 N 
HETATM   13  H16 UNL     1      20.967   2.552  53.574  1.00  0.00     0.160 HD
ENDROOT
BRANCH   1  14
HETATM   14  C4  UNL     1      23.671   3.519  52.140  1.00  0.00     0.040 C 
HETATM   15  C5  UNL     1      23.109   4.711  52.260  1.00  0.00    -0.001 C 
HETATM   16  C6  UNL     1      23.932   5.858  51.875  1.00  0.00     0.038 C 
BRANCH  14  17
HETATM   17  N1  UNL     1      24.961   3.931  51.638  1.00  0.00    -0.323 N 
HETATM   18  C3  UNL     1      25.153   3.587  50.272  1.00  0.00     0.244 C 
HETATM   19  O1  UNL     1      24.574   3.028  49.305  1.00  0.00    -0.268 OA
HETATM   20  H4  UNL     1      25.737   4.421  52.124  1.00  0.00     0.169 HD
BRANCH  18  21
HETATM   21  C2  UNL     1      26.423   3.954  49.664  1.00  0.00     0.064 C 
HETATM   22  C1  UNL     1      26.614   5.070  48.982  1.00  0.00     0.017 C 
ENDBRANCH  18  21
ENDBRANCH  14  17
ENDBRANCH   1  14
TORSDOF 3
ENDMDL
