MODEL 1
REMARK VINA RESULT:      -7.6      0.000      0.000
REMARK  3 active torsions:
REMARK  status: ('A' for Active; 'I' for Inactive)
REMARK    1  A    between atoms: C2_2  and  C3_3 
REMARK    2  A    between atoms: C5_5  and  N1_6 
REMARK    3  A    between atoms: C7_8  and  O1_9 
ROOT
HETATM    1  C3  UNL     1      22.813   4.116  49.667  1.00  0.00     0.070 C 
HETATM    2  C4  UNL     1      22.679   5.668  49.876  1.00  0.00     0.073 C 
HETATM    3  C5  UNL     1      23.586   5.387  51.127  1.00  0.00     0.261 C 
HETATM    4  C7  UNL     1      24.207   4.410  50.238  1.00  0.00     0.146 C 
HETATM    5  C9  UNL     1      25.071   3.301  50.559  1.00  0.00     0.256 C 
HETATM    6  C10 UNL     1      26.115   2.981  49.452  1.00  0.00     0.046 C 
HETATM    7  N2  UNL     1      25.853   3.350  51.747  1.00  0.00     0.094 N 
HETATM    8  C11 UNL     1      26.483   2.102  52.076  1.00  0.00     0.298 C 
HETATM    9  C12 UNL     1      25.597   1.051  52.611  1.00  0.00     0.007 C 
HETATM   10  C13 UNL     1      24.436   0.599  53.027  1.00  0.00    -0.063 C 
HETATM   11  C14 UNL     1      23.909  -0.721  53.554  1.00  0.00     0.156 C 
HETATM   12  N3  UNL     1      22.553  -0.921  53.021  1.00  0.00    -0.356 N 
HETATM   13  C15 UNL     1      21.689   0.051  52.371  1.00  0.00     0.228 C 
HETATM   14  O2  UNL     1      20.479  -0.339  52.364  1.00  0.00    -0.273 OA
HETATM   15  C16 UNL     1      22.476   1.256  51.883  1.00  0.00     0.131 C 
HETATM   16  C17 UNL     1      23.362   1.625  53.028  1.00  0.00     0.056 C 
HETATM   17  C18 UNL     1      21.617   2.338  51.393  1.00  0.00     0.021 C 
HETATM   18  C19 UNL     1      20.581   2.446  52.213  1.00  0.00     0.025 C 
HETATM   19  C20 UNL     1      19.432   3.342  52.131  1.00  0.00    -0.001 C 
HETATM   20  C21 UNL     1      19.534   4.053  51.023  1.00  0.00    -0.007 C 
HETATM   21  C22 UNL     1      20.608   3.960  49.989  1.00  0.00     0.151 C 
HETATM   22  N4  UNL     1      21.858   3.389  50.391  1.00  0.00    -0.367 N 
HETATM   23  H20 UNL     1      26.568   4.088  51.705  1.00  0.00     0.316 HD
HETATM   24  H26 UNL     1      22.255  -1.891  53.166  1.00  0.00     0.162 HD
ENDROOT
BRANCH   3  25
HETATM   25  N1  UNL     1      22.813   5.111  52.256  1.00  0.00     0.087 N 
HETATM   26  C6  UNL     1      23.635   5.287  53.463  1.00  0.00     0.307 C 
HETATM   27  H9  UNL     1      22.547   4.108  52.309  1.00  0.00     0.316 HD
ENDBRANCH   3  25
BRANCH   4  28
HETATM   28  O1  UNL     1      24.817   5.215  49.221  1.00  0.00    -0.378 OA
HETATM   29  C8  UNL     1      25.889   5.932  49.547  1.00  0.00     0.202 C 
ENDBRANCH   4  28
BRANCH   1  30
HETATM   30  C2  UNL     1      22.955   3.810  48.217  1.00  0.00     0.030 C 
HETATM   31  C1  UNL     1      22.640   2.424  47.761  1.00  0.00     0.007 C 
ENDBRANCH   1  30
TORSDOF 3
ENDMDL
MODEL 2
REMARK VINA RESULT:      -7.4      1.954      4.659
REMARK  3 active torsions:
REMARK  status: ('A' for Active; 'I' for Inactive)
REMARK    1  A    between atoms: C2_2  and  C3_3 
REMARK    2  A    between atoms: C5_5  and  N1_6 
REMARK    3  A    between atoms: C7_8  and  O1_9 
ROOT
HETATM    1  C3  UNL     1      22.620   4.780  50.581  1.00  0.00     0.070 C 
HETATM    2  C4  UNL     1      22.227   5.034  49.081  1.00  0.00     0.073 C 
HETATM    3  C5  UNL     1      21.922   3.493  49.098  1.00  0.00     0.261 C 
HETATM    4  C7  UNL     1      21.466   3.776  50.455  1.00  0.00     0.146 C 
HETATM    5  C9  UNL     1      21.219   2.865  51.545  1.00  0.00     0.256 C 
HETATM    6  C10 UNL     1      20.081   3.326  52.500  1.00  0.00     0.046 C 
HETATM    7  N2  UNL     1      20.883   1.512  51.259  1.00  0.00     0.094 N 
HETATM    8  C11 UNL     1      20.894   0.657  52.412  1.00  0.00     0.298 C 
HETATM    9  C12 UNL     1      22.225   0.295  52.936  1.00  0.00     0.007 C 
HETATM   10  C13 UNL     1      23.538   0.298  52.898  1.00  0.00    -0.063 C 
HETATM   11  C14 UNL     1      24.652  -0.271  53.755  1.00  0.00     0.156 C 
HETATM   12  N3  UNL     1      25.750   0.707  53.793  1.00  0.00    -0.356 N 
HETATM   13  C15 UNL     1      25.945   1.873  52.947  1.00  0.00     0.228 C 
HETATM   14  O2  UNL     1      27.148   2.283  52.997  1.00  0.00    -0.273 OA
HETATM   15  C16 UNL     1      24.659   2.272  52.243  1.00  0.00     0.131 C 
HETATM   16  C17 UNL     1      24.099   0.992  51.711  1.00  0.00     0.056 C 
HETATM   17  C18 UNL     1      24.859   3.323  51.240  1.00  0.00     0.021 C 
HETATM   18  C19 UNL     1      25.980   3.058  50.583  1.00  0.00     0.025 C 
HETATM   19  C20 UNL     1      26.629   3.824  49.525  1.00  0.00    -0.001 C 
HETATM   20  C21 UNL     1      25.934   4.928  49.321  1.00  0.00    -0.007 C 
HETATM   21  C22 UNL     1      24.709   5.369  50.054  1.00  0.00     0.151 C 
HETATM   22  N4  UNL     1      23.950   4.361  50.728  1.00  0.00    -0.367 N 
HETATM   23  H20 UNL     1      19.970   1.435  50.791  1.00  0.00     0.316 HD
HETATM   24  H26 UNL     1      26.415   0.464  54.533  1.00  0.00     0.162 HD
ENDROOT
BRANCH   3  25
HETATM   25  N1  UNL     1      23.050   2.754  48.737  1.00  0.00     0.087 N 
HETATM   26  C6  UNL     1      22.712   1.870  47.610  1.00  0.00     0.307 C 
HETATM   27  H9  UNL     1      23.327   2.079  49.477  1.00  0.00     0.316 HD
ENDBRANCH   3  25
BRANCH   4  28
HETATM   28  O1  UNL     1      20.320   4.614  50.261  1.00  0.00    -0.378 OA
HETATM   29  C8  UNL     1      19.224   4.067  49.741  1.00  0.00     0.202 C 
ENDBRANCH   4  28
BRANCH   1  30
HETATM   30  C2  UNL     1      22.161   5.917  51.425  1.00  0.00     0.030 C 
HETATM   31  C1  UNL     1      21.942   7.237  50.760  1.00  0.00     0.007 C 
ENDBRANCH   1  30
TORSDOF 3
ENDMDL
MODEL 3
REMARK VINA RESULT:      -7.0      2.122      4.890
REMARK  3 active torsions:
REMARK  status: ('A' for Active; 'I' for Inactive)
REMARK    1  A    between atoms: C2_2  and  C3_3 
REMARK    2  A    between atoms: C5_5  and  N1_6 
REMARK    3  A    between atoms: C7_8  and  O1_9 
ROOT
HETATM    1  C3  UNL     1      22.008   3.910  51.058  1.00  0.00     0.070 C 
HETATM    2  C4  UNL     1      22.928   4.131  49.804  1.00  0.00     0.073 C 
HETATM    3  C5  UNL     1      21.983   3.055  49.157  1.00  0.00     0.261 C 
HETATM    4  C7  UNL     1      20.961   3.732  49.950  1.00  0.00     0.146 C 
HETATM    5  C9  UNL     1      19.639   3.284  50.312  1.00  0.00     0.256 C 
HETATM    6  C10 UNL     1      18.603   4.435  50.447  1.00  0.00     0.046 C 
HETATM    7  N2  UNL     1      18.975   2.336  49.484  1.00  0.00     0.094 N 
HETATM    8  C11 UNL     1      17.780   1.795  50.068  1.00  0.00     0.298 C 
HETATM    9  C12 UNL     1      17.977   0.819  51.157  1.00  0.00     0.007 C 
HETATM   10  C13 UNL     1      18.723   0.072  51.937  1.00  0.00    -0.063 C 
HETATM   11  C14 UNL     1      18.473  -0.903  53.071  1.00  0.00     0.156 C 
HETATM   12  N3  UNL     1      19.536  -0.726  54.073  1.00  0.00    -0.356 N 
HETATM   13  C15 UNL     1      20.792  -0.008  53.935  1.00  0.00     0.228 C 
HETATM   14  O2  UNL     1      21.621  -0.350  54.836  1.00  0.00    -0.273 OA
HETATM   15  C16 UNL     1      20.759   0.948  52.754  1.00  0.00     0.131 C 
HETATM   16  C17 UNL     1      20.174   0.153  51.632  1.00  0.00     0.056 C 
HETATM   17  C18 UNL     1      22.066   1.549  52.469  1.00  0.00     0.021 C 
HETATM   18  C19 UNL     1      22.990   0.607  52.600  1.00  0.00     0.025 C 
HETATM   19  C20 UNL     1      24.439   0.714  52.465  1.00  0.00    -0.001 C 
HETATM   20  C21 UNL     1      24.745   1.977  52.226  1.00  0.00    -0.007 C 
HETATM   21  C22 UNL     1      23.800   3.131  52.140  1.00  0.00     0.151 C 
HETATM   22  N4  UNL     1      22.428   2.836  51.855  1.00  0.00    -0.367 N 
HETATM   23  H20 UNL     1      18.751   2.727  48.559  1.00  0.00     0.316 HD
HETATM   24  H26 UNL     1      19.281  -1.198  54.946  1.00  0.00     0.162 HD
ENDROOT
BRANCH   3  25
HETATM   25  N1  UNL     1      22.476   1.766  49.363  1.00  0.00     0.087 N 
HETATM   26  C6  UNL     1      21.844   0.845  48.406  1.00  0.00     0.307 C 
HETATM   27  H9  UNL     1      22.179   1.377  50.280  1.00  0.00     0.316 HD
ENDBRANCH   3  25
BRANCH   4  28
HETATM   28  O1  UNL     1      20.881   5.035  49.360  1.00  0.00    -0.378 OA
HETATM   29  C8  UNL     1      20.366   5.139  48.137  1.00  0.00     0.202 C 
ENDBRANCH   4  28
BRANCH   1  30
HETATM   30  C2  UNL     1      21.755   5.211  51.737  1.00  0.00     0.030 C 
HETATM   31  C1  UNL     1      22.636   6.365  51.386  1.00  0.00     0.007 C 
ENDBRANCH   1  30
TORSDOF 3
ENDMDL
MODEL 4
REMARK VINA RESULT:      -6.7      8.302     12.324
REMARK  3 active torsions:
REMARK  status: ('A' for Active; 'I' for Inactive)
REMARK    1  A    between atoms: C2_2  and  C3_3 
REMARK    2  A    between atoms: C5_5  and  N1_6 
REMARK    3  A    between atoms: C7_8  and  O1_9 
ROOT
HETATM    1  C3  UNL     1      31.054   6.476  47.616  1.00  0.00     0.070 C 
HETATM    2  C4  UNL     1      31.487   6.351  49.121  1.00  0.00     0.073 C 
HETATM    3  C5  UNL     1      32.574   7.404  48.699  1.00  0.00     0.261 C 
HETATM    4  C7  UNL     1      31.493   7.924  47.867  1.00  0.00     0.146 C 
HETATM    5  C9  UNL     1      31.557   8.832  46.749  1.00  0.00     0.256 C 
HETATM    6  C10 UNL     1      30.302   9.741  46.608  1.00  0.00     0.046 C 
HETATM    7  N2  UNL     1      32.641   9.749  46.658  1.00  0.00     0.094 N 
HETATM    8  C11 UNL     1      32.721  10.427  45.394  1.00  0.00     0.298 C 
HETATM    9  C12 UNL     1      33.207   9.622  44.257  1.00  0.00     0.007 C 
HETATM   10  C13 UNL     1      33.690   8.524  43.723  1.00  0.00    -0.063 C 
HETATM   11  C14 UNL     1      34.089   8.077  42.331  1.00  0.00     0.156 C 
HETATM   12  N3  UNL     1      33.695   6.669  42.168  1.00  0.00    -0.356 N 
HETATM   13  C15 UNL     1      33.289   5.724  43.195  1.00  0.00     0.228 C 
HETATM   14  O2  UNL     1      33.370   4.526  42.778  1.00  0.00    -0.273 OA
HETATM   15  C16 UNL     1      32.883   6.435  44.475  1.00  0.00     0.131 C 
HETATM   16  C17 UNL     1      33.956   7.447  44.711  1.00  0.00     0.056 C 
HETATM   17  C18 UNL     1      32.648   5.513  45.591  1.00  0.00     0.021 C 
HETATM   18  C19 UNL     1      33.590   4.580  45.560  1.00  0.00     0.025 C 
HETATM   19  C20 UNL     1      33.766   3.421  46.428  1.00  0.00    -0.001 C 
HETATM   20  C21 UNL     1      32.761   3.383  47.284  1.00  0.00    -0.007 C 
HETATM   21  C22 UNL     1      31.606   4.327  47.359  1.00  0.00     0.151 C 
HETATM   22  N4  UNL     1      31.778   5.621  46.773  1.00  0.00    -0.367 N 
HETATM   23  H20 UNL     1      32.618  10.447  47.413  1.00  0.00     0.316 HD
HETATM   24  H26 UNL     1      33.741   6.401  41.180  1.00  0.00     0.162 HD
ENDROOT
BRANCH   3  25
HETATM   25  N1  UNL     1      33.736   6.774  48.253  1.00  0.00     0.087 N 
HETATM   26  C6  UNL     1      34.890   7.655  48.493  1.00  0.00     0.307 C 
HETATM   27  H9  UNL     1      33.748   6.664  47.220  1.00  0.00     0.316 HD
ENDBRANCH   3  25
BRANCH   4  28
HETATM   28  O1  UNL     1      30.532   8.401  48.817  1.00  0.00    -0.378 OA
HETATM   29  C8  UNL     1      30.806   9.522  49.479  1.00  0.00     0.202 C 
ENDBRANCH   4  28
BRANCH   1  30
HETATM   30  C2  UNL     1      29.569   6.448  47.512  1.00  0.00     0.030 C 
HETATM   31  C1  UNL     1      28.824   5.500  48.393  1.00  0.00     0.007 C 
ENDBRANCH   1  30
TORSDOF 3
ENDMDL
MODEL 5
REMARK VINA RESULT:      -6.6      8.561     12.472
REMARK  3 active torsions:
REMARK  status: ('A' for Active; 'I' for Inactive)
REMARK    1  A    between atoms: C2_2  and  C3_3 
REMARK    2  A    between atoms: C5_5  and  N1_6 
REMARK    3  A    between atoms: C7_8  and  O1_9 
ROOT
HETATM    1  C3  UNL     1      33.236   5.999  48.352  1.00  0.00     0.070 C 
HETATM    2  C4  UNL     1      32.212   5.180  49.216  1.00  0.00     0.073 C 
HETATM    3  C5  UNL     1      31.600   4.826  47.813  1.00  0.00     0.261 C 
HETATM    4  C7  UNL     1      33.000   4.819  47.401  1.00  0.00     0.146 C 
HETATM    5  C9  UNL     1      33.562   4.875  46.074  1.00  0.00     0.256 C 
HETATM    6  C10 UNL     1      34.905   4.104  45.930  1.00  0.00     0.046 C 
HETATM    7  N2  UNL     1      32.792   4.408  44.972  1.00  0.00     0.094 N 
HETATM    8  C11 UNL     1      33.359   4.732  43.693  1.00  0.00     0.298 C 
HETATM    9  C12 UNL     1      33.244   6.142  43.272  1.00  0.00     0.007 C 
HETATM   10  C13 UNL     1      32.833   7.379  43.429  1.00  0.00    -0.063 C 
HETATM   11  C14 UNL     1      32.964   8.675  42.652  1.00  0.00     0.156 C 
HETATM   12  N3  UNL     1      33.131   9.774  43.615  1.00  0.00    -0.356 N 
HETATM   13  C15 UNL     1      32.906   9.754  45.051  1.00  0.00     0.228 C 
HETATM   14  O2  UNL     1      32.790  10.932  45.516  1.00  0.00    -0.273 OA
HETATM   15  C16 UNL     1      32.874   8.334  45.590  1.00  0.00     0.131 C 
HETATM   16  C17 UNL     1      31.998   7.582  44.641  1.00  0.00     0.056 C 
HETATM   17  C18 UNL     1      32.464   8.265  46.996  1.00  0.00     0.021 C 
HETATM   18  C19 UNL     1      31.466   9.120  47.176  1.00  0.00     0.025 C 
HETATM   19  C20 UNL     1      30.747   9.449  48.402  1.00  0.00    -0.001 C 
HETATM   20  C21 UNL     1      31.290   8.775  49.400  1.00  0.00    -0.007 C 
HETATM   21  C22 UNL     1      32.463   7.852  49.330  1.00  0.00     0.151 C 
HETATM   22  N4  UNL     1      32.780   7.290  48.052  1.00  0.00    -0.367 N 
HETATM   23  H20 UNL     1      32.630   3.393  45.021  1.00  0.00     0.316 HD
HETATM   24  H26 UNL     1      33.446  10.622  43.133  1.00  0.00     0.162 HD
ENDROOT
BRANCH   3  25
HETATM   25  N1  UNL     1      30.629   5.756  47.441  1.00  0.00     0.087 N 
HETATM   26  C6  UNL     1      29.386   5.486  48.181  1.00  0.00     0.307 C 
HETATM   27  H9  UNL     1      30.332   5.635  46.452  1.00  0.00     0.316 HD
ENDBRANCH   3  25
BRANCH   4  28
HETATM   28  O1  UNL     1      33.558   3.706  48.111  1.00  0.00    -0.378 OA
HETATM   29  C8  UNL     1      33.169   2.481  47.764  1.00  0.00     0.202 C 
ENDBRANCH   4  28
BRANCH   1  30
HETATM   30  C2  UNL     1      34.603   5.870  48.928  1.00  0.00     0.030 C 
HETATM   31  C1  UNL     1      35.609   6.918  48.581  1.00  0.00     0.007 C 
ENDBRANCH   1  30
TORSDOF 3
ENDMDL
MODEL 6
REMARK VINA RESULT:      -6.3      8.052     11.487
REMARK  3 active torsions:
REMARK  status: ('A' for Active; 'I' for Inactive)
REMARK    1  A    between atoms: C2_2  and  C3_3 
REMARK    2  A    between atoms: C5_5  and  N1_6 
REMARK    3  A    between atoms: C7_8  and  O1_9 
ROOT
HETATM    1  C3  UNL     1      30.473  10.717  47.856  1.00  0.00     0.070 C 
HETATM    2  C4  UNL     1      29.883  11.679  46.763  1.00  0.00     0.073 C 
HETATM    3  C5  UNL     1      29.277  10.348  46.189  1.00  0.00     0.261 C 
HETATM    4  C7  UNL     1      29.135  10.011  47.602  1.00  0.00     0.146 C 
HETATM    5  C9  UNL     1      28.901   8.727  48.216  1.00  0.00     0.256 C 
HETATM    6  C10 UNL     1      28.068   8.803  49.527  1.00  0.00     0.046 C 
HETATM    7  N2  UNL     1      28.251   7.706  47.469  1.00  0.00     0.094 N 
HETATM    8  C11 UNL     1      28.289   6.415  48.098  1.00  0.00     0.298 C 
HETATM    9  C12 UNL     1      29.589   5.717  48.063  1.00  0.00     0.007 C 
HETATM   10  C13 UNL     1      30.847   5.604  47.704  1.00  0.00    -0.063 C 
HETATM   11  C14 UNL     1      31.953   4.591  47.923  1.00  0.00     0.156 C 
HETATM   12  N3  UNL     1      33.217   5.322  48.103  1.00  0.00    -0.356 N 
HETATM   13  C15 UNL     1      33.495   6.720  47.823  1.00  0.00     0.228 C 
HETATM   14  O2  UNL     1      34.746   6.935  47.743  1.00  0.00    -0.273 OA
HETATM   15  C16 UNL     1      32.215   7.530  47.706  1.00  0.00     0.131 C 
HETATM   16  C17 UNL     1      31.321   6.711  46.834  1.00  0.00     0.056 C 
HETATM   17  C18 UNL     1      32.447   8.901  47.240  1.00  0.00     0.021 C 
HETATM   18  C19 UNL     1      33.357   8.860  46.276  1.00  0.00     0.025 C 
HETATM   19  C20 UNL     1      33.953   9.960  45.526  1.00  0.00    -0.001 C 
HETATM   20  C21 UNL     1      33.474  11.097  45.999  1.00  0.00    -0.007 C 
HETATM   21  C22 UNL     1      32.513  11.268  47.131  1.00  0.00     0.151 C 
HETATM   22  N4  UNL     1      31.694  10.144  47.471  1.00  0.00    -0.367 N 
HETATM   23  H20 UNL     1      27.273   7.949  47.259  1.00  0.00     0.316 HD
HETATM   24  H26 UNL     1      33.938   4.695  48.475  1.00  0.00     0.162 HD
ENDROOT
BRANCH   3  25
HETATM   25  N1  UNL     1      30.149   9.752  45.276  1.00  0.00     0.087 N 
HETATM   26  C6  UNL     1      29.438   9.515  44.009  1.00  0.00     0.307 C 
HETATM   27  H9  UNL     1      30.419   8.791  45.566  1.00  0.00     0.316 HD
ENDBRANCH   3  25
BRANCH   4  28
HETATM   28  O1  UNL     1      28.168  10.954  48.081  1.00  0.00    -0.378 OA
HETATM   29  C8  UNL     1      26.910  10.828  47.668  1.00  0.00     0.202 C 
ENDBRANCH   4  28
BRANCH   1  30
HETATM   30  C2  UNL     1      30.413  11.369  49.192  1.00  0.00     0.030 C 
HETATM   31  C1  UNL     1      30.424  12.862  49.242  1.00  0.00     0.007 C 
ENDBRANCH   1  30
TORSDOF 3
ENDMDL
MODEL 7
REMARK VINA RESULT:      -6.1      6.799     10.825
REMARK  3 active torsions:
REMARK  status: ('A' for Active; 'I' for Inactive)
REMARK    1  A    between atoms: C2_2  and  C3_3 
REMARK    2  A    between atoms: C5_5  and  N1_6 
REMARK    3  A    between atoms: C7_8  and  O1_9 
ROOT
HETATM    1  C3  UNL     1      30.587  10.925  47.153  1.00  0.00     0.070 C 
HETATM    2  C4  UNL     1      30.961  11.662  45.817  1.00  0.00     0.073 C 
HETATM    3  C5  UNL     1      29.577  11.094  45.337  1.00  0.00     0.261 C 
HETATM    4  C7  UNL     1      29.185  11.369  46.716  1.00  0.00     0.146 C 
HETATM    5  C9  UNL     1      28.043  10.888  47.455  1.00  0.00     0.256 C 
HETATM    6  C10 UNL     1      27.513  11.896  48.513  1.00  0.00     0.046 C 
HETATM    7  N2  UNL     1      26.870  10.501  46.749  1.00  0.00     0.094 N 
HETATM    8  C11 UNL     1      25.902   9.824  47.564  1.00  0.00     0.298 C 
HETATM    9  C12 UNL     1      26.228   8.433  47.936  1.00  0.00     0.007 C 
HETATM   10  C13 UNL     1      26.978   7.357  47.895  1.00  0.00    -0.063 C 
HETATM   11  C14 UNL     1      26.932   5.975  48.516  1.00  0.00     0.156 C 
HETATM   12  N3  UNL     1      28.306   5.579  48.862  1.00  0.00    -0.356 N 
HETATM   13  C15 UNL     1      29.553   6.193  48.437  1.00  0.00     0.228 C 
HETATM   14  O2  UNL     1      30.537   5.407  48.610  1.00  0.00    -0.273 OA
HETATM   15  C16 UNL     1      29.328   7.599  47.906  1.00  0.00     0.131 C 
HETATM   16  C17 UNL     1      28.151   7.482  46.993  1.00  0.00     0.056 C 
HETATM   17  C18 UNL     1      30.529   8.177  47.295  1.00  0.00     0.021 C 
HETATM   18  C19 UNL     1      31.125   7.231  46.582  1.00  0.00     0.025 C 
HETATM   19  C20 UNL     1      32.370   7.298  45.824  1.00  0.00    -0.001 C 
HETATM   20  C21 UNL     1      32.899   8.496  45.991  1.00  0.00    -0.007 C 
HETATM   21  C22 UNL     1      32.362   9.608  46.833  1.00  0.00     0.151 C 
HETATM   22  N4  UNL     1      30.966   9.575  47.150  1.00  0.00    -0.367 N 
HETATM   23  H20 UNL     1      26.420  11.302  46.286  1.00  0.00     0.316 HD
HETATM   24  H26 UNL     1      28.294   4.763  49.481  1.00  0.00     0.162 HD
ENDROOT
BRANCH   3  25
HETATM   25  N1  UNL     1      29.728   9.836  44.752  1.00  0.00     0.087 N 
HETATM   26  C6  UNL     1      28.755   9.689  43.657  1.00  0.00     0.307 C 
HETATM   27  H9  UNL     1      29.455   9.070  45.399  1.00  0.00     0.316 HD
ENDBRANCH   3  25
BRANCH   4  28
HETATM   28  O1  UNL     1      29.248  12.798  46.808  1.00  0.00    -0.378 OA
HETATM   29  C8  UNL     1      28.349  13.511  46.134  1.00  0.00     0.202 C 
ENDBRANCH   4  28
BRANCH   1  30
HETATM   30  C2  UNL     1      30.997  11.751  48.321  1.00  0.00     0.030 C 
HETATM   31  C1  UNL     1      30.887  11.143  49.681  1.00  0.00     0.007 C 
ENDBRANCH   1  30
TORSDOF 3
ENDMDL
MODEL 8
REMARK VINA RESULT:      -6.0      9.710     13.157
REMARK  3 active torsions:
REMARK  status: ('A' for Active; 'I' for Inactive)
REMARK    1  A    between atoms: C2_2  and  C3_3 
REMARK    2  A    between atoms: C5_5  and  N1_6 
REMARK    3  A    between atoms: C7_8  and  O1_9 
ROOT
HETATM    1  C3  UNL     1      33.224   8.330  47.692  1.00  0.00     0.070 C 
HETATM    2  C4  UNL     1      31.929   8.857  48.409  1.00  0.00     0.073 C 
HETATM    3  C5  UNL     1      31.235   7.715  47.582  1.00  0.00     0.261 C 
HETATM    4  C7  UNL     1      32.477   7.001  47.861  1.00  0.00     0.146 C 
HETATM    5  C9  UNL     1      33.013   5.820  47.230  1.00  0.00     0.256 C 
HETATM    6  C10 UNL     1      33.849   4.923  48.187  1.00  0.00     0.046 C 
HETATM    7  N2  UNL     1      32.125   4.900  46.605  1.00  0.00     0.094 N 
HETATM    8  C11 UNL     1      32.789   3.901  45.816  1.00  0.00     0.298 C 
HETATM    9  C12 UNL     1      33.343   4.358  44.527  1.00  0.00     0.007 C 
HETATM   10  C13 UNL     1      33.549   5.262  43.597  1.00  0.00    -0.063 C 
HETATM   11  C14 UNL     1      34.272   5.305  42.264  1.00  0.00     0.156 C 
HETATM   12  N3  UNL     1      34.920   6.619  42.134  1.00  0.00    -0.356 N 
HETATM   13  C15 UNL     1      34.698   7.814  42.932  1.00  0.00     0.228 C 
HETATM   14  O2  UNL     1      35.135   8.851  42.340  1.00  0.00    -0.273 OA
HETATM   15  C16 UNL     1      34.008   7.487  44.245  1.00  0.00     0.131 C 
HETATM   16  C17 UNL     1      32.892   6.564  43.874  1.00  0.00     0.056 C 
HETATM   17  C18 UNL     1      33.599   8.682  44.989  1.00  0.00     0.021 C 
HETATM   18  C19 UNL     1      33.109   9.559  44.124  1.00  0.00     0.025 C 
HETATM   19  C20 UNL     1      32.612  10.909  44.364  1.00  0.00    -0.001 C 
HETATM   20  C21 UNL     1      32.772  11.193  45.644  1.00  0.00    -0.007 C 
HETATM   21  C22 UNL     1      33.386  10.320  46.690  1.00  0.00     0.151 C 
HETATM   22  N4  UNL     1      33.419   8.912  46.432  1.00  0.00    -0.367 N 
HETATM   23  H20 UNL     1      31.512   4.436  47.289  1.00  0.00     0.316 HD
HETATM   24  H26 UNL     1      35.595   6.606  41.364  1.00  0.00     0.162 HD
ENDROOT
BRANCH   3  25
HETATM   25  N1  UNL     1      30.808   8.185  46.339  1.00  0.00     0.087 N 
HETATM   26  C6  UNL     1      29.356   7.980  46.215  1.00  0.00     0.307 C 
HETATM   27  H9  UNL     1      31.183   7.614  45.556  1.00  0.00     0.316 HD
ENDBRANCH   3  25
BRANCH   4  28
HETATM   28  O1  UNL     1      32.451   6.815  49.282  1.00  0.00    -0.378 OA
HETATM   29  C8  UNL     1      31.667   5.859  49.775  1.00  0.00     0.202 C 
ENDBRANCH   4  28
BRANCH   1  30
HETATM   30  C2  UNL     1      34.371   8.347  48.641  1.00  0.00     0.030 C 
HETATM   31  C1  UNL     1      35.738   8.111  48.089  1.00  0.00     0.007 C 
ENDBRANCH   1  30
TORSDOF 3
ENDMDL
MODEL 9
REMARK VINA RESULT:      -5.9     10.148     12.414
REMARK  3 active torsions:
REMARK  status: ('A' for Active; 'I' for Inactive)
REMARK    1  A    between atoms: C2_2  and  C3_3 
REMARK    2  A    between atoms: C5_5  and  N1_6 
REMARK    3  A    between atoms: C7_8  and  O1_9 
ROOT
HETATM    1  C3  UNL     1      33.127   9.287  44.589  1.00  0.00     0.070 C 
HETATM    2  C4  UNL     1      32.250   9.637  43.332  1.00  0.00     0.073 C 
HETATM    3  C5  UNL     1      31.065   9.487  44.352  1.00  0.00     0.261 C 
HETATM    4  C7  UNL     1      32.018  10.093  45.278  1.00  0.00     0.146 C 
HETATM    5  C9  UNL     1      31.989  10.140  46.719  1.00  0.00     0.256 C 
HETATM    6  C10 UNL     1      32.634  11.422  47.317  1.00  0.00     0.046 C 
HETATM    7  N2  UNL     1      30.738  10.053  47.393  1.00  0.00     0.094 N 
HETATM    8  C11 UNL     1      30.858   9.872  48.813  1.00  0.00     0.298 C 
HETATM    9  C12 UNL     1      31.278   8.531  49.261  1.00  0.00     0.007 C 
HETATM   10  C13 UNL     1      31.599   7.275  49.051  1.00  0.00    -0.063 C 
HETATM   11  C14 UNL     1      32.025   6.103  49.915  1.00  0.00     0.156 C 
HETATM   12  N3  UNL     1      33.045   5.338  49.181  1.00  0.00    -0.356 N 
HETATM   13  C15 UNL     1      33.400   5.430  47.775  1.00  0.00     0.228 C 
HETATM   14  O2  UNL     1      34.043   4.402  47.393  1.00  0.00    -0.273 OA
HETATM   15  C16 UNL     1      32.904   6.727  47.159  1.00  0.00     0.131 C 
HETATM   16  C17 UNL     1      31.491   6.860  47.629  1.00  0.00     0.056 C 
HETATM   17  C18 UNL     1      33.077   6.772  45.704  1.00  0.00     0.021 C 
HETATM   18  C19 UNL     1      32.759   5.582  45.214  1.00  0.00     0.025 C 
HETATM   19  C20 UNL     1      32.808   5.112  43.834  1.00  0.00    -0.001 C 
HETATM   20  C21 UNL     1      33.297   6.080  43.079  1.00  0.00    -0.007 C 
HETATM   21  C22 UNL     1      33.763   7.426  43.531  1.00  0.00     0.151 C 
HETATM   22  N4  UNL     1      33.264   7.906  44.784  1.00  0.00    -0.367 N 
HETATM   23  H20 UNL     1      30.145  10.873  47.207  1.00  0.00     0.316 HD
HETATM   24  H26 UNL     1      33.515   4.681  49.811  1.00  0.00     0.162 HD
ENDROOT
BRANCH   3  25
HETATM   25  N1  UNL     1      30.595   8.173  44.386  1.00  0.00     0.087 N 
HETATM   26  C6  UNL     1      29.226   8.160  44.926  1.00  0.00     0.307 C 
HETATM   27  H9  UNL     1      31.113   7.591  45.073  1.00  0.00     0.316 HD
ENDBRANCH   3  25
BRANCH   4  28
HETATM   28  O1  UNL     1      32.201  11.417  44.760  1.00  0.00    -0.378 OA
HETATM   29  C8  UNL     1      31.204  12.287  44.896  1.00  0.00     0.202 C 
ENDBRANCH   4  28
BRANCH   1  30
HETATM   30  C2  UNL     1      34.369  10.108  44.585  1.00  0.00     0.030 C 
HETATM   31  C1  UNL     1      35.545   9.598  45.351  1.00  0.00     0.007 C 
ENDBRANCH   1  30
TORSDOF 3
ENDMDL
