MODEL 1
REMARK VINA RESULT:      -7.4      0.000      0.000
REMARK  4 active torsions:
REMARK  status: ('A' for Active; 'I' for Inactive)
REMARK    1  A    between atoms: C3_3  and  C4_4 
REMARK       I    between atoms: C4_4  and  N1_6 
REMARK    2  A    between atoms: N1_6  and  N2_7 
REMARK    3  A    between atoms: C10_15  and  C11_16 
REMARK    4  A    between atoms: C12_17  and  C13_18 
ROOT
HETATM    1  C1  UNL     1      20.075  -0.868  53.810  1.00  0.00     0.112 C 
HETATM    2  C2  UNL     1      21.542  -0.817  53.773  1.00  0.00    -0.101 C 
HETATM    3  C3  UNL     1      22.746  -0.758  53.746  1.00  0.00    -0.004 C 
ENDROOT
BRANCH   3   4
HETATM    4  C4  UNL     1      24.203  -0.689  53.688  1.00  0.00     0.315 C 
HETATM    5  O1  UNL     1      24.917  -0.989  54.690  1.00  0.00    -0.256 OA
HETATM    6  N1  UNL     1      24.909  -0.276  52.485  1.00  0.00    -0.252 N 
HETATM    7  H4  UNL     1      24.327   0.005  51.633  1.00  0.00     0.191 HD
BRANCH   6   8
HETATM    8  N2  UNL     1      26.251  -0.345  52.839  1.00  0.00    -0.260 N 
HETATM    9  C5  UNL     1      26.664  -1.723  52.687  1.00  0.00     0.117 A 
HETATM   10  C6  UNL     1      27.905  -2.121  52.929  1.00  0.00     0.022 A 
HETATM   11  C7  UNL     1      28.855  -1.094  53.361  1.00  0.00     0.035 A 
HETATM   12  C8  UNL     1      28.549   0.166  53.517  1.00  0.00     0.089 A 
HETATM   13  N3  UNL     1      29.497   1.108  53.933  1.00  0.00    -0.242 NA
HETATM   14  C14 UNL     1      27.201   0.601  53.257  1.00  0.00     0.111 A 
HETATM   15  C9  UNL     1      29.132   2.341  54.072  1.00  0.00     0.208 A 
HETATM   16  N4  UNL     1      27.790   2.702  53.804  1.00  0.00    -0.349 N 
HETATM   17  C10 UNL     1      26.772   1.821  53.384  1.00  0.00     0.064 A 
HETATM   18  H9  UNL     1      27.703   3.701  53.973  1.00  0.00     0.167 HD
BRANCH  17  19
HETATM   19  C11 UNL     1      25.439   2.257  53.194  1.00  0.00     0.029 C 
HETATM   20  C12 UNL     1      24.740   2.949  52.331  1.00  0.00    -0.009 C 
BRANCH  20  21
HETATM   21  C13 UNL     1      24.922   3.665  51.073  1.00  0.00     0.142 C 
HETATM   22 CL1  UNL     1      26.280   2.983  50.102  1.00  0.00    -0.126 Cl
ENDBRANCH  20  21
ENDBRANCH  17  19
ENDBRANCH   6   8
ENDBRANCH   3   4
TORSDOF 4
ENDMDL
MODEL 2
REMARK VINA RESULT:      -7.1      3.087      6.565
REMARK  4 active torsions:
REMARK  status: ('A' for Active; 'I' for Inactive)
REMARK    1  A    between atoms: C3_3  and  C4_4 
REMARK       I    between atoms: C4_4  and  N1_6 
REMARK    2  A    between atoms: N1_6  and  N2_7 
REMARK    3  A    between atoms: C10_15  and  C11_16 
REMARK    4  A    between atoms: C12_17  and  C13_18 
ROOT
HETATM    1  C1  UNL     1      27.915   5.056  48.494  1.00  0.00     0.112 C 
HETATM    2  C2  UNL     1      26.782   4.479  49.229  1.00  0.00    -0.101 C 
HETATM    3  C3  UNL     1      25.844   4.002  49.817  1.00  0.00    -0.004 C 
ENDROOT
BRANCH   3   4
HETATM    4  C4  UNL     1      24.701   3.448  50.537  1.00  0.00     0.315 C 
HETATM    5  O1  UNL     1      23.747   2.885  49.924  1.00  0.00    -0.256 OA
HETATM    6  N1  UNL     1      24.597   3.511  51.986  1.00  0.00    -0.252 N 
HETATM    7  H4  UNL     1      25.379   4.003  52.524  1.00  0.00     0.191 HD
BRANCH   6   8
HETATM    8  N2  UNL     1      23.388   2.886  52.268  1.00  0.00    -0.260 N 
HETATM    9  C5  UNL     1      22.342   3.865  52.067  1.00  0.00     0.117 A 
HETATM   10  C6  UNL     1      21.059   3.574  52.236  1.00  0.00     0.022 A 
HETATM   11  C7  UNL     1      20.741   2.203  52.638  1.00  0.00     0.035 A 
HETATM   12  C8  UNL     1      21.635   1.272  52.835  1.00  0.00     0.089 A 
HETATM   13  N3  UNL     1      21.275  -0.026  53.219  1.00  0.00    -0.242 NA
HETATM   14  C14 UNL     1      23.029   1.585  52.655  1.00  0.00     0.111 A 
HETATM   15  C9  UNL     1      22.208  -0.902  53.403  1.00  0.00     0.208 A 
HETATM   16  N4  UNL     1      23.559  -0.529  53.212  1.00  0.00    -0.349 N 
HETATM   17  C10 UNL     1      24.011   0.750  52.828  1.00  0.00     0.064 A 
HETATM   18  H9  UNL     1      24.133  -1.347  53.405  1.00  0.00     0.167 HD
BRANCH  17  19
HETATM   19  C11 UNL     1      25.388   1.054  52.717  1.00  0.00     0.029 C 
HETATM   20  C12 UNL     1      26.533   0.426  52.625  1.00  0.00    -0.009 C 
BRANCH  20  21
HETATM   21  C13 UNL     1      27.054  -0.936  52.579  1.00  0.00     0.142 C 
HETATM   22 CL1  UNL     1      28.705  -1.048  53.295  1.00  0.00    -0.126 Cl
ENDBRANCH  20  21
ENDBRANCH  17  19
ENDBRANCH   6   8
ENDBRANCH   3   4
TORSDOF 4
ENDMDL
MODEL 3
REMARK VINA RESULT:      -6.9      2.866      5.989
REMARK  4 active torsions:
REMARK  status: ('A' for Active; 'I' for Inactive)
REMARK    1  A    between atoms: C3_3  and  C4_4 
REMARK       I    between atoms: C4_4  and  N1_6 
REMARK    2  A    between atoms: N1_6  and  N2_7 
REMARK    3  A    between atoms: C10_15  and  C11_16 
REMARK    4  A    between atoms: C12_17  and  C13_18 
ROOT
HETATM    1  C1  UNL     1      26.192   5.323  49.085  1.00  0.00     0.112 C 
HETATM    2  C2  UNL     1      25.350   4.464  49.928  1.00  0.00    -0.101 C 
HETATM    3  C3  UNL     1      24.666   3.767  50.635  1.00  0.00    -0.004 C 
ENDROOT
BRANCH   3   4
HETATM    4  C4  UNL     1      23.851   2.902  51.483  1.00  0.00     0.315 C 
HETATM    5  O1  UNL     1      23.378   3.315  52.582  1.00  0.00    -0.256 OA
HETATM    6  N1  UNL     1      23.542   1.529  51.114  1.00  0.00    -0.252 N 
HETATM    7  H4  UNL     1      23.950   1.151  50.201  1.00  0.00     0.191 HD
BRANCH   6   8
HETATM    8  N2  UNL     1      22.762   1.063  52.166  1.00  0.00    -0.260 N 
HETATM    9  C5  UNL     1      21.418   1.553  51.952  1.00  0.00     0.117 A 
HETATM   10  C6  UNL     1      20.420   1.265  52.776  1.00  0.00     0.022 A 
HETATM   11  C7  UNL     1      20.738   0.418  53.927  1.00  0.00     0.035 A 
HETATM   12  C8  UNL     1      21.928  -0.058  54.178  1.00  0.00     0.089 A 
HETATM   13  N3  UNL     1      22.179  -0.865  55.295  1.00  0.00    -0.242 NA
HETATM   14  C14 UNL     1      23.015   0.255  53.286  1.00  0.00     0.111 A 
HETATM   15  C9  UNL     1      23.380  -1.303  55.490  1.00  0.00     0.208 A 
HETATM   16  N4  UNL     1      24.403  -0.955  54.577  1.00  0.00    -0.349 N 
HETATM   17  C10 UNL     1      24.242  -0.149  53.431  1.00  0.00     0.064 A 
HETATM   18  H9  UNL     1      25.264  -1.389  54.903  1.00  0.00     0.167 HD
BRANCH  17  19
HETATM   19  C11 UNL     1      25.334   0.197  52.602  1.00  0.00     0.029 C 
HETATM   20  C12 UNL     1      26.615  -0.053  52.501  1.00  0.00    -0.009 C 
BRANCH  20  21
HETATM   21  C13 UNL     1      27.653  -0.828  53.173  1.00  0.00     0.142 C 
HETATM   22 CL1  UNL     1      28.187  -0.046  54.707  1.00  0.00    -0.126 Cl
ENDBRANCH  20  21
ENDBRANCH  17  19
ENDBRANCH   6   8
ENDBRANCH   3   4
TORSDOF 4
ENDMDL
MODEL 4
REMARK VINA RESULT:      -6.9      2.042      5.362
REMARK  4 active torsions:
REMARK  status: ('A' for Active; 'I' for Inactive)
REMARK    1  A    between atoms: C3_3  and  C4_4 
REMARK       I    between atoms: C4_4  and  N1_6 
REMARK    2  A    between atoms: N1_6  and  N2_7 
REMARK    3  A    between atoms: C10_15  and  C11_16 
REMARK    4  A    between atoms: C12_17  and  C13_18 
ROOT
HETATM    1  C1  UNL     1      30.337  -0.524  53.783  1.00  0.00     0.112 C 
HETATM    2  C2  UNL     1      28.883  -0.481  53.582  1.00  0.00    -0.101 C 
HETATM    3  C3  UNL     1      27.687  -0.437  53.434  1.00  0.00    -0.004 C 
ENDROOT
BRANCH   3   4
HETATM    4  C4  UNL     1      26.238  -0.410  53.257  1.00  0.00     0.315 C 
HETATM    5  O1  UNL     1      25.629  -1.347  52.663  1.00  0.00    -0.256 OA
HETATM    6  N1  UNL     1      25.422   0.689  53.751  1.00  0.00    -0.252 N 
HETATM    7  H4  UNL     1      25.916   1.503  54.236  1.00  0.00     0.191 HD
BRANCH   6   8
HETATM    8  N2  UNL     1      24.127   0.339  53.388  1.00  0.00    -0.260 N 
HETATM    9  C5  UNL     1      23.635  -0.581  54.390  1.00  0.00     0.117 A 
HETATM   10  C6  UNL     1      22.411  -1.091  54.344  1.00  0.00     0.022 A 
HETATM   11  C7  UNL     1      21.567  -0.677  53.222  1.00  0.00     0.035 A 
HETATM   12  C8  UNL     1      21.948   0.148  52.284  1.00  0.00     0.089 A 
HETATM   13  N3  UNL     1      21.099   0.511  51.232  1.00  0.00    -0.242 NA
HETATM   14  C14 UNL     1      23.277   0.702  52.331  1.00  0.00     0.111 A 
HETATM   15  C9  UNL     1      21.536   1.331  50.332  1.00  0.00     0.208 A 
HETATM   16  N4  UNL     1      22.854   1.835  50.435  1.00  0.00    -0.349 N 
HETATM   17  C10 UNL     1      23.775   1.524  51.456  1.00  0.00     0.064 A 
HETATM   18  H9  UNL     1      23.008   2.453  49.641  1.00  0.00     0.167 HD
BRANCH  17  19
HETATM   19  C11 UNL     1      25.096   2.029  51.449  1.00  0.00     0.029 C 
HETATM   20  C12 UNL     1      25.782   2.992  50.888  1.00  0.00    -0.009 C 
BRANCH  20  21
HETATM   21  C13 UNL     1      25.589   4.097  49.955  1.00  0.00     0.142 C 
HETATM   22 CL1  UNL     1      27.076   4.428  48.990  1.00  0.00    -0.126 Cl
ENDBRANCH  20  21
ENDBRANCH  17  19
ENDBRANCH   6   8
ENDBRANCH   3   4
TORSDOF 4
ENDMDL
MODEL 5
REMARK VINA RESULT:      -6.5      3.411      6.518
REMARK  4 active torsions:
REMARK  status: ('A' for Active; 'I' for Inactive)
REMARK    1  A    between atoms: C3_3  and  C4_4 
REMARK       I    between atoms: C4_4  and  N1_6 
REMARK    2  A    between atoms: N1_6  and  N2_7 
REMARK    3  A    between atoms: C10_15  and  C11_16 
REMARK    4  A    between atoms: C12_17  and  C13_18 
ROOT
HETATM    1  C1  UNL     1      21.836   6.996  50.436  1.00  0.00     0.112 C 
HETATM    2  C2  UNL     1      21.508   5.661  50.952  1.00  0.00    -0.101 C 
HETATM    3  C3  UNL     1      21.228   4.572  51.389  1.00  0.00    -0.004 C 
ENDROOT
BRANCH   3   4
HETATM    4  C4  UNL     1      20.914   3.251  51.926  1.00  0.00     0.315 C 
HETATM    5  O1  UNL     1      20.259   3.116  53.001  1.00  0.00    -0.256 OA
HETATM    6  N1  UNL     1      21.334   2.028  51.260  1.00  0.00    -0.252 N 
HETATM    7  H4  UNL     1      21.909   2.117  50.363  1.00  0.00     0.191 HD
BRANCH   6   8
HETATM    8  N2  UNL     1      20.847   1.013  52.075  1.00  0.00    -0.260 N 
HETATM    9  C5  UNL     1      19.447   0.841  51.753  1.00  0.00     0.117 A 
HETATM   10  C6  UNL     1      18.691  -0.072  52.348  1.00  0.00     0.022 A 
HETATM   11  C7  UNL     1      19.341  -0.912  53.356  1.00  0.00     0.035 A 
HETATM   12  C8  UNL     1      20.599  -0.809  53.693  1.00  0.00     0.089 A 
HETATM   13  N3  UNL     1      21.171  -1.639  54.665  1.00  0.00    -0.242 NA
HETATM   14  C14 UNL     1      21.421   0.183  53.051  1.00  0.00     0.111 A 
HETATM   15  C9  UNL     1      22.421  -1.485  54.957  1.00  0.00     0.208 A 
HETATM   16  N4  UNL     1      23.173  -0.488  54.291  1.00  0.00    -0.349 N 
HETATM   17  C10 UNL     1      22.680   0.389  53.304  1.00  0.00     0.064 A 
HETATM   18  H9  UNL     1      24.121  -0.525  54.659  1.00  0.00     0.167 HD
BRANCH  17  19
HETATM   19  C11 UNL     1      23.489   1.398  52.731  1.00  0.00     0.029 C 
HETATM   20  C12 UNL     1      24.735   1.581  52.374  1.00  0.00    -0.009 C 
BRANCH  20  21
HETATM   21  C13 UNL     1      26.003   0.861  52.358  1.00  0.00     0.142 C 
HETATM   22 CL1  UNL     1      26.551   0.428  54.021  1.00  0.00    -0.126 Cl
ENDBRANCH  20  21
ENDBRANCH  17  19
ENDBRANCH   6   8
ENDBRANCH   3   4
TORSDOF 4
ENDMDL
MODEL 6
REMARK VINA RESULT:      -6.5      3.431      6.723
REMARK  4 active torsions:
REMARK  status: ('A' for Active; 'I' for Inactive)
REMARK    1  A    between atoms: C3_3  and  C4_4 
REMARK       I    between atoms: C4_4  and  N1_6 
REMARK    2  A    between atoms: N1_6  and  N2_7 
REMARK    3  A    between atoms: C10_15  and  C11_16 
REMARK    4  A    between atoms: C12_17  and  C13_18 
ROOT
HETATM    1  C1  UNL     1      29.349   1.527  54.435  1.00  0.00     0.112 C 
HETATM    2  C2  UNL     1      28.299   1.908  53.481  1.00  0.00    -0.101 C 
HETATM    3  C3  UNL     1      27.426   2.210  52.707  1.00  0.00    -0.004 C 
ENDROOT
BRANCH   3   4
HETATM    4  C4  UNL     1      26.380   2.562  51.751  1.00  0.00     0.315 C 
HETATM    5  O1  UNL     1      26.521   2.348  50.512  1.00  0.00    -0.256 OA
HETATM    6  N1  UNL     1      25.128   3.174  52.169  1.00  0.00    -0.252 N 
HETATM    7  H4  UNL     1      24.995   3.386  53.208  1.00  0.00     0.191 HD
BRANCH   6   8
HETATM    8  N2  UNL     1      24.422   3.346  50.983  1.00  0.00    -0.260 N 
HETATM    9  C5  UNL     1      24.952   4.527  50.338  1.00  0.00     0.117 A 
HETATM   10  C6  UNL     1      24.501   4.956  49.166  1.00  0.00     0.022 A 
HETATM   11  C7  UNL     1      23.432   4.172  48.544  1.00  0.00     0.035 A 
HETATM   12  C8  UNL     1      22.910   3.097  49.072  1.00  0.00     0.089 A 
HETATM   13  N3  UNL     1      21.888   2.384  48.434  1.00  0.00    -0.242 NA
HETATM   14  C14 UNL     1      23.396   2.631  50.345  1.00  0.00     0.111 A 
HETATM   15  C9  UNL     1      21.411   1.329  49.010  1.00  0.00     0.208 A 
HETATM   16  N4  UNL     1      21.930   0.927  50.263  1.00  0.00    -0.349 N 
HETATM   17  C10 UNL     1      22.955   1.583  50.976  1.00  0.00     0.064 A 
HETATM   18  H9  UNL     1      21.429   0.088  50.547  1.00  0.00     0.167 HD
BRANCH  17  19
HETATM   19  C11 UNL     1      23.374   1.145  52.254  1.00  0.00     0.029 C 
HETATM   20  C12 UNL     1      22.857   0.631  53.341  1.00  0.00    -0.009 C 
BRANCH  20  21
HETATM   21  C13 UNL     1      21.561   0.212  53.864  1.00  0.00     0.142 C 
HETATM   22 CL1  UNL     1      21.441  -1.582  54.003  1.00  0.00    -0.126 Cl
ENDBRANCH  20  21
ENDBRANCH  17  19
ENDBRANCH   6   8
ENDBRANCH   3   4
TORSDOF 4
ENDMDL
MODEL 7
REMARK VINA RESULT:      -6.4      2.958      5.160
REMARK  4 active torsions:
REMARK  status: ('A' for Active; 'I' for Inactive)
REMARK    1  A    between atoms: C3_3  and  C4_4 
REMARK       I    between atoms: C4_4  and  N1_6 
REMARK    2  A    between atoms: N1_6  and  N2_7 
REMARK    3  A    between atoms: C10_15  and  C11_16 
REMARK    4  A    between atoms: C12_17  and  C13_18 
ROOT
HETATM    1  C1  UNL     1      21.606  -1.662  54.531  1.00  0.00     0.112 C 
HETATM    2  C2  UNL     1      22.054  -0.447  53.838  1.00  0.00    -0.101 C 
HETATM    3  C3  UNL     1      22.416   0.543  53.254  1.00  0.00    -0.004 C 
ENDROOT
BRANCH   3   4
HETATM    4  C4  UNL     1      22.879   1.736  52.550  1.00  0.00     0.315 C 
HETATM    5  O1  UNL     1      22.365   2.092  51.450  1.00  0.00    -0.256 OA
HETATM    6  N1  UNL     1      23.948   2.573  53.072  1.00  0.00    -0.252 N 
HETATM    7  H4  UNL     1      24.414   2.279  53.989  1.00  0.00     0.191 HD
BRANCH   6   8
HETATM    8  N2  UNL     1      24.082   3.582  52.126  1.00  0.00    -0.260 N 
HETATM    9  C5  UNL     1      23.015   4.530  52.358  1.00  0.00     0.117 A 
HETATM   10  C6  UNL     1      22.874   5.629  51.628  1.00  0.00     0.022 A 
HETATM   11  C7  UNL     1      23.857   5.846  50.565  1.00  0.00     0.035 A 
HETATM   12  C8  UNL     1      24.843   5.031  50.303  1.00  0.00     0.089 A 
HETATM   13  N3  UNL     1      25.757   5.286  49.274  1.00  0.00    -0.242 NA
HETATM   14  C14 UNL     1      24.998   3.836  51.092  1.00  0.00     0.111 A 
HETATM   15  C9  UNL     1      26.710   4.439  49.062  1.00  0.00     0.208 A 
HETATM   16  N4  UNL     1      26.803   3.282  49.871  1.00  0.00    -0.349 N 
HETATM   17  C10 UNL     1      25.930   2.945  50.925  1.00  0.00     0.064 A 
HETATM   18  H9  UNL     1      27.607   2.748  49.549  1.00  0.00     0.167 HD
BRANCH  17  19
HETATM   19  C11 UNL     1      26.062   1.736  51.647  1.00  0.00     0.029 C 
HETATM   20  C12 UNL     1      26.897   1.170  52.482  1.00  0.00    -0.009 C 
BRANCH  20  21
HETATM   21  C13 UNL     1      28.163   1.453  53.150  1.00  0.00     0.142 C 
HETATM   22 CL1  UNL     1      29.054  -0.059  53.566  1.00  0.00    -0.126 Cl
ENDBRANCH  20  21
ENDBRANCH  17  19
ENDBRANCH   6   8
ENDBRANCH   3   4
TORSDOF 4
ENDMDL
MODEL 8
REMARK VINA RESULT:      -6.4      3.039      6.335
REMARK  4 active torsions:
REMARK  status: ('A' for Active; 'I' for Inactive)
REMARK    1  A    between atoms: C3_3  and  C4_4 
REMARK       I    between atoms: C4_4  and  N1_6 
REMARK    2  A    between atoms: N1_6  and  N2_7 
REMARK    3  A    between atoms: C10_15  and  C11_16 
REMARK    4  A    between atoms: C12_17  and  C13_18 
ROOT
HETATM    1  C1  UNL     1      29.524  -0.609  53.941  1.00  0.00     0.112 C 
HETATM    2  C2  UNL     1      28.387   0.222  53.525  1.00  0.00    -0.101 C 
HETATM    3  C3  UNL     1      27.447   0.903  53.199  1.00  0.00    -0.004 C 
ENDROOT
BRANCH   3   4
HETATM    4  C4  UNL     1      26.300   1.709  52.790  1.00  0.00     0.315 C 
HETATM    5  O1  UNL     1      25.967   2.751  53.427  1.00  0.00    -0.256 OA
HETATM    6  N1  UNL     1      25.485   1.360  51.637  1.00  0.00    -0.252 N 
HETATM    7  H4  UNL     1      25.733   0.472  51.097  1.00  0.00     0.191 HD
BRANCH   6   8
HETATM    8  N2  UNL     1      24.519   2.358  51.591  1.00  0.00    -0.260 N 
HETATM    9  C5  UNL     1      25.123   3.510  50.958  1.00  0.00     0.117 A 
HETATM   10  C6  UNL     1      24.451   4.633  50.743  1.00  0.00     0.022 A 
HETATM   11  C7  UNL     1      23.053   4.660  51.178  1.00  0.00     0.035 A 
HETATM   12  C8  UNL     1      22.448   3.657  51.755  1.00  0.00     0.089 A 
HETATM   13  N3  UNL     1      21.107   3.734  52.152  1.00  0.00    -0.242 NA
HETATM   14  C14 UNL     1      23.175   2.436  51.991  1.00  0.00     0.111 A 
HETATM   15  C9  UNL     1      20.565   2.708  52.721  1.00  0.00     0.208 A 
HETATM   16  N4  UNL     1      21.337   1.540  52.927  1.00  0.00    -0.349 N 
HETATM   17  C10 UNL     1      22.688   1.374  52.562  1.00  0.00     0.064 A 
HETATM   18  H9  UNL     1      20.739   0.856  53.385  1.00  0.00     0.167 HD
BRANCH  17  19
HETATM   19  C11 UNL     1      23.402   0.190  52.859  1.00  0.00     0.029 C 
HETATM   20  C12 UNL     1      23.357  -0.803  53.711  1.00  0.00    -0.009 C 
BRANCH  20  21
HETATM   21  C13 UNL     1      22.554  -1.264  54.839  1.00  0.00     0.142 C 
HETATM   22 CL1  UNL     1      20.869  -1.670  54.341  1.00  0.00    -0.126 Cl
ENDBRANCH  20  21
ENDBRANCH  17  19
ENDBRANCH   6   8
ENDBRANCH   3   4
TORSDOF 4
ENDMDL
MODEL 9
REMARK VINA RESULT:      -6.4      2.960      4.432
REMARK  4 active torsions:
REMARK  status: ('A' for Active; 'I' for Inactive)
REMARK    1  A    between atoms: C3_3  and  C4_4 
REMARK       I    between atoms: C4_4  and  N1_6 
REMARK    2  A    between atoms: N1_6  and  N2_7 
REMARK    3  A    between atoms: C10_15  and  C11_16 
REMARK    4  A    between atoms: C12_17  and  C13_18 
ROOT
HETATM    1  C1  UNL     1      19.210   2.904  48.053  1.00  0.00     0.112 C 
HETATM    2  C2  UNL     1      19.955   2.257  49.140  1.00  0.00    -0.101 C 
HETATM    3  C3  UNL     1      20.552   1.725  50.043  1.00  0.00    -0.004 C 
ENDROOT
BRANCH   3   4
HETATM    4  C4  UNL     1      21.287   1.103  51.140  1.00  0.00     0.315 C 
HETATM    5  O1  UNL     1      21.446  -0.151  51.198  1.00  0.00    -0.256 OA
HETATM    6  N1  UNL     1      21.871   1.885  52.218  1.00  0.00    -0.252 N 
HETATM    7  H4  UNL     1      21.730   2.945  52.203  1.00  0.00     0.191 HD
BRANCH   6   8
HETATM    8  N2  UNL     1      22.470   0.937  53.040  1.00  0.00    -0.260 N 
HETATM    9  C5  UNL     1      21.423   0.351  53.849  1.00  0.00     0.117 A 
HETATM   10  C6  UNL     1      21.665  -0.610  54.731  1.00  0.00     0.022 A 
HETATM   11  C7  UNL     1      23.053  -1.060  54.852  1.00  0.00     0.035 A 
HETATM   12  C8  UNL     1      24.044  -0.575  54.153  1.00  0.00     0.089 A 
HETATM   13  N3  UNL     1      25.354  -1.042  54.308  1.00  0.00    -0.242 NA
HETATM   14  C14 UNL     1      23.785   0.470  53.196  1.00  0.00     0.111 A 
HETATM   15  C9  UNL     1      26.292  -0.518  53.588  1.00  0.00     0.208 A 
HETATM   16  N4  UNL     1      25.971   0.508  52.669  1.00  0.00    -0.349 N 
HETATM   17  C10 UNL     1      24.683   1.039  52.449  1.00  0.00     0.064 A 
HETATM   18  H9  UNL     1      26.834   0.786  52.208  1.00  0.00     0.167 HD
BRANCH  17  19
HETATM   19  C11 UNL     1      24.461   2.108  51.550  1.00  0.00     0.029 C 
HETATM   20  C12 UNL     1      25.135   2.841  50.700  1.00  0.00    -0.009 C 
BRANCH  20  21
HETATM   21  C13 UNL     1      26.494   2.982  50.188  1.00  0.00     0.142 C 
HETATM   22 CL1  UNL     1      26.687   4.477  49.199  1.00  0.00    -0.126 Cl
ENDBRANCH  20  21
ENDBRANCH  17  19
ENDBRANCH   6   8
ENDBRANCH   3   4
TORSDOF 4
ENDMDL
