MODEL 1
REMARK VINA RESULT:      -8.7      0.000      0.000
REMARK  3 active torsions:
REMARK  status: ('A' for Active; 'I' for Inactive)
REMARK    1  A    between atoms: N1_2  and  C2_3 
REMARK    2  A    between atoms: C2_3  and  C3_5 
REMARK    3  A    between atoms: C13_16  and  N3_17 
ROOT
HETATM    1  C3  UNL     1      25.817   0.696  52.322  1.00  0.00     0.110 C 
HETATM    2  C4  UNL     1      24.918   0.016  53.250  1.00  0.00    -0.010 C 
HETATM    3  C5  UNL     1      24.932  -0.509  54.445  1.00  0.00    -0.003 C 
HETATM    4  C6  UNL     1      24.195  -1.192  55.489  1.00  0.00    -0.003 C 
HETATM    5  C7  UNL     1      22.912  -1.603  55.546  1.00  0.00    -0.013 C 
HETATM    6  C8  UNL     1      22.070  -1.343  54.387  1.00  0.00     0.023 A 
HETATM    7  C9  UNL     1      21.501  -1.603  53.195  1.00  0.00     0.046 A 
HETATM    8  C10 UNL     1      21.153  -0.291  53.713  1.00  0.00     0.083 A 
HETATM    9  C11 UNL     1      21.698  -0.026  54.885  1.00  0.00     0.046 A 
HETATM   10  O1  UNL     1      20.353   0.007  52.569  1.00  0.00    -0.376 OA
HETATM   11  C12 UNL     1      20.294   1.383  52.176  1.00  0.00     0.204 C 
HETATM   12  C13 UNL     1      21.687   1.949  52.004  1.00  0.00     0.245 C 
HETATM   13  C14 UNL     1      22.558   1.248  51.025  1.00  0.00     0.076 C 
HETATM   14  C15 UNL     1      23.886   1.958  50.976  1.00  0.00    -0.049 A 
HETATM   15  C16 UNL     1      23.719   3.117  50.197  1.00  0.00     0.007 A 
HETATM   16  C17 UNL     1      24.670   4.086  49.879  1.00  0.00     0.001 A 
HETATM   17  C18 UNL     1      25.926   3.874  50.398  1.00  0.00     0.001 A 
HETATM   18  C19 UNL     1      26.077   2.731  51.161  1.00  0.00     0.009 A 
HETATM   19  C20 UNL     1      25.171   1.729  51.513  1.00  0.00    -0.037 A 
ENDROOT
BRANCH   1  20
HETATM   20  C2  UNL     1      26.908   1.326  53.154  1.00  0.00     0.103 C 
HETATM   21  N2  UNL     1      26.622   2.375  53.861  1.00  0.00    -0.287 NA
HETATM   22  H5  UNL     1      25.656   2.765  53.852  1.00  0.00     0.188 HD
BRANCH  20  23
HETATM   23  N1  UNL     1      28.280   0.893  53.257  1.00  0.00    -0.382 N 
HETATM   24  C1  UNL     1      28.739   0.121  54.369  1.00  0.00     0.147 C 
HETATM   25  H4  UNL     1      28.879   1.196  52.454  1.00  0.00     0.160 HD
ENDBRANCH  20  23
ENDBRANCH   1  20
BRANCH  12  26
HETATM   26  N3  UNL     1      21.519   3.334  51.624  1.00  0.00     0.085 N 
HETATM   27  H16 UNL     1      22.324   3.902  51.977  1.00  0.00     0.313 HD
HETATM   28  H17 UNL     1      21.495   3.497  50.593  1.00  0.00     0.313 HD
ENDBRANCH  12  26
TORSDOF 3
ENDMDL
MODEL 2
REMARK VINA RESULT:      -8.6      1.855      4.996
REMARK  3 active torsions:
REMARK  status: ('A' for Active; 'I' for Inactive)
REMARK    1  A    between atoms: N1_2  and  C2_3 
REMARK    2  A    between atoms: C2_3  and  C3_5 
REMARK    3  A    between atoms: C13_16  and  N3_17 
ROOT
HETATM    1  C3  UNL     1      24.704   0.933  53.646  1.00  0.00     0.110 C 
HETATM    2  C4  UNL     1      25.019   1.772  52.493  1.00  0.00    -0.010 C 
HETATM    3  C5  UNL     1      26.023   2.043  51.705  1.00  0.00    -0.003 C 
HETATM    4  C6  UNL     1      26.519   2.798  50.571  1.00  0.00    -0.003 C 
HETATM    5  C7  UNL     1      25.912   3.699  49.772  1.00  0.00    -0.013 C 
HETATM    6  C8  UNL     1      24.517   4.010  50.046  1.00  0.00     0.023 A 
HETATM    7  C9  UNL     1      23.490   4.674  50.610  1.00  0.00     0.046 A 
HETATM    8  C10 UNL     1      23.056   3.568  49.772  1.00  0.00     0.083 A 
HETATM    9  C11 UNL     1      24.052   2.914  49.206  1.00  0.00     0.046 A 
HETATM   10  O1  UNL     1      21.680   3.825  50.055  1.00  0.00    -0.376 OA
HETATM   11  C12 UNL     1      20.813   2.687  50.070  1.00  0.00     0.204 C 
HETATM   12  C13 UNL     1      21.348   1.619  50.998  1.00  0.00     0.245 C 
HETATM   13  C14 UNL     1      21.560   2.030  52.410  1.00  0.00     0.076 C 
HETATM   14  C15 UNL     1      22.074   0.842  53.181  1.00  0.00    -0.049 A 
HETATM   15  C16 UNL     1      20.977   0.004  53.452  1.00  0.00     0.007 A 
HETATM   16  C17 UNL     1      20.970  -1.212  54.133  1.00  0.00     0.001 A 
HETATM   17  C18 UNL     1      22.193  -1.639  54.595  1.00  0.00     0.001 A 
HETATM   18  C19 UNL     1      23.263  -0.805  54.323  1.00  0.00     0.009 A 
HETATM   19  C20 UNL     1      23.335   0.416  53.651  1.00  0.00    -0.037 A 
ENDROOT
BRANCH   1  20
HETATM   20  C2  UNL     1      25.672  -0.224  53.622  1.00  0.00     0.103 C 
HETATM   21  N2  UNL     1      26.488  -0.372  54.619  1.00  0.00    -0.287 NA
HETATM   22  H5  UNL     1      26.466   0.296  55.418  1.00  0.00     0.188 HD
BRANCH  20  23
HETATM   23  N1  UNL     1      25.811  -1.217  52.585  1.00  0.00    -0.382 N 
HETATM   24  C1  UNL     1      26.967  -2.054  52.500  1.00  0.00     0.147 C 
HETATM   25  H4  UNL     1      24.999  -1.255  51.927  1.00  0.00     0.160 HD
ENDBRANCH  20  23
ENDBRANCH   1  20
BRANCH  12  26
HETATM   26  N3  UNL     1      20.416   0.516  50.933  1.00  0.00     0.085 N 
HETATM   27  H16 UNL     1      20.930  -0.378  50.759  1.00  0.00     0.313 HD
HETATM   28  H17 UNL     1      19.873   0.359  51.810  1.00  0.00     0.313 HD
ENDBRANCH  12  26
TORSDOF 3
ENDMDL
MODEL 3
REMARK VINA RESULT:      -8.6      2.058      6.546
REMARK  3 active torsions:
REMARK  status: ('A' for Active; 'I' for Inactive)
REMARK    1  A    between atoms: N1_2  and  C2_3 
REMARK    2  A    between atoms: C2_3  and  C3_5 
REMARK    3  A    between atoms: C13_16  and  N3_17 
ROOT
HETATM    1  C3  UNL     1      22.208   0.360  51.655  1.00  0.00     0.110 C 
HETATM    2  C4  UNL     1      22.769   1.497  50.932  1.00  0.00    -0.010 C 
HETATM    3  C5  UNL     1      22.373   2.557  50.281  1.00  0.00    -0.003 C 
HETATM    4  C6  UNL     1      22.742   3.741  49.532  1.00  0.00    -0.003 C 
HETATM    5  C7  UNL     1      23.949   4.235  49.191  1.00  0.00    -0.013 C 
HETATM    6  C8  UNL     1      25.126   3.493  49.622  1.00  0.00     0.023 A 
HETATM    7  C9  UNL     1      26.109   2.579  49.525  1.00  0.00     0.046 A 
HETATM    8  C10 UNL     1      26.123   3.292  50.792  1.00  0.00     0.083 A 
HETATM    9  C11 UNL     1      25.169   4.197  50.897  1.00  0.00     0.046 A 
HETATM   10  O1  UNL     1      27.252   2.551  51.256  1.00  0.00    -0.376 OA
HETATM   11  C12 UNL     1      27.321   2.319  52.667  1.00  0.00     0.204 C 
HETATM   12  C13 UNL     1      26.039   1.690  53.168  1.00  0.00     0.245 C 
HETATM   13  C14 UNL     1      25.650   0.407  52.529  1.00  0.00     0.076 C 
HETATM   14  C15 UNL     1      24.370  -0.073  53.164  1.00  0.00    -0.049 A 
HETATM   15  C16 UNL     1      24.700  -0.641  54.407  1.00  0.00     0.007 A 
HETATM   16  C17 UNL     1      23.843  -1.209  55.349  1.00  0.00     0.001 A 
HETATM   17  C18 UNL     1      22.510  -1.210  55.011  1.00  0.00     0.001 A 
HETATM   18  C19 UNL     1      22.200  -0.649  53.785  1.00  0.00     0.009 A 
HETATM   19  C20 UNL     1      23.005  -0.069  52.805  1.00  0.00    -0.037 A 
ENDROOT
BRANCH   1  20
HETATM   20  C2  UNL     1      20.837   0.777  52.129  1.00  0.00     0.103 C 
HETATM   21  N2  UNL     1      20.747   1.720  53.016  1.00  0.00    -0.287 NA
HETATM   22  H5  UNL     1      21.608   2.176  53.385  1.00  0.00     0.188 HD
BRANCH  20  23
HETATM   23  N1  UNL     1      19.571   0.232  51.706  1.00  0.00    -0.382 N 
HETATM   24  C1  UNL     1      18.702  -0.439  52.621  1.00  0.00     0.147 C 
HETATM   25  H4  UNL     1      19.368   0.379  50.690  1.00  0.00     0.160 HD
ENDBRANCH  20  23
ENDBRANCH   1  20
BRANCH  12  26
HETATM   26  N3  UNL     1      26.204   1.510  54.593  1.00  0.00     0.085 N 
HETATM   27  H16 UNL     1      26.545   2.398  55.030  1.00  0.00     0.313 HD
HETATM   28  H17 UNL     1      25.324   1.271  55.101  1.00  0.00     0.313 HD
ENDBRANCH  12  26
TORSDOF 3
ENDMDL
MODEL 4
REMARK VINA RESULT:      -8.3      2.544      6.057
REMARK  3 active torsions:
REMARK  status: ('A' for Active; 'I' for Inactive)
REMARK    1  A    between atoms: N1_2  and  C2_3 
REMARK    2  A    between atoms: C2_3  and  C3_5 
REMARK    3  A    between atoms: C13_16  and  N3_17 
ROOT
HETATM    1  C3  UNL     1      21.287  -0.200  52.679  1.00  0.00     0.110 C 
HETATM    2  C4  UNL     1      20.706   0.998  52.080  1.00  0.00    -0.010 C 
HETATM    3  C5  UNL     1      19.568   1.634  52.032  1.00  0.00    -0.003 C 
HETATM    4  C6  UNL     1      18.821   2.769  51.526  1.00  0.00    -0.003 C 
HETATM    5  C7  UNL     1      19.192   3.791  50.729  1.00  0.00    -0.013 C 
HETATM    6  C8  UNL     1      20.571   3.813  50.262  1.00  0.00     0.023 A 
HETATM    7  C9  UNL     1      21.594   3.544  49.429  1.00  0.00     0.046 A 
HETATM    8  C10 UNL     1      22.010   4.262  50.622  1.00  0.00     0.083 A 
HETATM    9  C11 UNL     1      21.017   4.539  51.444  1.00  0.00     0.046 A 
HETATM   10  O1  UNL     1      23.377   4.264  50.208  1.00  0.00    -0.376 OA
HETATM   11  C12 UNL     1      24.356   4.221  51.251  1.00  0.00     0.204 C 
HETATM   12  C13 UNL     1      24.092   3.060  52.184  1.00  0.00     0.245 C 
HETATM   13  C14 UNL     1      24.060   1.714  51.555  1.00  0.00     0.076 C 
HETATM   14  C15 UNL     1      23.806   0.691  52.632  1.00  0.00    -0.049 A 
HETATM   15  C16 UNL     1      25.017   0.486  53.318  1.00  0.00     0.007 A 
HETATM   16  C17 UNL     1      25.264  -0.365  54.394  1.00  0.00     0.001 A 
HETATM   17  C18 UNL     1      24.182  -1.091  54.834  1.00  0.00     0.001 A 
HETATM   18  C19 UNL     1      22.998  -0.881  54.151  1.00  0.00     0.009 A 
HETATM   19  C20 UNL     1      22.688  -0.050  53.074  1.00  0.00    -0.037 A 
ENDROOT
BRANCH   1  20
HETATM   20  C2  UNL     1      20.460  -0.523  53.900  1.00  0.00     0.103 C 
HETATM   21  N2  UNL     1      20.538   0.262  54.929  1.00  0.00    -0.287 NA
HETATM   22  H5  UNL     1      21.159   1.098  54.904  1.00  0.00     0.188 HD
BRANCH  20  23
HETATM   23  N1  UNL     1      19.565  -1.642  54.069  1.00  0.00    -0.382 N 
HETATM   24  C1  UNL     1      18.245  -1.633  53.521  1.00  0.00     0.147 C 
HETATM   25  H4  UNL     1      19.977  -2.431  54.617  1.00  0.00     0.160 HD
ENDBRANCH  20  23
ENDBRANCH   1  20
BRANCH  12  26
HETATM   26  N3  UNL     1      25.119   3.113  53.201  1.00  0.00     0.085 N 
HETATM   27  H16 UNL     1      25.630   2.201  53.242  1.00  0.00     0.313 HD
HETATM   28  H17 UNL     1      25.853   3.835  53.035  1.00  0.00     0.313 HD
ENDBRANCH  12  26
TORSDOF 3
ENDMDL
MODEL 5
REMARK VINA RESULT:      -8.3      2.404      5.802
REMARK  3 active torsions:
REMARK  status: ('A' for Active; 'I' for Inactive)
REMARK    1  A    between atoms: N1_2  and  C2_3 
REMARK    2  A    between atoms: C2_3  and  C3_5 
REMARK    3  A    between atoms: C13_16  and  N3_17 
ROOT
HETATM    1  C3  UNL     1      22.258   1.371  50.665  1.00  0.00     0.110 C 
HETATM    2  C4  UNL     1      23.645   1.610  51.052  1.00  0.00    -0.010 C 
HETATM    3  C5  UNL     1      24.561   2.535  50.953  1.00  0.00    -0.003 C 
HETATM    4  C6  UNL     1      25.919   2.949  51.247  1.00  0.00    -0.003 C 
HETATM    5  C7  UNL     1      26.918   2.316  51.896  1.00  0.00    -0.013 C 
HETATM    6  C8  UNL     1      26.646   0.983  52.413  1.00  0.00     0.023 A 
HETATM    7  C9  UNL     1      26.586  -0.362  52.382  1.00  0.00     0.046 A 
HETATM    8  C10 UNL     1      26.073   0.199  53.621  1.00  0.00     0.083 A 
HETATM    9  C11 UNL     1      26.133   1.515  53.668  1.00  0.00     0.046 A 
HETATM   10  O1  UNL     1      25.759  -1.095  54.138  1.00  0.00    -0.376 OA
HETATM   11  C12 UNL     1      24.629  -1.172  55.014  1.00  0.00     0.204 C 
HETATM   12  C13 UNL     1      23.409  -0.555  54.366  1.00  0.00     0.245 C 
HETATM   13  C14 UNL     1      22.997  -1.141  53.064  1.00  0.00     0.076 C 
HETATM   14  C15 UNL     1      21.764  -0.419  52.586  1.00  0.00    -0.049 A 
HETATM   15  C16 UNL     1      20.668  -0.924  53.309  1.00  0.00     0.007 A 
HETATM   16  C17 UNL     1      19.328  -0.552  53.213  1.00  0.00     0.001 A 
HETATM   17  C18 UNL     1      19.051   0.432  52.293  1.00  0.00     0.001 A 
HETATM   18  C19 UNL     1      20.137   0.919  51.588  1.00  0.00     0.009 A 
HETATM   19  C20 UNL     1      21.493   0.591  51.638  1.00  0.00    -0.037 A 
ENDROOT
BRANCH   1  20
HETATM   20  C2  UNL     1      21.613   2.725  50.495  1.00  0.00     0.103 C 
HETATM   21  N2  UNL     1      21.314   3.124  49.297  1.00  0.00    -0.287 NA
HETATM   22  H5  UNL     1      21.515   2.515  48.476  1.00  0.00     0.188 HD
BRANCH  20  23
HETATM   23  N1  UNL     1      21.282   3.665  51.538  1.00  0.00    -0.382 N 
HETATM   24  C1  UNL     1      21.845   4.978  51.567  1.00  0.00     0.147 C 
HETATM   25  H4  UNL     1      20.608   3.290  52.244  1.00  0.00     0.160 HD
ENDBRANCH  20  23
ENDBRANCH   1  20
BRANCH  12  26
HETATM   26  N3  UNL     1      22.336  -0.670  55.329  1.00  0.00     0.085 N 
HETATM   27  H16 UNL     1      22.531  -0.061  56.157  1.00  0.00     0.313 HD
HETATM   28  H17 UNL     1      21.404  -0.363  54.972  1.00  0.00     0.313 HD
ENDBRANCH  12  26
TORSDOF 3
ENDMDL
MODEL 6
REMARK VINA RESULT:      -8.1      2.261      4.205
REMARK  3 active torsions:
REMARK  status: ('A' for Active; 'I' for Inactive)
REMARK    1  A    between atoms: N1_2  and  C2_3 
REMARK    2  A    between atoms: C2_3  and  C3_5 
REMARK    3  A    between atoms: C13_16  and  N3_17 
ROOT
HETATM    1  C3  UNL     1      25.592   3.210  49.664  1.00  0.00     0.110 C 
HETATM    2  C4  UNL     1      26.128   2.547  50.849  1.00  0.00    -0.010 C 
HETATM    3  C5  UNL     1      27.152   2.622  51.654  1.00  0.00    -0.003 C 
HETATM    4  C6  UNL     1      27.835   2.093  52.818  1.00  0.00    -0.003 C 
HETATM    5  C7  UNL     1      27.518   1.078  53.646  1.00  0.00    -0.013 C 
HETATM    6  C8  UNL     1      26.289   0.346  53.375  1.00  0.00     0.023 A 
HETATM    7  C9  UNL     1      25.524  -0.618  52.829  1.00  0.00     0.046 A 
HETATM    8  C10 UNL     1      24.759   0.329  53.622  1.00  0.00     0.083 A 
HETATM    9  C11 UNL     1      25.497   1.275  54.170  1.00  0.00     0.046 A 
HETATM   10  O1  UNL     1      23.532  -0.345  53.340  1.00  0.00    -0.376 OA
HETATM   11  C12 UNL     1      22.359   0.473  53.276  1.00  0.00     0.204 C 
HETATM   12  C13 UNL     1      22.560   1.621  52.313  1.00  0.00     0.245 C 
HETATM   13  C14 UNL     1      22.911   1.247  50.918  1.00  0.00     0.076 C 
HETATM   14  C15 UNL     1      23.052   2.509  50.107  1.00  0.00    -0.049 A 
HETATM   15  C16 UNL     1      21.757   2.962  49.798  1.00  0.00     0.007 A 
HETATM   16  C17 UNL     1      21.391   4.095  49.071  1.00  0.00     0.001 A 
HETATM   17  C18 UNL     1      22.434   4.859  48.602  1.00  0.00     0.001 A 
HETATM   18  C19 UNL     1      23.702   4.402  48.912  1.00  0.00     0.009 A 
HETATM   19  C20 UNL     1      24.131   3.284  49.630  1.00  0.00    -0.037 A 
ENDROOT
BRANCH   1  20
HETATM   20  C2  UNL     1      26.161   4.608  49.651  1.00  0.00     0.103 C 
HETATM   21  N2  UNL     1      27.167   4.862  48.872  1.00  0.00    -0.287 NA
HETATM   22  H5  UNL     1      27.565   4.112  48.268  1.00  0.00     0.188 HD
BRANCH  20  23
HETATM   23  N1  UNL     1      25.711   5.734  50.431  1.00  0.00    -0.382 N 
HETATM   24  C1  UNL     1      25.887   7.078  49.976  1.00  0.00     0.147 C 
HETATM   25  H4  UNL     1      25.257   5.466  51.335  1.00  0.00     0.160 HD
ENDBRANCH  20  23
ENDBRANCH   1  20
BRANCH  12  26
HETATM   26  N3  UNL     1      21.334   2.388  52.331  1.00  0.00     0.085 N 
HETATM   27  H16 UNL     1      21.223   2.908  51.430  1.00  0.00     0.313 HD
HETATM   28  H17 UNL     1      20.468   1.813  52.428  1.00  0.00     0.313 HD
ENDBRANCH  12  26
TORSDOF 3
ENDMDL
MODEL 7
REMARK VINA RESULT:      -8.0      1.692      2.348
REMARK  3 active torsions:
REMARK  status: ('A' for Active; 'I' for Inactive)
REMARK    1  A    between atoms: N1_2  and  C2_3 
REMARK    2  A    between atoms: C2_3  and  C3_5 
REMARK    3  A    between atoms: C13_16  and  N3_17 
ROOT
HETATM    1  C3  UNL     1      25.015   1.627  51.438  1.00  0.00     0.110 C 
HETATM    2  C4  UNL     1      23.781   1.172  52.072  1.00  0.00    -0.010 C 
HETATM    3  C5  UNL     1      23.372   0.662  53.201  1.00  0.00    -0.003 C 
HETATM    4  C6  UNL     1      22.260   0.167  53.989  1.00  0.00    -0.003 C 
HETATM    5  C7  UNL     1      20.948   0.058  53.700  1.00  0.00    -0.013 C 
HETATM    6  C8  UNL     1      20.510   0.498  52.382  1.00  0.00     0.023 A 
HETATM    7  C9  UNL     1      20.223   0.370  51.073  1.00  0.00     0.046 A 
HETATM    8  C10 UNL     1      20.051   1.729  51.559  1.00  0.00     0.083 A 
HETATM    9  C11 UNL     1      20.322   1.867  52.843  1.00  0.00     0.046 A 
HETATM   10  O1  UNL     1      19.657   2.196  50.269  1.00  0.00    -0.376 OA
HETATM   11  C12 UNL     1      20.005   3.548  49.950  1.00  0.00     0.204 C 
HETATM   12  C13 UNL     1      21.484   3.783  50.164  1.00  0.00     0.245 C 
HETATM   13  C14 UNL     1      22.401   2.900  49.398  1.00  0.00     0.076 C 
HETATM   14  C15 UNL     1      23.820   3.290  49.722  1.00  0.00    -0.049 A 
HETATM   15  C16 UNL     1      24.118   4.454  48.990  1.00  0.00     0.007 A 
HETATM   16  C17 UNL     1      25.308   5.181  48.975  1.00  0.00     0.001 A 
HETATM   17  C18 UNL     1      26.311   4.691  49.779  1.00  0.00     0.001 A 
HETATM   18  C19 UNL     1      26.004   3.546  50.492  1.00  0.00     0.009 A 
HETATM   19  C20 UNL     1      24.842   2.777  50.550  1.00  0.00    -0.037 A 
ENDROOT
BRANCH   1  20
HETATM   20  C2  UNL     1      25.967   1.996  52.549  1.00  0.00     0.103 C 
HETATM   21  N2  UNL     1      25.577   2.854  53.441  1.00  0.00    -0.287 NA
HETATM   22  H5  UNL     1      24.624   3.271  53.386  1.00  0.00     0.188 HD
BRANCH  20  23
HETATM   23  N1  UNL     1      27.307   1.499  52.744  1.00  0.00    -0.382 N 
HETATM   24  C1  UNL     1      28.306   2.281  53.404  1.00  0.00     0.147 C 
HETATM   25  H4  UNL     1      27.459   0.538  52.362  1.00  0.00     0.160 HD
ENDBRANCH  20  23
ENDBRANCH   1  20
BRANCH  12  26
HETATM   26  N3  UNL     1      21.729   5.168  49.831  1.00  0.00     0.085 N 
HETATM   27  H16 UNL     1      22.600   5.250  49.257  1.00  0.00     0.313 HD
HETATM   28  H17 UNL     1      20.978   5.613  49.259  1.00  0.00     0.313 HD
ENDBRANCH  12  26
TORSDOF 3
ENDMDL
MODEL 8
REMARK VINA RESULT:      -7.9      1.736      4.597
REMARK  3 active torsions:
REMARK  status: ('A' for Active; 'I' for Inactive)
REMARK    1  A    between atoms: N1_2  and  C2_3 
REMARK    2  A    between atoms: C2_3  and  C3_5 
REMARK    3  A    between atoms: C13_16  and  N3_17 
ROOT
HETATM    1  C3  UNL     1      22.331   2.841  51.196  1.00  0.00     0.110 C 
HETATM    2  C4  UNL     1      21.666   1.748  51.897  1.00  0.00    -0.010 C 
HETATM    3  C5  UNL     1      20.567   1.047  51.834  1.00  0.00    -0.003 C 
HETATM    4  C6  UNL     1      19.760  -0.017  52.397  1.00  0.00    -0.003 C 
HETATM    5  C7  UNL     1      19.972  -0.825  53.456  1.00  0.00    -0.013 C 
HETATM    6  C8  UNL     1      21.208  -0.645  54.203  1.00  0.00     0.023 A 
HETATM    7  C9  UNL     1      22.006  -0.134  55.160  1.00  0.00     0.046 A 
HETATM    8  C10 UNL     1      22.705  -1.043  54.267  1.00  0.00     0.083 A 
HETATM    9  C11 UNL     1      21.933  -1.557  53.329  1.00  0.00     0.046 A 
HETATM   10  O1  UNL     1      23.941  -0.854  54.957  1.00  0.00    -0.376 OA
HETATM   11  C12 UNL     1      25.130  -0.946  54.165  1.00  0.00     0.204 C 
HETATM   12  C13 UNL     1      25.049  -0.021  52.971  1.00  0.00     0.245 C 
HETATM   13  C14 UNL     1      24.833   1.417  53.275  1.00  0.00     0.076 C 
HETATM   14  C15 UNL     1      24.799   2.179  51.975  1.00  0.00    -0.049 A 
HETATM   15  C16 UNL     1      26.127   2.335  51.540  1.00  0.00     0.007 A 
HETATM   16  C17 UNL     1      26.586   2.968  50.385  1.00  0.00     0.001 A 
HETATM   17  C18 UNL     1      25.611   3.504  49.577  1.00  0.00     0.001 A 
HETATM   18  C19 UNL     1      24.310   3.343  50.017  1.00  0.00     0.009 A 
HETATM   19  C20 UNL     1      23.789   2.725  51.154  1.00  0.00    -0.037 A 
ENDROOT
BRANCH   1  20
HETATM   20  C2  UNL     1      21.793   2.846  49.785  1.00  0.00     0.103 C 
HETATM   21  N2  UNL     1      21.059   3.845  49.404  1.00  0.00    -0.287 NA
HETATM   22  H5  UNL     1      20.853   4.626  50.063  1.00  0.00     0.188 HD
BRANCH  20  23
HETATM   23  N1  UNL     1      21.998   1.836  48.776  1.00  0.00    -0.382 N 
HETATM   24  C1  UNL     1      22.273   2.183  47.416  1.00  0.00     0.147 C 
HETATM   25  H4  UNL     1      21.925   0.858  49.138  1.00  0.00     0.160 HD
ENDBRANCH  20  23
ENDBRANCH   1  20
BRANCH  12  26
HETATM   26  N3  UNL     1      26.281  -0.198  52.235  1.00  0.00     0.085 N 
HETATM   27  H16 UNL     1      26.110  -0.063  51.212  1.00  0.00     0.313 HD
HETATM   28  H17 UNL     1      27.032   0.483  52.483  1.00  0.00     0.313 HD
ENDBRANCH  12  26
TORSDOF 3
ENDMDL
MODEL 9
REMARK VINA RESULT:      -7.8      6.886      9.464
REMARK  3 active torsions:
REMARK  status: ('A' for Active; 'I' for Inactive)
REMARK    1  A    between atoms: N1_2  and  C2_3 
REMARK    2  A    between atoms: C2_3  and  C3_5 
REMARK    3  A    between atoms: C13_16  and  N3_17 
ROOT
HETATM    1  C3  UNL     1      29.950   6.363  47.541  1.00  0.00     0.110 C 
HETATM    2  C4  UNL     1      28.620   6.006  48.027  1.00  0.00    -0.010 C 
HETATM    3  C5  UNL     1      28.013   5.024  48.634  1.00  0.00    -0.003 C 
HETATM    4  C6  UNL     1      26.776   4.499  49.177  1.00  0.00    -0.003 C 
HETATM    5  C7  UNL     1      25.535   5.024  49.225  1.00  0.00    -0.013 C 
HETATM    6  C8  UNL     1      25.342   6.347  48.647  1.00  0.00     0.023 A 
HETATM    7  C9  UNL     1      25.062   7.239  47.679  1.00  0.00     0.046 A 
HETATM    8  C10 UNL     1      25.428   7.867  48.937  1.00  0.00     0.083 A 
HETATM    9  C11 UNL     1      25.697   7.004  49.898  1.00  0.00     0.046 A 
HETATM   10  O1  UNL     1      25.284   9.177  48.386  1.00  0.00    -0.376 OA
HETATM   11  C12 UNL     1      26.146  10.187  48.920  1.00  0.00     0.204 C 
HETATM   12  C13 UNL     1      27.591   9.746  48.855  1.00  0.00     0.245 C 
HETATM   13  C14 UNL     1      28.106   9.398  47.505  1.00  0.00     0.076 C 
HETATM   14  C15 UNL     1      29.554   9.004  47.634  1.00  0.00    -0.049 A 
HETATM   15  C16 UNL     1      30.306  10.185  47.760  1.00  0.00     0.007 A 
HETATM   16  C17 UNL     1      31.687  10.316  47.911  1.00  0.00     0.001 A 
HETATM   17  C18 UNL     1      32.393   9.136  47.939  1.00  0.00     0.001 A 
HETATM   18  C19 UNL     1      31.641   7.982  47.814  1.00  0.00     0.009 A 
HETATM   19  C20 UNL     1      30.268   7.786  47.661  1.00  0.00    -0.037 A 
ENDROOT
BRANCH   1  20
HETATM   20  C2  UNL     1      30.940   5.562  48.351  1.00  0.00     0.103 C 
HETATM   21  N2  UNL     1      30.977   5.737  49.636  1.00  0.00    -0.287 NA
HETATM   22  H5  UNL     1      30.329   6.414  50.091  1.00  0.00     0.188 HD
BRANCH  20  23
HETATM   23  N1  UNL     1      31.890   4.598  47.852  1.00  0.00    -0.382 N 
HETATM   24  C1  UNL     1      32.377   4.653  46.509  1.00  0.00     0.147 C 
HETATM   25  H4  UNL     1      32.171   3.879  48.558  1.00  0.00     0.160 HD
ENDBRANCH  20  23
ENDBRANCH   1  20
BRANCH  12  26
HETATM   26  N3  UNL     1      28.372  10.821  49.426  1.00  0.00     0.085 N 
HETATM   27  H16 UNL     1      29.392  10.637  49.286  1.00  0.00     0.313 HD
HETATM   28  H17 UNL     1      28.197  11.756  48.995  1.00  0.00     0.313 HD
ENDBRANCH  12  26
TORSDOF 3
ENDMDL
