MODEL 1
REMARK VINA RESULT:      -8.0      0.000      0.000
REMARK  4 active torsions:
REMARK  status: ('A' for Active; 'I' for Inactive)
REMARK    1  A    between atoms: C2_2  and  N1_4 
REMARK    2  A    between atoms: N1_4  and  C4_5 
REMARK    3  A    between atoms: C9_12  and  N4_13 
REMARK    4  A    between atoms: N4_13  and  C10_14 
ROOT
HETATM    1  C4  UNL     1      25.256   0.453  53.504  1.00  0.00     0.012 C 
HETATM    2  C5  UNL     1      26.084  -0.327  54.163  1.00  0.00     0.026 C 
HETATM    3  C6  UNL     1      27.395  -0.067  54.623  1.00  0.00     0.021 C 
HETATM    4  C7  UNL     1      28.519   0.498  54.880  1.00  0.00     0.118 C 
HETATM    5  N2  UNL     1      28.794   1.859  54.451  1.00  0.00    -0.254 NA
HETATM    6  C8  UNL     1      28.300   2.311  53.315  1.00  0.00     0.234 C 
HETATM    7  N3  UNL     1      27.639   2.490  52.076  1.00  0.00    -0.228 NA
HETATM    8  C9  UNL     1      26.336   2.237  52.105  1.00  0.00     0.111 C 
HETATM    9  C16 UNL     1      25.803   1.821  53.407  1.00  0.00     0.135 C 
ENDROOT
BRANCH   8  10
HETATM   10  N4  UNL     1      25.637   2.401  50.894  1.00  0.00    -0.344 N 
HETATM   11  H13 UNL     1      25.013   1.616  50.651  1.00  0.00     0.167 HD
BRANCH  10  12
HETATM   12  C10 UNL     1      25.931   3.646  50.228  1.00  0.00     0.034 A 
HETATM   13  C11 UNL     1      26.897   3.899  49.274  1.00  0.00     0.029 A 
HETATM   14  C12 UNL     1      27.020   5.176  48.746  1.00  0.00     0.004 A 
HETATM   15  C13 UNL     1      26.214   6.222  49.131  1.00  0.00     0.019 A 
HETATM   16  C14 UNL     1      25.226   6.039  50.083  1.00  0.00     0.013 A 
HETATM   17 BR1  UNL     1      24.035   7.401  50.716  1.00  0.00    -0.051 Br
HETATM   18  C15 UNL     1      25.148   4.755  50.573  1.00  0.00     0.048 A 
ENDBRANCH  10  12
ENDBRANCH   8  10
BRANCH   1  19
HETATM   19  N1  UNL     1      23.974   0.098  53.077  1.00  0.00    -0.389 N 
HETATM   20  H8  UNL     1      23.873  -0.906  52.764  1.00  0.00     0.159 HD
BRANCH  19  21
HETATM   21  C2  UNL     1      22.830   0.940  53.023  1.00  0.00     0.073 C 
HETATM   22  C1  UNL     1      22.321   1.017  51.580  1.00  0.00     0.031 C 
HETATM   23  C3  UNL     1      21.708   0.339  53.832  1.00  0.00     0.031 C 
ENDBRANCH  19  21
ENDBRANCH   1  19
TORSDOF 4
ENDMDL
MODEL 2
REMARK VINA RESULT:      -7.8      2.135      2.549
REMARK  4 active torsions:
REMARK  status: ('A' for Active; 'I' for Inactive)
REMARK    1  A    between atoms: C2_2  and  N1_4 
REMARK    2  A    between atoms: N1_4  and  C4_5 
REMARK    3  A    between atoms: C9_12  and  N4_13 
REMARK    4  A    between atoms: N4_13  and  C10_14 
ROOT
HETATM    1  C4  UNL     1      25.483  -0.479  53.343  1.00  0.00     0.012 C 
HETATM    2  C5  UNL     1      26.398  -1.288  52.859  1.00  0.00     0.026 C 
HETATM    3  C6  UNL     1      27.803  -1.261  53.018  1.00  0.00     0.021 C 
HETATM    4  C7  UNL     1      28.995  -0.935  53.365  1.00  0.00     0.118 C 
HETATM    5  N2  UNL     1      29.245   0.227  54.202  1.00  0.00    -0.254 NA
HETATM    6  C8  UNL     1      28.487   1.300  54.094  1.00  0.00     0.234 C 
HETATM    7  N3  UNL     1      27.518   2.271  53.744  1.00  0.00    -0.228 NA
HETATM    8  C9  UNL     1      26.260   1.856  53.843  1.00  0.00     0.111 C 
HETATM    9  C16 UNL     1      26.088   0.471  54.297  1.00  0.00     0.135 C 
ENDROOT
BRANCH   8  10
HETATM   10  N4  UNL     1      25.262   2.789  53.504  1.00  0.00    -0.344 N 
HETATM   11  H13 UNL     1      24.846   3.280  54.309  1.00  0.00     0.167 HD
BRANCH  10  12
HETATM   12  C10 UNL     1      25.019   2.876  52.085  1.00  0.00     0.034 A 
HETATM   13  C11 UNL     1      25.905   3.221  51.084  1.00  0.00     0.029 A 
HETATM   14  C12 UNL     1      25.476   3.242  49.765  1.00  0.00     0.004 A 
HETATM   15  C13 UNL     1      24.187   2.931  49.397  1.00  0.00     0.019 A 
HETATM   16  C14 UNL     1      23.247   2.577  50.349  1.00  0.00     0.013 A 
HETATM   17 BR1  UNL     1      21.421   2.123  49.982  1.00  0.00    -0.051 Br
HETATM   18  C15 UNL     1      23.726   2.573  51.639  1.00  0.00     0.048 A 
ENDBRANCH  10  12
ENDBRANCH   8  10
BRANCH   1  19
HETATM   19  N1  UNL     1      24.108  -0.581  53.116  1.00  0.00    -0.389 N 
HETATM   20  H8  UNL     1      23.842  -0.972  52.171  1.00  0.00     0.159 HD
BRANCH  19  21
HETATM   21  C2  UNL     1      23.067  -0.214  54.012  1.00  0.00     0.073 C 
HETATM   22  C1  UNL     1      21.743  -0.124  53.244  1.00  0.00     0.031 C 
HETATM   23  C3  UNL     1      22.877  -1.290  55.051  1.00  0.00     0.031 C 
ENDBRANCH  19  21
ENDBRANCH   1  19
TORSDOF 4
ENDMDL
MODEL 3
REMARK VINA RESULT:      -7.8      1.991      4.866
REMARK  4 active torsions:
REMARK  status: ('A' for Active; 'I' for Inactive)
REMARK    1  A    between atoms: C2_2  and  N1_4 
REMARK    2  A    between atoms: N1_4  and  C4_5 
REMARK    3  A    between atoms: C9_12  and  N4_13 
REMARK    4  A    between atoms: N4_13  and  C10_14 
ROOT
HETATM    1  C4  UNL     1      26.789   2.243  51.995  1.00  0.00     0.012 C 
HETATM    2  C5  UNL     1      27.910   1.973  52.627  1.00  0.00     0.026 C 
HETATM    3  C6  UNL     1      28.296   0.804  53.322  1.00  0.00     0.021 C 
HETATM    4  C7  UNL     1      28.306  -0.367  53.848  1.00  0.00     0.118 C 
HETATM    5  N2  UNL     1      27.161  -1.254  53.734  1.00  0.00    -0.254 NA
HETATM    6  C8  UNL     1      25.937  -0.764  53.723  1.00  0.00     0.234 C 
HETATM    7  N3  UNL     1      24.782   0.054  53.742  1.00  0.00    -0.228 NA
HETATM    8  C9  UNL     1      24.764   1.003  52.813  1.00  0.00     0.111 C 
HETATM    9  C16 UNL     1      25.934   1.041  51.928  1.00  0.00     0.135 C 
ENDROOT
BRANCH   8  10
HETATM   10  N4  UNL     1      23.634   1.842  52.794  1.00  0.00    -0.344 N 
HETATM   11  H13 UNL     1      23.685   2.642  53.443  1.00  0.00     0.167 HD
BRANCH  10  12
HETATM   12  C10 UNL     1      22.621   1.416  51.860  1.00  0.00     0.034 A 
HETATM   13  C11 UNL     1      21.498   0.650  52.104  1.00  0.00     0.029 A 
HETATM   14  C12 UNL     1      20.634   0.349  51.062  1.00  0.00     0.004 A 
HETATM   15  C13 UNL     1      20.842   0.782  49.773  1.00  0.00     0.019 A 
HETATM   16  C14 UNL     1      21.948   1.553  49.457  1.00  0.00     0.013 A 
HETATM   17 BR1  UNL     1      22.365   2.222  47.710  1.00  0.00    -0.051 Br
HETATM   18  C15 UNL     1      22.771   1.821  50.527  1.00  0.00     0.048 A 
ENDBRANCH  10  12
ENDBRANCH   8  10
BRANCH   1  19
HETATM   19  N1  UNL     1      26.492   3.443  51.345  1.00  0.00    -0.389 N 
HETATM   20  H8  UNL     1      26.647   4.312  51.926  1.00  0.00     0.159 HD
BRANCH  19  21
HETATM   21  C2  UNL     1      26.014   3.596  50.015  1.00  0.00     0.073 C 
HETATM   22  C1  UNL     1      24.861   4.606  50.002  1.00  0.00     0.031 C 
HETATM   23  C3  UNL     1      27.094   4.181  49.141  1.00  0.00     0.031 C 
ENDBRANCH  19  21
ENDBRANCH   1  19
TORSDOF 4
ENDMDL
MODEL 4
REMARK VINA RESULT:      -7.4      1.108      1.309
REMARK  4 active torsions:
REMARK  status: ('A' for Active; 'I' for Inactive)
REMARK    1  A    between atoms: C2_2  and  N1_4 
REMARK    2  A    between atoms: N1_4  and  C4_5 
REMARK    3  A    between atoms: C9_12  and  N4_13 
REMARK    4  A    between atoms: N4_13  and  C10_14 
ROOT
HETATM    1  C4  UNL     1      24.232   1.320  52.592  1.00  0.00     0.012 C 
HETATM    2  C5  UNL     1      24.648   0.371  53.400  1.00  0.00     0.026 C 
HETATM    3  C6  UNL     1      25.866   0.258  54.109  1.00  0.00     0.021 C 
HETATM    4  C7  UNL     1      27.039   0.481  54.582  1.00  0.00     0.118 C 
HETATM    5  N2  UNL     1      27.784   1.674  54.217  1.00  0.00    -0.254 NA
HETATM    6  C8  UNL     1      27.671   2.185  53.007  1.00  0.00     0.234 C 
HETATM    7  N3  UNL     1      27.340   2.479  51.663  1.00  0.00    -0.228 NA
HETATM    8  C9  UNL     1      26.040   2.623  51.435  1.00  0.00     0.111 C 
HETATM    9  C16 UNL     1      25.172   2.458  52.606  1.00  0.00     0.135 C 
ENDROOT
BRANCH   8  10
HETATM   10  N4  UNL     1      25.663   2.915  50.110  1.00  0.00    -0.344 N 
HETATM   11  H13 UNL     1      25.090   2.186  49.658  1.00  0.00     0.167 HD
BRANCH  10  12
HETATM   12  C10 UNL     1      26.153   4.189  49.644  1.00  0.00     0.034 A 
HETATM   13  C11 UNL     1      27.276   4.448  48.883  1.00  0.00     0.029 A 
HETATM   14  C12 UNL     1      27.578   5.754  48.529  1.00  0.00     0.004 A 
HETATM   15  C13 UNL     1      26.801   6.826  48.906  1.00  0.00     0.019 A 
HETATM   16  C14 UNL     1      25.662   6.639  49.670  1.00  0.00     0.013 A 
HETATM   17 BR1  UNL     1      24.491   8.034  50.267  1.00  0.00    -0.051 Br
HETATM   18  C15 UNL     1      25.410   5.324  49.992  1.00  0.00     0.048 A 
ENDBRANCH  10  12
ENDBRANCH   8  10
BRANCH   1  19
HETATM   19  N1  UNL     1      23.006   1.334  51.921  1.00  0.00    -0.389 N 
HETATM   20  H8  UNL     1      23.076   1.450  50.873  1.00  0.00     0.159 HD
BRANCH  19  21
HETATM   21  C2  UNL     1      21.714   1.214  52.502  1.00  0.00     0.073 C 
HETATM   22  C1  UNL     1      20.980   2.554  52.392  1.00  0.00     0.031 C 
HETATM   23  C3  UNL     1      20.890   0.218  51.727  1.00  0.00     0.031 C 
ENDBRANCH  19  21
ENDBRANCH   1  19
TORSDOF 4
ENDMDL
MODEL 5
REMARK VINA RESULT:      -7.4      1.939      4.497
REMARK  4 active torsions:
REMARK  status: ('A' for Active; 'I' for Inactive)
REMARK    1  A    between atoms: C2_2  and  N1_4 
REMARK    2  A    between atoms: N1_4  and  C4_5 
REMARK    3  A    between atoms: C9_12  and  N4_13 
REMARK    4  A    between atoms: N4_13  and  C10_14 
ROOT
HETATM    1  C4  UNL     1      23.915  -0.413  54.018  1.00  0.00     0.012 C 
HETATM    2  C5  UNL     1      22.935  -1.064  54.604  1.00  0.00     0.026 C 
HETATM    3  C6  UNL     1      21.555  -1.084  54.299  1.00  0.00     0.021 C 
HETATM    4  C7  UNL     1      20.412  -0.866  53.756  1.00  0.00     0.118 C 
HETATM    5  N2  UNL     1      20.277   0.029  52.619  1.00  0.00    -0.254 NA
HETATM    6  C8  UNL     1      21.047   1.093  52.514  1.00  0.00     0.234 C 
HETATM    7  N3  UNL     1      22.001   2.125  52.689  1.00  0.00    -0.228 NA
HETATM    8  C9  UNL     1      23.251   1.701  52.836  1.00  0.00     0.111 C 
HETATM    9  C16 UNL     1      23.433   0.245  52.788  1.00  0.00     0.135 C 
ENDROOT
BRANCH   8  10
HETATM   10  N4  UNL     1      24.234   2.693  53.014  1.00  0.00    -0.344 N 
HETATM   11  H13 UNL     1      24.330   3.029  53.985  1.00  0.00     0.167 HD
BRANCH  10  12
HETATM   12  C10 UNL     1      24.921   3.042  51.796  1.00  0.00     0.034 A 
HETATM   13  C11 UNL     1      26.062   2.475  51.262  1.00  0.00     0.029 A 
HETATM   14  C12 UNL     1      26.569   2.955  50.064  1.00  0.00     0.004 A 
HETATM   15  C13 UNL     1      25.984   3.986  49.367  1.00  0.00     0.019 A 
HETATM   16  C14 UNL     1      24.840   4.601  49.844  1.00  0.00     0.013 A 
HETATM   17 BR1  UNL     1      23.921   6.047  48.984  1.00  0.00    -0.051 Br
HETATM   18  C15 UNL     1      24.380   4.087  51.035  1.00  0.00     0.048 A 
ENDBRANCH  10  12
ENDBRANCH   8  10
BRANCH   1  19
HETATM   19  N1  UNL     1      25.257  -0.447  54.405  1.00  0.00    -0.389 N 
HETATM   20  H8  UNL     1      25.419  -0.679  55.423  1.00  0.00     0.159 HD
BRANCH  19  21
HETATM   21  C2  UNL     1      26.388  -0.202  53.579  1.00  0.00     0.073 C 
HETATM   22  C1  UNL     1      27.605   0.102  54.460  1.00  0.00     0.031 C 
HETATM   23  C3  UNL     1      26.736  -1.444  52.798  1.00  0.00     0.031 C 
ENDBRANCH  19  21
ENDBRANCH   1  19
TORSDOF 4
ENDMDL
MODEL 6
REMARK VINA RESULT:      -7.4      1.159      1.595
REMARK  4 active torsions:
REMARK  status: ('A' for Active; 'I' for Inactive)
REMARK    1  A    between atoms: C2_2  and  N1_4 
REMARK    2  A    between atoms: N1_4  and  C4_5 
REMARK    3  A    between atoms: C9_12  and  N4_13 
REMARK    4  A    between atoms: N4_13  and  C10_14 
ROOT
HETATM    1  C4  UNL     1      25.088   0.528  53.374  1.00  0.00     0.012 C 
HETATM    2  C5  UNL     1      25.842  -0.296  54.066  1.00  0.00     0.026 C 
HETATM    3  C6  UNL     1      27.145  -0.109  54.583  1.00  0.00     0.021 C 
HETATM    4  C7  UNL     1      28.285   0.394  54.892  1.00  0.00     0.118 C 
HETATM    5  N2  UNL     1      28.652   1.738  54.481  1.00  0.00    -0.254 NA
HETATM    6  C8  UNL     1      28.233   2.219  53.327  1.00  0.00     0.234 C 
HETATM    7  N3  UNL     1      27.638   2.436  52.061  1.00  0.00    -0.228 NA
HETATM    8  C9  UNL     1      26.322   2.253  52.032  1.00  0.00     0.111 C 
HETATM    9  C16 UNL     1      25.711   1.865  53.308  1.00  0.00     0.135 C 
ENDROOT
BRANCH   8  10
HETATM   10  N4  UNL     1      25.687   2.457  50.792  1.00  0.00    -0.344 N 
HETATM   11  H13 UNL     1      25.558   1.601  50.232  1.00  0.00     0.167 HD
BRANCH  10  12
HETATM   12  C10 UNL     1      25.336   3.835  50.549  1.00  0.00     0.034 A 
HETATM   13  C11 UNL     1      24.256   4.542  51.039  1.00  0.00     0.029 A 
HETATM   14  C12 UNL     1      24.094   5.875  50.690  1.00  0.00     0.004 A 
HETATM   15  C13 UNL     1      24.970   6.540  49.864  1.00  0.00     0.019 A 
HETATM   16  C14 UNL     1      26.073   5.891  49.336  1.00  0.00     0.013 A 
HETATM   17 BR1  UNL     1      27.372   6.689  48.174  1.00  0.00    -0.051 Br
HETATM   18  C15 UNL     1      26.185   4.573  49.715  1.00  0.00     0.048 A 
ENDBRANCH  10  12
ENDBRANCH   8  10
BRANCH   1  19
HETATM   19  N1  UNL     1      23.808   0.244  52.891  1.00  0.00    -0.389 N 
HETATM   20  H8  UNL     1      23.763   0.023  51.859  1.00  0.00     0.159 HD
BRANCH  19  21
HETATM   21  C2  UNL     1      22.598   0.231  53.637  1.00  0.00     0.073 C 
HETATM   22  C1  UNL     1      21.487   0.896  52.818  1.00  0.00     0.031 C 
HETATM   23  C3  UNL     1      22.153  -1.191  53.872  1.00  0.00     0.031 C 
ENDBRANCH  19  21
ENDBRANCH   1  19
TORSDOF 4
ENDMDL
MODEL 7
REMARK VINA RESULT:      -7.1      1.709      2.415
REMARK  4 active torsions:
REMARK  status: ('A' for Active; 'I' for Inactive)
REMARK    1  A    between atoms: C2_2  and  N1_4 
REMARK    2  A    between atoms: N1_4  and  C4_5 
REMARK    3  A    between atoms: C9_12  and  N4_13 
REMARK    4  A    between atoms: N4_13  and  C10_14 
ROOT
HETATM    1  C4  UNL     1      24.440   0.523  53.461  1.00  0.00     0.012 C 
HETATM    2  C5  UNL     1      25.281  -0.316  54.023  1.00  0.00     0.026 C 
HETATM    3  C6  UNL     1      26.645  -0.144  54.350  1.00  0.00     0.021 C 
HETATM    4  C7  UNL     1      27.822   0.349  54.500  1.00  0.00     0.118 C 
HETATM    5  N2  UNL     1      28.134   1.699  54.064  1.00  0.00    -0.254 NA
HETATM    6  C8  UNL     1      27.556   2.202  52.990  1.00  0.00     0.234 C 
HETATM    7  N3  UNL     1      26.787   2.445  51.828  1.00  0.00    -0.228 NA
HETATM    8  C9  UNL     1      25.480   2.268  51.985  1.00  0.00     0.111 C 
HETATM    9  C16 UNL     1      25.056   1.858  53.329  1.00  0.00     0.135 C 
ENDROOT
BRANCH   8  10
HETATM   10  N4  UNL     1      24.674   2.497  50.853  1.00  0.00    -0.344 N 
HETATM   11  H13 UNL     1      24.927   1.932  50.028  1.00  0.00     0.167 HD
BRANCH  10  12
HETATM   12  C10 UNL     1      23.644   3.482  51.075  1.00  0.00     0.034 A 
HETATM   13  C11 UNL     1      22.332   3.278  51.454  1.00  0.00     0.029 A 
HETATM   14  C12 UNL     1      21.490   4.367  51.622  1.00  0.00     0.004 A 
HETATM   15  C13 UNL     1      21.902   5.664  51.426  1.00  0.00     0.019 A 
HETATM   16  C14 UNL     1      23.204   5.941  51.044  1.00  0.00     0.013 A 
HETATM   17 BR1  UNL     1      23.915   7.694  50.733  1.00  0.00    -0.051 Br
HETATM   18  C15 UNL     1      23.995   4.825  50.892  1.00  0.00     0.048 A 
ENDBRANCH  10  12
ENDBRANCH   8  10
BRANCH   1  19
HETATM   19  N1  UNL     1      23.102   0.253  53.162  1.00  0.00    -0.389 N 
HETATM   20  H8  UNL     1      22.873   0.237  52.131  1.00  0.00     0.159 HD
BRANCH  19  21
HETATM   21  C2  UNL     1      22.053   0.010  54.090  1.00  0.00     0.073 C 
HETATM   22  C1  UNL     1      20.748   0.603  53.550  1.00  0.00     0.031 C 
HETATM   23  C3  UNL     1      21.817  -1.473  54.226  1.00  0.00     0.031 C 
ENDBRANCH  19  21
ENDBRANCH   1  19
TORSDOF 4
ENDMDL
MODEL 8
REMARK VINA RESULT:      -6.9      4.578      7.119
REMARK  4 active torsions:
REMARK  status: ('A' for Active; 'I' for Inactive)
REMARK    1  A    between atoms: C2_2  and  N1_4 
REMARK    2  A    between atoms: N1_4  and  C4_5 
REMARK    3  A    between atoms: C9_12  and  N4_13 
REMARK    4  A    between atoms: N4_13  and  C10_14 
ROOT
HETATM    1  C4  UNL     1      27.178   5.355  49.135  1.00  0.00     0.012 C 
HETATM    2  C5  UNL     1      26.856   4.085  49.230  1.00  0.00     0.026 C 
HETATM    3  C6  UNL     1      25.587   3.484  49.388  1.00  0.00     0.021 C 
HETATM    4  C7  UNL     1      24.324   3.294  49.527  1.00  0.00     0.118 C 
HETATM    5  N2  UNL     1      23.396   4.410  49.577  1.00  0.00    -0.254 NA
HETATM    6  C8  UNL     1      23.755   5.550  50.135  1.00  0.00     0.234 C 
HETATM    7  N3  UNL     1      24.427   6.612  50.786  1.00  0.00    -0.228 NA
HETATM    8  C9  UNL     1      25.582   6.957  50.229  1.00  0.00     0.111 C 
HETATM    9  C16 UNL     1      25.962   6.188  49.038  1.00  0.00     0.135 C 
ENDROOT
BRANCH   8  10
HETATM   10  N4  UNL     1      26.287   8.009  50.844  1.00  0.00    -0.344 N 
HETATM   11  H13 UNL     1      26.438   7.887  51.857  1.00  0.00     0.167 HD
BRANCH  10  12
HETATM   12  C10 UNL     1      26.665   9.057  49.927  1.00  0.00     0.034 A 
HETATM   13  C11 UNL     1      25.848   9.825  49.122  1.00  0.00     0.029 A 
HETATM   14  C12 UNL     1      26.409  10.796  48.305  1.00  0.00     0.004 A 
HETATM   15  C13 UNL     1      27.762  11.037  48.256  1.00  0.00     0.019 A 
HETATM   16  C14 UNL     1      28.639  10.303  49.037  1.00  0.00     0.013 A 
HETATM   17 BR1  UNL     1      30.542  10.527  49.069  1.00  0.00    -0.051 Br
HETATM   18  C15 UNL     1      28.030   9.354  49.826  1.00  0.00     0.048 A 
ENDBRANCH  10  12
ENDBRANCH   8  10
BRANCH   1  19
HETATM   19  N1  UNL     1      28.474   5.856  48.995  1.00  0.00    -0.389 N 
HETATM   20  H8  UNL     1      28.877   6.295  49.868  1.00  0.00     0.159 HD
BRANCH  19  21
HETATM   21  C2  UNL     1      29.274   5.834  47.820  1.00  0.00     0.073 C 
HETATM   22  C1  UNL     1      29.167   7.185  47.105  1.00  0.00     0.031 C 
HETATM   23  C3  UNL     1      30.727   5.668  48.188  1.00  0.00     0.031 C 
ENDBRANCH  19  21
ENDBRANCH   1  19
TORSDOF 4
ENDMDL
MODEL 9
REMARK VINA RESULT:      -6.9      1.848      4.152
REMARK  4 active torsions:
REMARK  status: ('A' for Active; 'I' for Inactive)
REMARK    1  A    between atoms: C2_2  and  N1_4 
REMARK    2  A    between atoms: N1_4  and  C4_5 
REMARK    3  A    between atoms: C9_12  and  N4_13 
REMARK    4  A    between atoms: N4_13  and  C10_14 
ROOT
HETATM    1  C4  UNL     1      25.852   0.048  53.550  1.00  0.00     0.012 C 
HETATM    2  C5  UNL     1      25.368  -0.654  54.549  1.00  0.00     0.026 C 
HETATM    3  C6  UNL     1      24.026  -0.966  54.867  1.00  0.00     0.021 C 
HETATM    4  C7  UNL     1      22.745  -1.048  54.849  1.00  0.00     0.118 C 
HETATM    5  N2  UNL     1      21.963  -0.400  53.809  1.00  0.00    -0.254 NA
HETATM    6  C8  UNL     1      22.360   0.749  53.297  1.00  0.00     0.234 C 
HETATM    7  N3  UNL     1      23.038   1.945  52.962  1.00  0.00    -0.228 NA
HETATM    8  C9  UNL     1      24.303   1.778  52.595  1.00  0.00     0.111 C 
HETATM    9  C16 UNL     1      24.781   0.390  52.594  1.00  0.00     0.135 C 
ENDROOT
BRANCH   8  10
HETATM   10  N4  UNL     1      25.017   2.942  52.253  1.00  0.00    -0.344 N 
HETATM   11  H13 UNL     1      25.804   3.160  52.883  1.00  0.00     0.167 HD
BRANCH  10  12
HETATM   12  C10 UNL     1      24.506   3.602  51.078  1.00  0.00     0.034 A 
HETATM   13  C11 UNL     1      24.240   3.058  49.837  1.00  0.00     0.029 A 
HETATM   14  C12 UNL     1      23.741   3.867  48.826  1.00  0.00     0.004 A 
HETATM   15  C13 UNL     1      23.494   5.209  49.000  1.00  0.00     0.019 A 
HETATM   16  C14 UNL     1      23.739   5.820  50.218  1.00  0.00     0.013 A 
HETATM   17 BR1  UNL     1      23.445   7.674  50.602  1.00  0.00    -0.051 Br
HETATM   18  C15 UNL     1      24.232   4.972  51.184  1.00  0.00     0.048 A 
ENDBRANCH  10  12
ENDBRANCH   8  10
BRANCH   1  19
HETATM   19  N1  UNL     1      27.205   0.316  53.327  1.00  0.00    -0.389 N 
HETATM   20  H8  UNL     1      27.420   0.768  52.396  1.00  0.00     0.159 HD
BRANCH  19  21
HETATM   21  C2  UNL     1      28.285   0.040  54.209  1.00  0.00     0.073 C 
HETATM   22  C1  UNL     1      29.236  -0.965  53.551  1.00  0.00     0.031 C 
HETATM   23  C3  UNL     1      29.094   1.292  54.442  1.00  0.00     0.031 C 
ENDBRANCH  19  21
ENDBRANCH   1  19
TORSDOF 4
ENDMDL
