MODEL 1
REMARK VINA RESULT:      -8.2      0.000      0.000
REMARK  6 active torsions:
REMARK  status: ('A' for Active; 'I' for Inactive)
REMARK    1  A    between atoms: C2_2  and  C12_17 
REMARK    2  A    between atoms: C3_3  and  C4_4 
REMARK    3  A    between atoms: C5_5  and  C6_6 
REMARK    4  A    between atoms: N2_10  and  C9_11 
REMARK    5  A    between atoms: C10_13  and  O1_14 
REMARK    6  A    between atoms: C12_17  and  C13_18 
ROOT
HETATM    1  C4  UNL     1      23.505   3.169  52.506  1.00  0.00    -0.002 C 
HETATM    2  C5  UNL     1      24.242   3.950  51.770  1.00  0.00     0.001 C 
ENDROOT
BRANCH   2   3
HETATM    3  C6  UNL     1      23.817   5.150  51.016  1.00  0.00     0.140 C 
HETATM    4  C7  UNL     1      22.569   4.708  50.240  1.00  0.00     0.080 C 
HETATM    5  C8  UNL     1      23.224   4.046  49.073  1.00  0.00     0.114 C 
HETATM    6  N1  UNL     1      24.433   4.532  48.941  1.00  0.00    -0.186 NA
HETATM    7  N2  UNL     1      24.690   5.476  49.908  1.00  0.00    -0.238 N 
BRANCH   7   8
HETATM    8  C9  UNL     1      25.667   6.569  49.779  1.00  0.00     0.192 A 
HETATM    9  N3  UNL     1      25.810   7.617  50.349  1.00  0.00    -0.198 NA
HETATM   10  C10 UNL     1      26.800   8.454  50.038  1.00  0.00     0.171 A 
HETATM   11  C11 UNL     1      27.705   8.079  48.999  1.00  0.00     0.111 A 
HETATM   12  S1  UNL     1      26.958   6.398  48.537  1.00  0.00    -0.058 SA
BRANCH  10  13
HETATM   13  O1  UNL     1      26.816   9.635  50.809  1.00  0.00    -0.344 OA
HETATM   14  H11 UNL     1      26.660   9.625  51.797  1.00  0.00     0.219 HD
ENDBRANCH  10  13
ENDBRANCH   7   8
ENDBRANCH   2   3
BRANCH   1  15
HETATM   15  C3  UNL     1      24.025   2.003  53.213  1.00  0.00     0.002 C 
HETATM   16  C2  UNL     1      23.524   0.804  53.046  1.00  0.00    -0.080 C 
HETATM   17  C1  UNL     1      22.398   0.609  52.114  1.00  0.00     0.043 C 
BRANCH  16  18
HETATM   18  C12 UNL     1      24.097  -0.339  53.795  1.00  0.00     0.072 C 
BRANCH  18  19
HETATM   19  C13 UNL     1      25.572  -0.356  53.825  1.00  0.00    -0.054 A 
HETATM   20  C14 UNL     1      26.367   0.222  54.793  1.00  0.00     0.009 A 
HETATM   21  C15 UNL     1      27.746   0.170  54.761  1.00  0.00     0.024 A 
HETATM   22  C16 UNL     1      28.349  -0.499  53.696  1.00  0.00     0.034 A 
HETATM   23 CL1  UNL     1      30.107  -0.619  53.568  1.00  0.00    -0.084 Cl
HETATM   24  C17 UNL     1      27.591  -1.092  52.704  1.00  0.00     0.024 A 
HETATM   25  C18 UNL     1      26.215  -1.018  52.772  1.00  0.00     0.009 A 
ENDBRANCH  18  19
ENDBRANCH  16  18
ENDBRANCH   1  15
TORSDOF 6
ENDMDL
MODEL 2
REMARK VINA RESULT:      -8.1      4.813      8.162
REMARK  6 active torsions:
REMARK  status: ('A' for Active; 'I' for Inactive)
REMARK    1  A    between atoms: C2_2  and  C12_17 
REMARK    2  A    between atoms: C3_3  and  C4_4 
REMARK    3  A    between atoms: C5_5  and  C6_6 
REMARK    4  A    between atoms: N2_10  and  C9_11 
REMARK    5  A    between atoms: C10_13  and  O1_14 
REMARK    6  A    between atoms: C12_17  and  C13_18 
ROOT
HETATM    1  C4  UNL     1      26.361   3.034  49.911  1.00  0.00    -0.002 C 
HETATM    2  C5  UNL     1      26.523   2.679  51.154  1.00  0.00     0.001 C 
ENDROOT
BRANCH   2   3
HETATM    3  C6  UNL     1      26.043   1.444  51.812  1.00  0.00     0.140 C 
HETATM    4  C7  UNL     1      24.718   1.839  52.476  1.00  0.00     0.080 C 
HETATM    5  C8  UNL     1      25.242   2.458  53.728  1.00  0.00     0.114 C 
HETATM    6  N1  UNL     1      26.439   1.981  53.962  1.00  0.00    -0.186 NA
HETATM    7  N2  UNL     1      26.806   1.081  52.988  1.00  0.00    -0.238 N 
BRANCH   7   8
HETATM    8  C9  UNL     1      27.782  -0.005  53.170  1.00  0.00     0.192 A 
HETATM    9  N3  UNL     1      27.732  -1.194  53.003  1.00  0.00    -0.198 NA
HETATM   10  C10 UNL     1      28.780  -1.980  53.247  1.00  0.00     0.171 A 
HETATM   11  C11 UNL     1      29.986  -1.378  53.717  1.00  0.00     0.111 A 
HETATM   12  S1  UNL     1      29.425   0.433  53.761  1.00  0.00    -0.058 SA
BRANCH  10  13
HETATM   13  O1  UNL     1      28.542  -3.348  52.996  1.00  0.00    -0.344 OA
HETATM   14  H11 UNL     1      28.369  -3.999  53.735  1.00  0.00     0.219 HD
ENDBRANCH  10  13
ENDBRANCH   7   8
ENDBRANCH   2   3
BRANCH   1  15
HETATM   15  C3  UNL     1      26.877   4.280  49.357  1.00  0.00     0.002 C 
HETATM   16  C2  UNL     1      26.087   5.233  48.928  1.00  0.00    -0.080 C 
HETATM   17  C1  UNL     1      24.625   5.056  49.002  1.00  0.00     0.043 C 
BRANCH  16  18
HETATM   18  C12 UNL     1      26.674   6.477  48.375  1.00  0.00     0.072 C 
BRANCH  18  19
HETATM   19  C13 UNL     1      28.149   6.483  48.349  1.00  0.00    -0.054 A 
HETATM   20  C14 UNL     1      28.956   5.398  48.074  1.00  0.00     0.009 A 
HETATM   21  C15 UNL     1      30.334   5.471  48.066  1.00  0.00     0.024 A 
HETATM   22  C16 UNL     1      30.924   6.702  48.351  1.00  0.00     0.034 A 
HETATM   23 CL1  UNL     1      32.679   6.896  48.365  1.00  0.00    -0.084 Cl
HETATM   24  C17 UNL     1      30.153   7.815  48.633  1.00  0.00     0.024 A 
HETATM   25  C18 UNL     1      28.778   7.701  48.630  1.00  0.00     0.009 A 
ENDBRANCH  18  19
ENDBRANCH  16  18
ENDBRANCH   1  15
TORSDOF 6
ENDMDL
MODEL 3
REMARK VINA RESULT:      -7.9      4.335      8.193
REMARK  6 active torsions:
REMARK  status: ('A' for Active; 'I' for Inactive)
REMARK    1  A    between atoms: C2_2  and  C12_17 
REMARK    2  A    between atoms: C3_3  and  C4_4 
REMARK    3  A    between atoms: C5_5  and  C6_6 
REMARK    4  A    between atoms: N2_10  and  C9_11 
REMARK    5  A    between atoms: C10_13  and  O1_14 
REMARK    6  A    between atoms: C12_17  and  C13_18 
ROOT
HETATM    1  C4  UNL     1      25.854   3.666  49.679  1.00  0.00    -0.002 C 
HETATM    2  C5  UNL     1      25.237   3.246  50.747  1.00  0.00     0.001 C 
ENDROOT
BRANCH   2   3
HETATM    3  C6  UNL     1      25.355   1.923  51.399  1.00  0.00     0.140 C 
HETATM    4  C7  UNL     1      23.909   1.477  51.655  1.00  0.00     0.080 C 
HETATM    5  C8  UNL     1      23.641   2.222  52.920  1.00  0.00     0.114 C 
HETATM    6  N1  UNL     1      24.785   2.483  53.502  1.00  0.00    -0.186 NA
HETATM    7  N2  UNL     1      25.835   1.991  52.763  1.00  0.00    -0.238 N 
BRANCH   7   8
HETATM    8  C9  UNL     1      27.152   1.627  53.308  1.00  0.00     0.192 A 
HETATM    9  N3  UNL     1      28.004   2.247  53.887  1.00  0.00    -0.198 NA
HETATM   10  C10 UNL     1      29.137   1.672  54.288  1.00  0.00     0.171 A 
HETATM   11  C11 UNL     1      29.329   0.283  54.016  1.00  0.00     0.111 A 
HETATM   12  S1  UNL     1      27.694  -0.079  53.124  1.00  0.00    -0.058 SA
BRANCH  10  13
HETATM   13  O1  UNL     1      30.022   2.549  54.950  1.00  0.00    -0.344 OA
HETATM   14  H11 UNL     1      29.967   2.711  55.936  1.00  0.00     0.219 HD
ENDBRANCH  10  13
ENDBRANCH   7   8
ENDBRANCH   2   3
BRANCH   1  15
HETATM   15  C3  UNL     1      25.666   4.997  49.114  1.00  0.00     0.002 C 
HETATM   16  C2  UNL     1      26.652   5.673  48.577  1.00  0.00    -0.080 C 
HETATM   17  C1  UNL     1      28.001   5.081  48.534  1.00  0.00     0.043 C 
BRANCH  16  18
HETATM   18  C12 UNL     1      26.396   7.022  48.019  1.00  0.00     0.072 C 
BRANCH  18  19
HETATM   19  C13 UNL     1      27.503   7.976  48.227  1.00  0.00    -0.054 A 
HETATM   20  C14 UNL     1      28.485   8.286  47.310  1.00  0.00     0.009 A 
HETATM   21  C15 UNL     1      29.495   9.190  47.569  1.00  0.00     0.024 A 
HETATM   22  C16 UNL     1      29.513   9.808  48.819  1.00  0.00     0.034 A 
HETATM   23 CL1  UNL     1      30.766  10.978  49.245  1.00  0.00    -0.084 Cl
HETATM   24  C17 UNL     1      28.549   9.526  49.768  1.00  0.00     0.024 A 
HETATM   25  C18 UNL     1      27.554   8.617  49.470  1.00  0.00     0.009 A 
ENDBRANCH  18  19
ENDBRANCH  16  18
ENDBRANCH   1  15
TORSDOF 6
ENDMDL
MODEL 4
REMARK VINA RESULT:      -7.7      3.464      5.761
REMARK  6 active torsions:
REMARK  status: ('A' for Active; 'I' for Inactive)
REMARK    1  A    between atoms: C2_2  and  C12_17 
REMARK    2  A    between atoms: C3_3  and  C4_4 
REMARK    3  A    between atoms: C5_5  and  C6_6 
REMARK    4  A    between atoms: N2_10  and  C9_11 
REMARK    5  A    between atoms: C10_13  and  O1_14 
REMARK    6  A    between atoms: C12_17  and  C13_18 
ROOT
HETATM    1  C4  UNL     1      28.138   5.668  48.371  1.00  0.00    -0.002 C 
HETATM    2  C5  UNL     1      29.383   5.426  48.075  1.00  0.00     0.001 C 
ENDROOT
BRANCH   2   3
HETATM    3  C6  UNL     1      30.426   6.400  47.684  1.00  0.00     0.140 C 
HETATM    4  C7  UNL     1      31.740   5.610  47.723  1.00  0.00     0.080 C 
HETATM    5  C8  UNL     1      32.032   5.686  49.185  1.00  0.00     0.114 C 
HETATM    6  N1  UNL     1      31.410   6.725  49.682  1.00  0.00    -0.186 NA
HETATM    7  N2  UNL     1      30.705   7.389  48.704  1.00  0.00    -0.238 N 
BRANCH   7   8
HETATM    8  C9  UNL     1      30.342   8.814  48.748  1.00  0.00     0.192 A 
HETATM    9  N3  UNL     1      29.392   9.410  49.181  1.00  0.00    -0.198 NA
HETATM   10  C10 UNL     1      29.299  10.736  49.094  1.00  0.00     0.171 A 
HETATM   11  C11 UNL     1      30.363  11.453  48.469  1.00  0.00     0.111 A 
HETATM   12  S1  UNL     1      31.494   9.995  48.030  1.00  0.00    -0.058 SA
BRANCH  10  13
HETATM   13  O1  UNL     1      28.117  11.266  49.655  1.00  0.00    -0.344 OA
HETATM   14  H11 UNL     1      27.909  12.244  49.622  1.00  0.00     0.219 HD
ENDBRANCH  10  13
ENDBRANCH   7   8
ENDBRANCH   2   3
BRANCH   1  15
HETATM   15  C3  UNL     1      27.184   4.629  48.746  1.00  0.00     0.002 C 
HETATM   16  C2  UNL     1      26.072   4.900  49.384  1.00  0.00    -0.080 C 
HETATM   17  C1  UNL     1      25.759   6.296  49.741  1.00  0.00     0.043 C 
BRANCH  16  18
HETATM   18  C12 UNL     1      25.144   3.799  49.737  1.00  0.00     0.072 C 
BRANCH  18  19
HETATM   19  C13 UNL     1      25.548   3.037  50.934  1.00  0.00    -0.054 A 
HETATM   20  C14 UNL     1      26.711   2.307  51.072  1.00  0.00     0.009 A 
HETATM   21  C15 UNL     1      27.029   1.615  52.223  1.00  0.00     0.024 A 
HETATM   22  C16 UNL     1      26.126   1.662  53.284  1.00  0.00     0.034 A 
HETATM   23 CL1  UNL     1      26.444   0.808  54.797  1.00  0.00    -0.084 Cl
HETATM   24  C17 UNL     1      24.949   2.381  53.188  1.00  0.00     0.024 A 
HETATM   25  C18 UNL     1      24.667   3.061  52.021  1.00  0.00     0.009 A 
ENDBRANCH  18  19
ENDBRANCH  16  18
ENDBRANCH   1  15
TORSDOF 6
ENDMDL
MODEL 5
REMARK VINA RESULT:      -7.4      2.608      3.188
REMARK  6 active torsions:
REMARK  status: ('A' for Active; 'I' for Inactive)
REMARK    1  A    between atoms: C2_2  and  C12_17 
REMARK    2  A    between atoms: C3_3  and  C4_4 
REMARK    3  A    between atoms: C5_5  and  C6_6 
REMARK    4  A    between atoms: N2_10  and  C9_11 
REMARK    5  A    between atoms: C10_13  and  O1_14 
REMARK    6  A    between atoms: C12_17  and  C13_18 
ROOT
HETATM    1  C4  UNL     1      21.840   2.506  52.375  1.00  0.00    -0.002 C 
HETATM    2  C5  UNL     1      20.577   2.678  52.107  1.00  0.00     0.001 C 
ENDROOT
BRANCH   2   3
HETATM    3  C6  UNL     1      19.923   3.890  51.565  1.00  0.00     0.140 C 
HETATM    4  C7  UNL     1      18.689   3.372  50.816  1.00  0.00     0.080 C 
HETATM    5  C8  UNL     1      19.327   2.981  49.525  1.00  0.00     0.114 C 
HETATM    6  N1  UNL     1      20.440   3.659  49.387  1.00  0.00    -0.186 NA
HETATM    7  N2  UNL     1      20.643   4.492  50.463  1.00  0.00    -0.238 N 
BRANCH   7   8
HETATM    8  C9  UNL     1      21.441   5.727  50.433  1.00  0.00     0.192 A 
HETATM    9  N3  UNL     1      22.428   6.086  51.018  1.00  0.00    -0.198 NA
HETATM   10  C10 UNL     1      22.970   7.285  50.806  1.00  0.00     0.171 A 
HETATM   11  C11 UNL     1      22.351   8.153  49.857  1.00  0.00     0.111 A 
HETATM   12  S1  UNL     1      20.913   7.040  49.319  1.00  0.00    -0.058 SA
BRANCH  10  13
HETATM   13  O1  UNL     1      24.124   7.537  51.578  1.00  0.00    -0.344 OA
HETATM   14  H11 UNL     1      25.024   7.191  51.313  1.00  0.00     0.219 HD
ENDBRANCH  10  13
ENDBRANCH   7   8
ENDBRANCH   2   3
BRANCH   1  15
HETATM   15  C3  UNL     1      22.386   1.264  52.910  1.00  0.00     0.002 C 
HETATM   16  C2  UNL     1      23.674   1.080  53.070  1.00  0.00    -0.080 C 
HETATM   17  C1  UNL     1      24.614   2.154  52.703  1.00  0.00     0.043 C 
BRANCH  16  18
HETATM   18  C12 UNL     1      24.166  -0.206  53.619  1.00  0.00     0.072 C 
BRANCH  18  19
HETATM   19  C13 UNL     1      25.636  -0.284  53.735  1.00  0.00    -0.054 A 
HETATM   20  C14 UNL     1      26.397   0.270  54.743  1.00  0.00     0.009 A 
HETATM   21  C15 UNL     1      27.772   0.161  54.792  1.00  0.00     0.024 A 
HETATM   22  C16 UNL     1      28.407  -0.543  53.769  1.00  0.00     0.034 A 
HETATM   23 CL1  UNL     1      30.162  -0.738  53.743  1.00  0.00    -0.084 Cl
HETATM   24  C17 UNL     1      27.682  -1.114  52.739  1.00  0.00     0.024 A 
HETATM   25  C18 UNL     1      26.309  -0.983  52.727  1.00  0.00     0.009 A 
ENDBRANCH  18  19
ENDBRANCH  16  18
ENDBRANCH   1  15
TORSDOF 6
ENDMDL
MODEL 6
REMARK VINA RESULT:      -7.3      1.682      2.302
REMARK  6 active torsions:
REMARK  status: ('A' for Active; 'I' for Inactive)
REMARK    1  A    between atoms: C2_2  and  C12_17 
REMARK    2  A    between atoms: C3_3  and  C4_4 
REMARK    3  A    between atoms: C5_5  and  C6_6 
REMARK    4  A    between atoms: N2_10  and  C9_11 
REMARK    5  A    between atoms: C10_13  and  O1_14 
REMARK    6  A    between atoms: C12_17  and  C13_18 
ROOT
HETATM    1  C4  UNL     1      23.690   5.419  51.930  1.00  0.00    -0.002 C 
HETATM    2  C5  UNL     1      22.649   5.900  51.313  1.00  0.00     0.001 C 
ENDROOT
BRANCH   2   3
HETATM    3  C6  UNL     1      22.543   7.180  50.579  1.00  0.00     0.140 C 
HETATM    4  C7  UNL     1      21.302   7.026  49.691  1.00  0.00     0.080 C 
HETATM    5  C8  UNL     1      21.903   6.272  48.552  1.00  0.00     0.114 C 
HETATM    6  N1  UNL     1      23.193   6.500  48.534  1.00  0.00    -0.186 NA
HETATM    7  N2  UNL     1      23.555   7.346  49.557  1.00  0.00    -0.238 N 
BRANCH   7   8
HETATM    8  C9  UNL     1      24.742   8.215  49.550  1.00  0.00     0.192 A 
HETATM    9  N3  UNL     1      25.610   8.431  50.353  1.00  0.00    -0.198 NA
HETATM   10  C10 UNL     1      26.601   9.285  50.100  1.00  0.00     0.171 A 
HETATM   11  C11 UNL     1      26.618   9.953  48.838  1.00  0.00     0.111 A 
HETATM   12  S1  UNL     1      25.050   9.203  48.077  1.00  0.00    -0.058 SA
BRANCH  10  13
HETATM   13  O1  UNL     1      27.530   9.415  51.154  1.00  0.00    -0.344 OA
HETATM   14  H11 UNL     1      28.396   9.904  51.039  1.00  0.00     0.219 HD
ENDBRANCH  10  13
ENDBRANCH   7   8
ENDBRANCH   2   3
BRANCH   1  15
HETATM   15  C3  UNL     1      23.690   4.138  52.629  1.00  0.00     0.002 C 
HETATM   16  C2  UNL     1      24.234   3.063  52.115  1.00  0.00    -0.080 C 
HETATM   17  C1  UNL     1      24.873   3.133  50.789  1.00  0.00     0.043 C 
BRANCH  16  18
HETATM   18  C12 UNL     1      24.201   1.791  52.876  1.00  0.00     0.072 C 
BRANCH  18  19
HETATM   19  C13 UNL     1      25.515   1.130  52.995  1.00  0.00    -0.054 A 
HETATM   20  C14 UNL     1      25.854  -0.096  52.463  1.00  0.00     0.009 A 
HETATM   21  C15 UNL     1      27.105  -0.658  52.612  1.00  0.00     0.024 A 
HETATM   22  C16 UNL     1      28.060   0.056  53.336  1.00  0.00     0.034 A 
HETATM   23 CL1  UNL     1      29.689  -0.581  53.581  1.00  0.00    -0.084 Cl
HETATM   24  C17 UNL     1      27.763   1.288  53.887  1.00  0.00     0.024 A 
HETATM   25  C18 UNL     1      26.500   1.817  53.715  1.00  0.00     0.009 A 
ENDBRANCH  18  19
ENDBRANCH  16  18
ENDBRANCH   1  15
TORSDOF 6
ENDMDL
MODEL 7
REMARK VINA RESULT:      -7.3      2.705      3.686
REMARK  6 active torsions:
REMARK  status: ('A' for Active; 'I' for Inactive)
REMARK    1  A    between atoms: C2_2  and  C12_17 
REMARK    2  A    between atoms: C3_3  and  C4_4 
REMARK    3  A    between atoms: C5_5  and  C6_6 
REMARK    4  A    between atoms: N2_10  and  C9_11 
REMARK    5  A    between atoms: C10_13  and  O1_14 
REMARK    6  A    between atoms: C12_17  and  C13_18 
ROOT
HETATM    1  C4  UNL     1      23.652   3.026  51.551  1.00  0.00    -0.002 C 
HETATM    2  C5  UNL     1      24.398   3.438  50.566  1.00  0.00     0.001 C 
ENDROOT
BRANCH   2   3
HETATM    3  C6  UNL     1      24.034   4.389  49.492  1.00  0.00     0.140 C 
HETATM    4  C7  UNL     1      25.356   5.053  49.087  1.00  0.00     0.080 C 
HETATM    5  C8  UNL     1      25.449   6.093  50.154  1.00  0.00     0.114 C 
HETATM    6  N1  UNL     1      24.245   6.329  50.613  1.00  0.00    -0.186 NA
HETATM    7  N2  UNL     1      23.313   5.550  49.968  1.00  0.00    -0.238 N 
BRANCH   7   8
HETATM    8  C9  UNL     1      21.888   5.888  49.825  1.00  0.00     0.192 A 
HETATM    9  N3  UNL     1      20.874   5.254  49.946  1.00  0.00    -0.198 NA
HETATM   10  C10 UNL     1      19.676   5.806  49.758  1.00  0.00     0.171 A 
HETATM   11  C11 UNL     1      19.612   7.187  49.404  1.00  0.00     0.111 A 
HETATM   12  S1  UNL     1      21.467   7.580  49.378  1.00  0.00    -0.058 SA
BRANCH  10  13
HETATM   13  O1  UNL     1      18.598   4.914  49.942  1.00  0.00    -0.344 OA
HETATM   14  H11 UNL     1      17.654   5.177  49.743  1.00  0.00     0.219 HD
ENDBRANCH  10  13
ENDBRANCH   7   8
ENDBRANCH   2   3
BRANCH   1  15
HETATM   15  C3  UNL     1      24.109   2.080  52.564  1.00  0.00     0.002 C 
HETATM   16  C2  UNL     1      23.527   0.922  52.751  1.00  0.00    -0.080 C 
HETATM   17  C1  UNL     1      22.370   0.546  51.917  1.00  0.00     0.043 C 
BRANCH  16  18
HETATM   18  C12 UNL     1      24.039   0.005  53.797  1.00  0.00     0.072 C 
BRANCH  18  19
HETATM   19  C13 UNL     1      25.508  -0.131  53.806  1.00  0.00    -0.054 A 
HETATM   20  C14 UNL     1      26.365   0.417  54.739  1.00  0.00     0.009 A 
HETATM   21  C15 UNL     1      27.733   0.250  54.689  1.00  0.00     0.024 A 
HETATM   22  C16 UNL     1      28.261  -0.506  53.643  1.00  0.00     0.034 A 
HETATM   23 CL1  UNL     1      30.001  -0.775  53.493  1.00  0.00    -0.084 Cl
HETATM   24  C17 UNL     1      27.440  -1.072  52.686  1.00  0.00     0.024 A 
HETATM   25  C18 UNL     1      26.076  -0.884  52.772  1.00  0.00     0.009 A 
ENDBRANCH  18  19
ENDBRANCH  16  18
ENDBRANCH   1  15
TORSDOF 6
ENDMDL
MODEL 8
REMARK VINA RESULT:      -7.2      5.445      8.997
REMARK  6 active torsions:
REMARK  status: ('A' for Active; 'I' for Inactive)
REMARK    1  A    between atoms: C2_2  and  C12_17 
REMARK    2  A    between atoms: C3_3  and  C4_4 
REMARK    3  A    between atoms: C5_5  and  C6_6 
REMARK    4  A    between atoms: N2_10  and  C9_11 
REMARK    5  A    between atoms: C10_13  and  O1_14 
REMARK    6  A    between atoms: C12_17  and  C13_18 
ROOT
HETATM    1  C4  UNL     1      25.663   3.068  50.255  1.00  0.00    -0.002 C 
HETATM    2  C5  UNL     1      26.431   2.304  50.978  1.00  0.00     0.001 C 
ENDROOT
BRANCH   2   3
HETATM    3  C6  UNL     1      26.027   1.173  51.842  1.00  0.00     0.140 C 
HETATM    4  C7  UNL     1      24.775   1.665  52.580  1.00  0.00     0.080 C 
HETATM    5  C8  UNL     1      25.423   2.441  53.677  1.00  0.00     0.114 C 
HETATM    6  N1  UNL     1      26.640   1.988  53.848  1.00  0.00    -0.186 NA
HETATM    7  N2  UNL     1      26.909   0.963  52.971  1.00  0.00    -0.238 N 
BRANCH   7   8
HETATM    8  C9  UNL     1      27.903  -0.097  53.195  1.00  0.00     0.192 A 
HETATM    9  N3  UNL     1      27.846  -1.298  53.178  1.00  0.00    -0.198 NA
HETATM   10  C10 UNL     1      28.916  -2.054  53.421  1.00  0.00     0.171 A 
HETATM   11  C11 UNL     1      30.156  -1.405  53.706  1.00  0.00     0.111 A 
HETATM   12  S1  UNL     1      29.589   0.400  53.582  1.00  0.00    -0.058 SA
BRANCH  10  13
HETATM   13  O1  UNL     1      28.665  -3.441  53.359  1.00  0.00    -0.344 OA
HETATM   14  H11 UNL     1      29.366  -4.093  53.070  1.00  0.00     0.219 HD
ENDBRANCH  10  13
ENDBRANCH   7   8
ENDBRANCH   2   3
BRANCH   1  15
HETATM   15  C3  UNL     1      26.163   4.164  49.432  1.00  0.00     0.002 C 
HETATM   16  C2  UNL     1      25.737   5.394  49.575  1.00  0.00    -0.080 C 
HETATM   17  C1  UNL     1      24.719   5.698  50.598  1.00  0.00     0.043 C 
BRANCH  16  18
HETATM   18  C12 UNL     1      26.286   6.464  48.708  1.00  0.00     0.072 C 
BRANCH  18  19
HETATM   19  C13 UNL     1      25.265   7.398  48.192  1.00  0.00    -0.054 A 
HETATM   20  C14 UNL     1      25.237   8.760  48.403  1.00  0.00     0.009 A 
HETATM   21  C15 UNL     1      24.251   9.578  47.890  1.00  0.00     0.024 A 
HETATM   22  C16 UNL     1      23.244   8.988  47.127  1.00  0.00     0.034 A 
HETATM   23 CL1  UNL     1      21.939   9.951  46.429  1.00  0.00    -0.084 Cl
HETATM   24  C17 UNL     1      23.234   7.626  46.891  1.00  0.00     0.024 A 
HETATM   25  C18 UNL     1      24.239   6.842  47.420  1.00  0.00     0.009 A 
ENDBRANCH  18  19
ENDBRANCH  16  18
ENDBRANCH   1  15
TORSDOF 6
ENDMDL
MODEL 9
REMARK VINA RESULT:      -7.0      3.823      4.417
REMARK  6 active torsions:
REMARK  status: ('A' for Active; 'I' for Inactive)
REMARK    1  A    between atoms: C2_2  and  C12_17 
REMARK    2  A    between atoms: C3_3  and  C4_4 
REMARK    3  A    between atoms: C5_5  and  C6_6 
REMARK    4  A    between atoms: N2_10  and  C9_11 
REMARK    5  A    between atoms: C10_13  and  O1_14 
REMARK    6  A    between atoms: C12_17  and  C13_18 
ROOT
HETATM    1  C4  UNL     1      21.969   1.975  51.649  1.00  0.00    -0.002 C 
HETATM    2  C5  UNL     1      20.693   2.221  51.560  1.00  0.00     0.001 C 
ENDROOT
BRANCH   2   3
HETATM    3  C6  UNL     1      20.030   3.296  50.790  1.00  0.00     0.140 C 
HETATM    4  C7  UNL     1      18.536   3.146  51.105  1.00  0.00     0.080 C 
HETATM    5  C8  UNL     1      18.187   2.061  50.141  1.00  0.00     0.114 C 
HETATM    6  N1  UNL     1      19.067   2.066  49.170  1.00  0.00    -0.186 NA
HETATM    7  N2  UNL     1      20.004   3.054  49.363  1.00  0.00    -0.238 N 
BRANCH   7   8
HETATM    8  C9  UNL     1      20.786   3.692  48.293  1.00  0.00     0.192 A 
HETATM    9  N3  UNL     1      21.094   3.353  47.182  1.00  0.00    -0.198 NA
HETATM   10  C10 UNL     1      21.828   4.133  46.389  1.00  0.00     0.171 A 
HETATM   11  C11 UNL     1      22.251   5.402  46.887  1.00  0.00     0.111 A 
HETATM   12  S1  UNL     1      21.469   5.327  48.613  1.00  0.00    -0.058 SA
BRANCH  10  13
HETATM   13  O1  UNL     1      22.093   3.574  45.120  1.00  0.00    -0.344 OA
HETATM   14  H11 UNL     1      21.947   4.089  44.275  1.00  0.00     0.219 HD
ENDBRANCH  10  13
ENDBRANCH   7   8
ENDBRANCH   2   3
BRANCH   1  15
HETATM   15  C3  UNL     1      22.524   0.883  52.441  1.00  0.00     0.002 C 
HETATM   16  C2  UNL     1      23.691   0.971  53.031  1.00  0.00    -0.080 C 
HETATM   17  C1  UNL     1      24.481   2.209  52.900  1.00  0.00     0.043 C 
BRANCH  16  18
HETATM   18  C12 UNL     1      24.200  -0.175  53.822  1.00  0.00     0.072 C 
BRANCH  18  19
HETATM   19  C13 UNL     1      25.672  -0.271  53.856  1.00  0.00    -0.054 A 
HETATM   20  C14 UNL     1      26.494   0.258  54.829  1.00  0.00     0.009 A 
HETATM   21  C15 UNL     1      27.867   0.132  54.802  1.00  0.00     0.024 A 
HETATM   22  C16 UNL     1      28.437  -0.564  53.736  1.00  0.00     0.034 A 
HETATM   23 CL1  UNL     1      30.186  -0.778  53.612  1.00  0.00    -0.084 Cl
HETATM   24  C17 UNL     1      27.651  -1.110  52.738  1.00  0.00     0.024 A 
HETATM   25  C18 UNL     1      26.281  -0.963  52.803  1.00  0.00     0.009 A 
ENDBRANCH  18  19
ENDBRANCH  16  18
ENDBRANCH   1  15
TORSDOF 6
ENDMDL
