MODEL 1
REMARK VINA RESULT:      -8.4      0.000      0.000
REMARK  5 active torsions:
REMARK  status: ('A' for Active; 'I' for Inactive)
REMARK    1  A    between atoms: N1_2  and  C2_3 
REMARK    2  A    between atoms: C3_5  and  N3_6 
REMARK    3  A    between atoms: N4_7  and  C4_8 
REMARK    4  A    between atoms: C11_16  and  N6_17 
REMARK    5  A    between atoms: N6_17  and  C12_18 
ROOT
HETATM    1  C2  UNL     1      28.048   0.921  53.298  1.00  0.00     0.753 A 
HETATM    2  N2  UNL     1      27.949   1.874  52.348  1.00  0.00     0.134 NA
HETATM    3  C3  UNL     1      26.848   2.057  51.616  1.00  0.00     0.798 A 
HETATM    4  N5  UNL     1      25.844   1.243  51.879  1.00  0.00     0.135 NA
HETATM    5  C11 UNL     1      25.812   0.261  52.789  1.00  0.00     0.758 A 
HETATM    6  N7  UNL     1      26.962   0.156  53.472  1.00  0.00     0.131 NA
ENDROOT
BRANCH   3   7
HETATM    7  N3  UNL     1      26.697   3.036  50.615  1.00  0.00     0.042 NA
HETATM    8  N4  UNL     1      25.688   3.802  50.613  1.00  0.00    -0.167 NA
BRANCH   8   9
HETATM    9  C4  UNL     1      25.478   4.827  49.611  1.00  0.00     0.158 A 
HETATM   10  C5  UNL     1      25.085   6.114  50.223  1.00  0.00     0.002 A 
HETATM   11  C6  UNL     1      25.538   7.352  50.211  1.00  0.00    -0.002 A 
HETATM   12  C7  UNL     1      26.728   7.550  49.405  1.00  0.00     0.002 A 
HETATM   13  C8  UNL     1      27.151   6.446  48.819  1.00  0.00    -0.081 A 
HETATM   14  C9  UNL     1      28.373   6.571  47.970  1.00  0.00     0.043 C 
HETATM   15  C10 UNL     1      26.706   5.036  48.780  1.00  0.00     0.067 A 
ENDBRANCH   8   9
ENDBRANCH   3   7
BRANCH   1  16
HETATM   16  N1  UNL     1      29.222   0.723  54.080  1.00  0.00    -0.226 N 
HETATM   17  C1  UNL     1      29.998  -0.498  53.931  1.00  0.00     0.165 C 
HETATM   18  H4  UNL     1      29.474   1.505  54.754  1.00  0.00     0.177 HD
ENDBRANCH   1  16
BRANCH   5  19
HETATM   19  N6  UNL     1      24.744  -0.620  53.082  1.00  0.00    -0.187 N 
HETATM   20  H14 UNL     1      24.954  -1.648  53.039  1.00  0.00     0.184 HD
BRANCH  19  21
HETATM   21  C12 UNL     1      23.423  -0.279  53.426  1.00  0.00     0.049 A 
HETATM   22  C13 UNL     1      22.647   0.685  52.825  1.00  0.00     0.030 A 
HETATM   23  C14 UNL     1      21.354   1.017  53.165  1.00  0.00     0.002 A 
HETATM   24  C15 UNL     1      20.761   0.329  54.202  1.00  0.00     0.000 A 
HETATM   25  C16 UNL     1      21.491  -0.649  54.842  1.00  0.00     0.002 A 
HETATM   26  C17 UNL     1      22.763  -0.923  54.453  1.00  0.00     0.030 A 
ENDBRANCH  19  21
ENDBRANCH   5  19
TORSDOF 5
ENDMDL
MODEL 2
REMARK VINA RESULT:      -8.1      1.353      7.239
REMARK  5 active torsions:
REMARK  status: ('A' for Active; 'I' for Inactive)
REMARK    1  A    between atoms: N1_2  and  C2_3 
REMARK    2  A    between atoms: C3_5  and  N3_6 
REMARK    3  A    between atoms: N4_7  and  C4_8 
REMARK    4  A    between atoms: C11_16  and  N6_17 
REMARK    5  A    between atoms: N6_17  and  C12_18 
ROOT
HETATM    1  C2  UNL     1      27.376   2.184  53.101  1.00  0.00     0.753 A 
HETATM    2  N2  UNL     1      26.181   1.656  53.437  1.00  0.00     0.134 NA
HETATM    3  C3  UNL     1      25.170   1.543  52.574  1.00  0.00     0.798 A 
HETATM    4  N5  UNL     1      25.407   1.982  51.353  1.00  0.00     0.135 NA
HETATM    5  C11 UNL     1      26.541   2.525  50.892  1.00  0.00     0.758 A 
HETATM    6  N7  UNL     1      27.495   2.595  51.831  1.00  0.00     0.131 NA
ENDROOT
BRANCH   3   7
HETATM    7  N3  UNL     1      23.906   1.000  52.877  1.00  0.00     0.042 NA
HETATM    8  N4  UNL     1      23.724  -0.254  52.855  1.00  0.00    -0.167 NA
BRANCH   8   9
HETATM    9  C4  UNL     1      22.450  -0.872  53.158  1.00  0.00     0.158 A 
HETATM   10  C5  UNL     1      21.905  -0.394  54.446  1.00  0.00     0.002 A 
HETATM   11  C6  UNL     1      20.793   0.183  54.854  1.00  0.00    -0.002 A 
HETATM   12  C7  UNL     1      19.824   0.434  53.803  1.00  0.00     0.002 A 
HETATM   13  C8  UNL     1      20.231   0.036  52.613  1.00  0.00    -0.081 A 
HETATM   14  C9  UNL     1      19.286   0.262  51.478  1.00  0.00     0.043 C 
HETATM   15  C10 UNL     1      21.448  -0.611  52.077  1.00  0.00     0.067 A 
ENDBRANCH   8   9
ENDBRANCH   3   7
BRANCH   1  16
HETATM   16  N1  UNL     1      28.457   2.307  54.020  1.00  0.00    -0.226 N 
HETATM   17  C1  UNL     1      29.286   1.152  54.326  1.00  0.00     0.165 C 
HETATM   18  H4  UNL     1      28.604   3.270  54.447  1.00  0.00     0.177 HD
ENDBRANCH   1  16
BRANCH   5  19
HETATM   19  N6  UNL     1      26.810   3.001  49.586  1.00  0.00    -0.187 N 
HETATM   20  H14 UNL     1      27.018   2.278  48.853  1.00  0.00     0.184 HD
BRANCH  19  21
HETATM   21  C12 UNL     1      26.833   4.339  49.151  1.00  0.00     0.049 A 
HETATM   22  C13 UNL     1      27.895   4.987  48.563  1.00  0.00     0.030 A 
HETATM   23  C14 UNL     1      27.914   6.297  48.138  1.00  0.00     0.002 A 
HETATM   24  C15 UNL     1      26.770   7.048  48.308  1.00  0.00     0.000 A 
HETATM   25  C16 UNL     1      25.674   6.451  48.892  1.00  0.00     0.002 A 
HETATM   26  C17 UNL     1      25.727   5.153  49.287  1.00  0.00     0.030 A 
ENDBRANCH  19  21
ENDBRANCH   5  19
TORSDOF 5
ENDMDL
MODEL 3
REMARK VINA RESULT:      -8.0      1.726      4.760
REMARK  5 active torsions:
REMARK  status: ('A' for Active; 'I' for Inactive)
REMARK    1  A    between atoms: N1_2  and  C2_3 
REMARK    2  A    between atoms: C3_5  and  N3_6 
REMARK    3  A    between atoms: N4_7  and  C4_8 
REMARK    4  A    between atoms: C11_16  and  N6_17 
REMARK    5  A    between atoms: N6_17  and  C12_18 
ROOT
HETATM    1  C2  UNL     1      22.396   0.413  53.213  1.00  0.00     0.753 A 
HETATM    2  N2  UNL     1      22.563   1.363  52.270  1.00  0.00     0.134 NA
HETATM    3  C3  UNL     1      23.741   1.620  51.699  1.00  0.00     0.798 A 
HETATM    4  N5  UNL     1      24.751   0.880  52.113  1.00  0.00     0.135 NA
HETATM    5  C11 UNL     1      24.723  -0.089  53.036  1.00  0.00     0.758 A 
HETATM    6  N7  UNL     1      23.497  -0.272  53.550  1.00  0.00     0.131 NA
ENDROOT
BRANCH   3   7
HETATM    7  N3  UNL     1      23.963   2.600  50.713  1.00  0.00     0.042 NA
HETATM    8  N4  UNL     1      23.716   3.820  50.952  1.00  0.00    -0.167 NA
BRANCH   8   9
HETATM    9  C4  UNL     1      23.924   4.873  49.979  1.00  0.00     0.158 A 
HETATM   10  C5  UNL     1      23.950   6.206  50.616  1.00  0.00     0.002 A 
HETATM   11  C6  UNL     1      24.792   7.217  50.673  1.00  0.00    -0.002 A 
HETATM   12  C7  UNL     1      26.026   7.016  49.937  1.00  0.00     0.002 A 
HETATM   13  C8  UNL     1      26.088   5.845  49.333  1.00  0.00    -0.081 A 
HETATM   14  C9  UNL     1      27.331   5.564  48.554  1.00  0.00     0.043 C 
HETATM   15  C10 UNL     1      25.198   4.669  49.220  1.00  0.00     0.067 A 
ENDBRANCH   8   9
ENDBRANCH   3   7
BRANCH   1  16
HETATM   16  N1  UNL     1      21.140   0.136  53.825  1.00  0.00    -0.226 N 
HETATM   17  C1  UNL     1      20.818  -1.218  54.244  1.00  0.00     0.165 C 
HETATM   18  H4  UNL     1      20.484   0.964  53.945  1.00  0.00     0.177 HD
ENDBRANCH   1  16
BRANCH   5  19
HETATM   19  N6  UNL     1      25.797  -0.890  53.491  1.00  0.00    -0.187 N 
HETATM   20  H14 UNL     1      25.563  -1.868  53.794  1.00  0.00     0.184 HD
BRANCH  19  21
HETATM   21  C12 UNL     1      27.154  -0.529  53.586  1.00  0.00     0.049 A 
HETATM   22  C13 UNL     1      27.648   0.666  54.059  1.00  0.00     0.030 A 
HETATM   23  C14 UNL     1      28.977   1.016  54.150  1.00  0.00     0.002 A 
HETATM   24  C15 UNL     1      29.918   0.099  53.734  1.00  0.00     0.000 A 
HETATM   25  C16 UNL     1      29.481  -1.115  53.249  1.00  0.00     0.002 A 
HETATM   26  C17 UNL     1      28.153  -1.393  53.189  1.00  0.00     0.030 A 
ENDBRANCH  19  21
ENDBRANCH   5  19
TORSDOF 5
ENDMDL
MODEL 4
REMARK VINA RESULT:      -7.9      2.908      5.164
REMARK  5 active torsions:
REMARK  status: ('A' for Active; 'I' for Inactive)
REMARK    1  A    between atoms: N1_2  and  C2_3 
REMARK    2  A    between atoms: C3_5  and  N3_6 
REMARK    3  A    between atoms: N4_7  and  C4_8 
REMARK    4  A    between atoms: C11_16  and  N6_17 
REMARK    5  A    between atoms: N6_17  and  C12_18 
ROOT
HETATM    1  C2  UNL     1      24.395   3.064  50.080  1.00  0.00     0.753 A 
HETATM    2  N2  UNL     1      25.340   3.700  49.357  1.00  0.00     0.134 NA
HETATM    3  C3  UNL     1      26.626   3.731  49.712  1.00  0.00     0.798 A 
HETATM    4  N5  UNL     1      26.927   3.094  50.826  1.00  0.00     0.135 NA
HETATM    5  C11 UNL     1      26.091   2.428  51.633  1.00  0.00     0.758 A 
HETATM    6  N7  UNL     1      24.825   2.454  51.192  1.00  0.00     0.131 NA
ENDROOT
BRANCH   3   7
HETATM    7  N3  UNL     1      27.647   4.380  48.991  1.00  0.00     0.042 NA
HETATM    8  N4  UNL     1      27.518   5.592  48.646  1.00  0.00    -0.167 NA
BRANCH   8   9
HETATM    9  C4  UNL     1      28.532   6.314  47.904  1.00  0.00     0.158 A 
HETATM   10  C5  UNL     1      28.636   7.719  48.350  1.00  0.00     0.002 A 
HETATM   11  C6  UNL     1      29.588   8.502  48.816  1.00  0.00    -0.002 A 
HETATM   12  C7  UNL     1      30.885   7.863  48.942  1.00  0.00     0.002 A 
HETATM   13  C8  UNL     1      30.883   6.600  48.564  1.00  0.00    -0.081 A 
HETATM   14  C9  UNL     1      32.185   5.874  48.664  1.00  0.00     0.043 C 
HETATM   15  C10 UNL     1      29.871   5.659  48.036  1.00  0.00     0.067 A 
ENDBRANCH   8   9
ENDBRANCH   3   7
BRANCH   1  16
HETATM   16  N1  UNL     1      23.021   3.029  49.704  1.00  0.00    -0.226 N 
HETATM   17  C1  UNL     1      22.107   4.048  50.195  1.00  0.00     0.165 C 
HETATM   18  H4  UNL     1      22.730   2.233  49.063  1.00  0.00     0.177 HD
ENDBRANCH   1  16
BRANCH   5  19
HETATM   19  N6  UNL     1      26.400   1.741  52.831  1.00  0.00    -0.187 N 
HETATM   20  H14 UNL     1      25.858   2.017  53.687  1.00  0.00     0.184 HD
BRANCH  19  21
HETATM   21  C12 UNL     1      27.354   0.722  53.012  1.00  0.00     0.049 A 
HETATM   22  C13 UNL     1      28.647   0.886  53.452  1.00  0.00     0.030 A 
HETATM   23  C14 UNL     1      29.579  -0.114  53.628  1.00  0.00     0.002 A 
HETATM   24  C15 UNL     1      29.200  -1.408  53.343  1.00  0.00     0.000 A 
HETATM   25  C16 UNL     1      27.915  -1.633  52.898  1.00  0.00     0.002 A 
HETATM   26  C17 UNL     1      27.049  -0.597  52.748  1.00  0.00     0.030 A 
ENDBRANCH  19  21
ENDBRANCH   5  19
TORSDOF 5
ENDMDL
MODEL 5
REMARK VINA RESULT:      -7.7      1.886      7.524
REMARK  5 active torsions:
REMARK  status: ('A' for Active; 'I' for Inactive)
REMARK    1  A    between atoms: N1_2  and  C2_3 
REMARK    2  A    between atoms: C3_5  and  N3_6 
REMARK    3  A    between atoms: N4_7  and  C4_8 
REMARK    4  A    between atoms: C11_16  and  N6_17 
REMARK    5  A    between atoms: N6_17  and  C12_18 
ROOT
HETATM    1  C2  UNL     1      26.627   2.137  53.002  1.00  0.00     0.753 A 
HETATM    2  N2  UNL     1      25.300   2.198  53.238  1.00  0.00     0.134 NA
HETATM    3  C3  UNL     1      24.417   2.597  52.321  1.00  0.00     0.798 A 
HETATM    4  N5  UNL     1      24.922   2.934  51.150  1.00  0.00     0.135 NA
HETATM    5  C11 UNL     1      26.211   2.921  50.787  1.00  0.00     0.758 A 
HETATM    6  N7  UNL     1      27.017   2.505  51.775  1.00  0.00     0.131 NA
ENDROOT
BRANCH   3   7
HETATM    7  N3  UNL     1      23.026   2.677  52.520  1.00  0.00     0.042 NA
HETATM    8  N4  UNL     1      22.348   1.630  52.745  1.00  0.00    -0.167 NA
BRANCH   8   9
HETATM    9  C4  UNL     1      20.916   1.647  52.958  1.00  0.00     0.158 A 
HETATM   10  C5  UNL     1      20.178   1.821  51.689  1.00  0.00     0.002 A 
HETATM   11  C6  UNL     1      19.245   1.161  51.033  1.00  0.00    -0.002 A 
HETATM   12  C7  UNL     1      18.796  -0.055  51.685  1.00  0.00     0.002 A 
HETATM   13  C8  UNL     1      19.406  -0.289  52.830  1.00  0.00    -0.081 A 
HETATM   14  C9  UNL     1      18.995  -1.525  53.561  1.00  0.00     0.043 C 
HETATM   15  C10 UNL     1      20.449   0.392  53.627  1.00  0.00     0.067 A 
ENDBRANCH   8   9
ENDBRANCH   3   7
BRANCH   1  16
HETATM   16  N1  UNL     1      27.572   1.711  53.979  1.00  0.00    -0.226 N 
HETATM   17  C1  UNL     1      27.585   0.326  54.423  1.00  0.00     0.165 C 
HETATM   18  H4  UNL     1      28.238   2.455  54.343  1.00  0.00     0.177 HD
ENDBRANCH   1  16
BRANCH   5  19
HETATM   19  N6  UNL     1      26.767   3.280  49.536  1.00  0.00    -0.187 N 
HETATM   20  H14 UNL     1      27.094   2.495  48.921  1.00  0.00     0.184 HD
BRANCH  19  21
HETATM   21  C12 UNL     1      26.935   4.576  49.015  1.00  0.00     0.049 A 
HETATM   22  C13 UNL     1      25.957   5.536  48.886  1.00  0.00     0.030 A 
HETATM   23  C14 UNL     1      26.125   6.804  48.375  1.00  0.00     0.002 A 
HETATM   24  C15 UNL     1      27.384   7.168  47.948  1.00  0.00     0.000 A 
HETATM   25  C16 UNL     1      28.403   6.247  48.052  1.00  0.00     0.002 A 
HETATM   26  C17 UNL     1      28.165   5.013  48.567  1.00  0.00     0.030 A 
ENDBRANCH  19  21
ENDBRANCH   5  19
TORSDOF 5
ENDMDL
MODEL 6
REMARK VINA RESULT:      -7.6      4.499      7.604
REMARK  5 active torsions:
REMARK  status: ('A' for Active; 'I' for Inactive)
REMARK    1  A    between atoms: N1_2  and  C2_3 
REMARK    2  A    between atoms: C3_5  and  N3_6 
REMARK    3  A    between atoms: N4_7  and  C4_8 
REMARK    4  A    between atoms: C11_16  and  N6_17 
REMARK    5  A    between atoms: N6_17  and  C12_18 
ROOT
HETATM    1  C2  UNL     1      19.001   0.684  50.558  1.00  0.00     0.753 A 
HETATM    2  N2  UNL     1      20.287   0.998  50.816  1.00  0.00     0.134 NA
HETATM    3  C3  UNL     1      20.911   0.637  51.939  1.00  0.00     0.798 A 
HETATM    4  N5  UNL     1      20.188  -0.055  52.797  1.00  0.00     0.135 NA
HETATM    5  C11 UNL     1      18.910  -0.430  52.666  1.00  0.00     0.758 A 
HETATM    6  N7  UNL     1      18.372  -0.022  51.507  1.00  0.00     0.131 NA
ENDROOT
BRANCH   3   7
HETATM    7  N3  UNL     1      22.250   0.941  52.252  1.00  0.00     0.042 NA
HETATM    8  N4  UNL     1      22.868   0.279  53.138  1.00  0.00    -0.167 NA
BRANCH   8   9
HETATM    9  C4  UNL     1      24.244   0.543  53.503  1.00  0.00     0.158 A 
HETATM   10  C5  UNL     1      25.073  -0.679  53.427  1.00  0.00     0.002 A 
HETATM   11  C6  UNL     1      26.171  -1.046  52.798  1.00  0.00    -0.002 A 
HETATM   12  C7  UNL     1      26.752  -0.021  51.951  1.00  0.00     0.002 A 
HETATM   13  C8  UNL     1      26.072   1.109  51.959  1.00  0.00    -0.081 A 
HETATM   14  C9  UNL     1      26.610   2.214  51.110  1.00  0.00     0.043 C 
HETATM   15  C10 UNL     1      24.847   1.598  52.628  1.00  0.00     0.067 A 
ENDBRANCH   8   9
ENDBRANCH   3   7
BRANCH   1  16
HETATM   16  N1  UNL     1      18.332   1.067  49.360  1.00  0.00    -0.226 N 
HETATM   17  C1  UNL     1      17.166   1.935  49.423  1.00  0.00     0.165 C 
HETATM   18  H4  UNL     1      18.735   0.684  48.454  1.00  0.00     0.177 HD
ENDBRANCH   1  16
BRANCH   5  19
HETATM   19  N6  UNL     1      18.121  -1.172  53.578  1.00  0.00    -0.187 N 
HETATM   20  H14 UNL     1      18.164  -0.881  54.586  1.00  0.00     0.184 HD
BRANCH  19  21
HETATM   21  C12 UNL     1      17.280  -2.263  53.291  1.00  0.00     0.049 A 
HETATM   22  C13 UNL     1      16.099  -2.218  52.586  1.00  0.00     0.030 A 
HETATM   23  C14 UNL     1      15.277  -3.288  52.307  1.00  0.00     0.002 A 
HETATM   24  C15 UNL     1      15.656  -4.531  52.768  1.00  0.00     0.000 A 
HETATM   25  C16 UNL     1      16.830  -4.637  53.481  1.00  0.00     0.002 A 
HETATM   26  C17 UNL     1      17.592  -3.538  53.719  1.00  0.00     0.030 A 
ENDBRANCH  19  21
ENDBRANCH   5  19
TORSDOF 5
ENDMDL
MODEL 7
REMARK VINA RESULT:      -7.6      3.311      6.486
REMARK  5 active torsions:
REMARK  status: ('A' for Active; 'I' for Inactive)
REMARK    1  A    between atoms: N1_2  and  C2_3 
REMARK    2  A    between atoms: C3_5  and  N3_6 
REMARK    3  A    between atoms: N4_7  and  C4_8 
REMARK    4  A    between atoms: C11_16  and  N6_17 
REMARK    5  A    between atoms: N6_17  and  C12_18 
ROOT
HETATM    1  C2  UNL     1      22.768   4.613  52.066  1.00  0.00     0.753 A 
HETATM    2  N2  UNL     1      23.765   3.864  52.578  1.00  0.00     0.134 NA
HETATM    3  C3  UNL     1      23.701   2.534  52.668  1.00  0.00     0.798 A 
HETATM    4  N5  UNL     1      22.590   1.983  52.219  1.00  0.00     0.135 NA
HETATM    5  C11 UNL     1      21.530   2.607  51.691  1.00  0.00     0.758 A 
HETATM    6  N7  UNL     1      21.690   3.939  51.644  1.00  0.00     0.131 NA
ENDROOT
BRANCH   3   7
HETATM    7  N3  UNL     1      24.715   1.710  53.194  1.00  0.00     0.042 NA
HETATM    8  N4  UNL     1      24.455   0.525  53.560  1.00  0.00    -0.167 NA
BRANCH   8   9
HETATM    9  C4  UNL     1      25.454  -0.369  54.107  1.00  0.00     0.158 A 
HETATM   10  C5  UNL     1      25.966  -1.305  53.084  1.00  0.00     0.002 A 
HETATM   11  C6  UNL     1      27.145  -1.618  52.585  1.00  0.00    -0.002 A 
HETATM   12  C7  UNL     1      28.256  -0.879  53.156  1.00  0.00     0.002 A 
HETATM   13  C8  UNL     1      27.887  -0.015  54.083  1.00  0.00    -0.081 A 
HETATM   14  C9  UNL     1      28.977   0.784  54.717  1.00  0.00     0.043 C 
HETATM   15  C10 UNL     1      26.603   0.391  54.693  1.00  0.00     0.067 A 
ENDBRANCH   8   9
ENDBRANCH   3   7
BRANCH   1  16
HETATM   16  N1  UNL     1      22.833   6.033  51.970  1.00  0.00    -0.226 N 
HETATM   17  C1  UNL     1      22.342   6.704  50.776  1.00  0.00     0.165 C 
HETATM   18  H4  UNL     1      23.251   6.542  52.804  1.00  0.00     0.177 HD
ENDBRANCH   1  16
BRANCH   5  19
HETATM   19  N6  UNL     1      20.332   2.031  51.206  1.00  0.00    -0.187 N 
HETATM   20  H14 UNL     1      19.934   2.439  50.324  1.00  0.00     0.184 HD
BRANCH  19  21
HETATM   21  C12 UNL     1      19.605   0.967  51.771  1.00  0.00     0.049 A 
HETATM   22  C13 UNL     1      19.964   0.230  52.877  1.00  0.00     0.030 A 
HETATM   23  C14 UNL     1      19.250  -0.811  53.427  1.00  0.00     0.002 A 
HETATM   24  C15 UNL     1      18.059  -1.165  52.830  1.00  0.00     0.000 A 
HETATM   25  C16 UNL     1      17.648  -0.462  51.718  1.00  0.00     0.002 A 
HETATM   26  C17 UNL     1      18.404   0.555  51.230  1.00  0.00     0.030 A 
ENDBRANCH  19  21
ENDBRANCH   5  19
TORSDOF 5
ENDMDL
MODEL 8
REMARK VINA RESULT:      -7.5      3.608      6.602
REMARK  5 active torsions:
REMARK  status: ('A' for Active; 'I' for Inactive)
REMARK    1  A    between atoms: N1_2  and  C2_3 
REMARK    2  A    between atoms: C3_5  and  N3_6 
REMARK    3  A    between atoms: N4_7  and  C4_8 
REMARK    4  A    between atoms: C11_16  and  N6_17 
REMARK    5  A    between atoms: N6_17  and  C12_18 
ROOT
HETATM    1  C2  UNL     1      26.721   6.883  48.776  1.00  0.00     0.753 A 
HETATM    2  N2  UNL     1      27.964   6.581  48.351  1.00  0.00     0.134 NA
HETATM    3  C3  UNL     1      28.458   5.342  48.373  1.00  0.00     0.798 A 
HETATM    4  N5  UNL     1      27.648   4.412  48.842  1.00  0.00     0.135 NA
HETATM    5  C11 UNL     1      26.399   4.576  49.294  1.00  0.00     0.758 A 
HETATM    6  N7  UNL     1      25.994   5.853  49.231  1.00  0.00     0.131 NA
ENDROOT
BRANCH   3   7
HETATM    7  N3  UNL     1      29.747   4.978  47.940  1.00  0.00     0.042 NA
HETATM    8  N4  UNL     1      30.774   5.431  48.529  1.00  0.00    -0.167 NA
BRANCH   8   9
HETATM    9  C4  UNL     1      32.125   5.094  48.130  1.00  0.00     0.158 A 
HETATM   10  C5  UNL     1      32.178   3.795  47.427  1.00  0.00     0.002 A 
HETATM   11  C6  UNL     1      32.601   3.363  46.256  1.00  0.00    -0.002 A 
HETATM   12  C7  UNL     1      33.170   4.391  45.405  1.00  0.00     0.002 A 
HETATM   13  C8  UNL     1      33.163   5.589  45.957  1.00  0.00    -0.081 A 
HETATM   14  C9  UNL     1      33.734   6.700  45.139  1.00  0.00     0.043 C 
HETATM   15  C10 UNL     1      32.713   6.151  47.248  1.00  0.00     0.067 A 
ENDBRANCH   8   9
ENDBRANCH   3   7
BRANCH   1  16
HETATM   16  N1  UNL     1      26.191   8.205  48.754  1.00  0.00    -0.226 N 
HETATM   17  C1  UNL     1      26.182   9.007  49.967  1.00  0.00     0.165 C 
HETATM   18  H4  UNL     1      25.817   8.546  47.818  1.00  0.00     0.177 HD
ENDBRANCH   1  16
BRANCH   5  19
HETATM   19  N6  UNL     1      25.519   3.590  49.801  1.00  0.00    -0.187 N 
HETATM   20  H14 UNL     1      24.686   3.351  49.208  1.00  0.00     0.184 HD
BRANCH  19  21
HETATM   21  C12 UNL     1      25.631   2.885  51.014  1.00  0.00     0.049 A 
HETATM   22  C13 UNL     1      26.641   2.018  51.363  1.00  0.00     0.030 A 
HETATM   23  C14 UNL     1      26.747   1.330  52.552  1.00  0.00     0.002 A 
HETATM   24  C15 UNL     1      25.758   1.514  53.495  1.00  0.00     0.000 A 
HETATM   25  C16 UNL     1      24.720   2.370  53.200  1.00  0.00     0.002 A 
HETATM   26  C17 UNL     1      24.681   3.016  52.006  1.00  0.00     0.030 A 
ENDBRANCH  19  21
ENDBRANCH   5  19
TORSDOF 5
ENDMDL
MODEL 9
REMARK VINA RESULT:      -7.5      2.401      5.341
REMARK  5 active torsions:
REMARK  status: ('A' for Active; 'I' for Inactive)
REMARK    1  A    between atoms: N1_2  and  C2_3 
REMARK    2  A    between atoms: C3_5  and  N3_6 
REMARK    3  A    between atoms: N4_7  and  C4_8 
REMARK    4  A    between atoms: C11_16  and  N6_17 
REMARK    5  A    between atoms: N6_17  and  C12_18 
ROOT
HETATM    1  C2  UNL     1      22.313   0.244  53.610  1.00  0.00     0.753 A 
HETATM    2  N2  UNL     1      22.387   1.308  52.785  1.00  0.00     0.134 NA
HETATM    3  C3  UNL     1      23.506   1.655  52.147  1.00  0.00     0.798 A 
HETATM    4  N5  UNL     1      24.554   0.887  52.370  1.00  0.00     0.135 NA
HETATM    5  C11 UNL     1      24.616  -0.192  53.160  1.00  0.00     0.758 A 
HETATM    6  N7  UNL     1      23.445  -0.459  53.756  1.00  0.00     0.131 NA
ENDROOT
BRANCH   3   7
HETATM    7  N3  UNL     1      23.631   2.756  51.277  1.00  0.00     0.042 NA
HETATM    8  N4  UNL     1      24.172   3.830  51.674  1.00  0.00    -0.167 NA
BRANCH   8   9
HETATM    9  C4  UNL     1      24.330   4.995  50.827  1.00  0.00     0.158 A 
HETATM   10  C5  UNL     1      24.176   4.653  49.398  1.00  0.00     0.002 A 
HETATM   11  C6  UNL     1      23.409   5.050  48.402  1.00  0.00    -0.002 A 
HETATM   12  C7  UNL     1      22.456   6.087  48.751  1.00  0.00     0.002 A 
HETATM   13  C8  UNL     1      22.524   6.454  50.016  1.00  0.00    -0.081 A 
HETATM   14  C9  UNL     1      21.572   7.518  50.451  1.00  0.00     0.043 C 
HETATM   15  C10 UNL     1      23.344   6.064  51.183  1.00  0.00     0.067 A 
ENDBRANCH   8   9
ENDBRANCH   3   7
BRANCH   1  16
HETATM   16  N1  UNL     1      21.121  -0.130  54.294  1.00  0.00    -0.226 N 
HETATM   17  C1  UNL     1      19.935  -0.501  53.538  1.00  0.00     0.165 C 
HETATM   18  H4  UNL     1      21.164  -0.115  55.356  1.00  0.00     0.177 HD
ENDBRANCH   1  16
BRANCH   5  19
HETATM   19  N6  UNL     1      25.732  -1.026  53.410  1.00  0.00    -0.187 N 
HETATM   20  H14 UNL     1      25.548  -2.057  53.471  1.00  0.00     0.184 HD
BRANCH  19  21
HETATM   21  C12 UNL     1      27.072  -0.632  53.587  1.00  0.00     0.049 A 
HETATM   22  C13 UNL     1      27.509   0.520  54.200  1.00  0.00     0.030 A 
HETATM   23  C14 UNL     1      28.821   0.903  54.371  1.00  0.00     0.002 A 
HETATM   24  C15 UNL     1      29.806   0.066  53.891  1.00  0.00     0.000 A 
HETATM   25  C16 UNL     1      29.427  -1.103  53.267  1.00  0.00     0.002 A 
HETATM   26  C17 UNL     1      28.113  -1.416  53.134  1.00  0.00     0.030 A 
ENDBRANCH  19  21
ENDBRANCH   5  19
TORSDOF 5
ENDMDL
