MODEL 1
REMARK VINA RESULT:      -9.3      0.000      0.000
REMARK  6 active torsions:
REMARK  status: ('A' for Active; 'I' for Inactive)
REMARK    1  A    between atoms: N1_1  and  C1_2 
REMARK    2  A    between atoms: C3_4  and  N2_5 
REMARK    3  A    between atoms: N2_5  and  C4_6 
REMARK    4  A    between atoms: C6_10  and  C7_11 
REMARK    5  A    between atoms: C9_13  and  C10_14 
REMARK    6  A    between atoms: C13_17  and  O1_18 
ROOT
HETATM    1  N2  UNL     1      24.994   4.167  51.421  1.00  0.00    -0.405 N 
HETATM    2  H5  UNL     1      24.985   4.713  52.315  1.00  0.00     0.154 HD
ENDROOT
BRANCH   1   3
HETATM    3  C3  UNL     1      24.554   4.880  50.289  1.00  0.00     0.136 C 
HETATM    4  C2  UNL     1      23.402   5.717  50.533  1.00  0.00     0.031 C 
HETATM    5  C1  UNL     1      23.008   6.980  50.722  1.00  0.00     0.024 C 
HETATM    6  C22 UNL     1      23.990   8.067  50.724  1.00  0.00     0.029 C 
HETATM    7  C21 UNL     1      25.249   8.123  50.310  1.00  0.00     0.014 C 
HETATM    8  C20 UNL     1      25.938   6.994  49.715  1.00  0.00    -0.028 A 
HETATM    9  C15 UNL     1      25.699   5.641  49.664  1.00  0.00    -0.022 A 
HETATM   10  C19 UNL     1      27.084   7.510  49.087  1.00  0.00     0.012 A 
HETATM   11  C16 UNL     1      26.529   4.720  49.020  1.00  0.00     0.010 A 
HETATM   12  C17 UNL     1      27.615   5.324  48.447  1.00  0.00     0.001 A 
HETATM   13  C18 UNL     1      27.934   6.651  48.444  1.00  0.00     0.001 A 
BRANCH   5  14
HETATM   14  N1  UNL     1      21.679   7.412  50.945  1.00  0.00    -0.399 N 
HETATM   15  H1  UNL     1      21.109   7.177  50.070  1.00  0.00     0.156 HD
HETATM   16  H2  UNL     1      21.445   7.867  51.856  1.00  0.00     0.156 HD
ENDBRANCH   5  14
ENDBRANCH   1   3
BRANCH   1  17
HETATM   17  C4  UNL     1      24.657   2.780  51.572  1.00  0.00     0.092 A 
HETATM   18  C5  UNL     1      23.887   2.514  52.804  1.00  0.00     0.022 A 
HETATM   19  N3  UNL     1      25.068   2.216  52.140  1.00  0.00     0.000 N 
HETATM   20  N4  UNL     1      26.381   1.568  52.705  1.00  0.00     0.000 N 
HETATM   21  C6  UNL     1      26.421   1.882  51.234  1.00  0.00     0.008 A 
HETATM   22  C7  UNL     1      25.821   1.952  52.169  1.00  0.00    -0.000 A 
HETATM   23  C9  UNL     1      26.332   1.216  54.362  1.00  0.00    -0.029 A 
HETATM   24  C8  UNL     1      26.079   1.541  53.452  1.00  0.00     0.044 A 
BRANCH  23  25
HETATM   25  C10 UNL     1      27.339   0.185  54.699  1.00  0.00     0.039 A 
HETATM   26  C11 UNL     1      27.428  -0.893  53.721  1.00  0.00    -0.015 A 
HETATM   27  C12 UNL     1      28.647  -0.950  53.217  1.00  0.00     0.033 A 
HETATM   28  C13 UNL     1      29.471   0.114  53.850  1.00  0.00     0.062 A 
HETATM   29  C14 UNL     1      28.683   0.776  54.726  1.00  0.00     0.018 A 
BRANCH  28  30
HETATM   30  O1  UNL     1      30.772   0.051  53.310  1.00  0.00    -0.361 OA
HETATM   31  H13 UNL     1      31.221  -0.868  53.210  1.00  0.00     0.217 HD
ENDBRANCH  28  30
ENDBRANCH  23  25
ENDBRANCH   1  17
TORSDOF 6
ENDMDL
MODEL 2
REMARK VINA RESULT:      -9.0      2.079      2.875
REMARK  6 active torsions:
REMARK  status: ('A' for Active; 'I' for Inactive)
REMARK    1  A    between atoms: N1_1  and  C1_2 
REMARK    2  A    between atoms: C3_4  and  N2_5 
REMARK    3  A    between atoms: N2_5  and  C4_6 
REMARK    4  A    between atoms: C6_10  and  C7_11 
REMARK    5  A    between atoms: C9_13  and  C10_14 
REMARK    6  A    between atoms: C13_17  and  O1_18 
ROOT
HETATM    1  N2  UNL     1      26.029   5.521  49.931  1.00  0.00    -0.405 N 
HETATM    2  H5  UNL     1      25.989   6.075  50.819  1.00  0.00     0.154 HD
ENDROOT
BRANCH   1   3
HETATM    3  C3  UNL     1      26.187   6.290  48.761  1.00  0.00     0.136 C 
HETATM    4  C2  UNL     1      25.234   7.369  48.635  1.00  0.00     0.031 C 
HETATM    5  C1  UNL     1      25.083   8.692  48.748  1.00  0.00     0.024 C 
HETATM    6  C22 UNL     1      26.211   9.531  49.160  1.00  0.00     0.029 C 
HETATM    7  C21 UNL     1      27.515   9.294  49.220  1.00  0.00     0.014 C 
HETATM    8  C20 UNL     1      28.107   8.026  48.839  1.00  0.00    -0.028 A 
HETATM    9  C15 UNL     1      27.615   6.761  48.626  1.00  0.00    -0.022 A 
HETATM   10  C19 UNL     1      29.485   8.259  48.687  1.00  0.00     0.012 A 
HETATM   11  C16 UNL     1      28.398   5.663  48.261  1.00  0.00     0.010 A 
HETATM   12  C17 UNL     1      29.721   5.996  48.144  1.00  0.00     0.001 A 
HETATM   13  C18 UNL     1      30.300   7.217  48.333  1.00  0.00     0.001 A 
BRANCH   5  14
HETATM   14  N1  UNL     1      23.890   9.415  48.515  1.00  0.00    -0.399 N 
HETATM   15  H1  UNL     1      23.863   9.674  47.477  1.00  0.00     0.156 HD
HETATM   16  H2  UNL     1      23.243   9.590  49.317  1.00  0.00     0.156 HD
ENDBRANCH   5  14
ENDBRANCH   1   3
BRANCH   1  17
HETATM   17  C4  UNL     1      25.183   4.362  49.919  1.00  0.00     0.092 A 
HETATM   18  C5  UNL     1      24.228   4.344  51.046  1.00  0.00     0.022 A 
HETATM   19  N3  UNL     1      25.283   3.654  50.467  1.00  0.00     0.000 N 
HETATM   20  N4  UNL     1      26.181   2.526  51.085  1.00  0.00     0.000 N 
HETATM   21  C6  UNL     1      26.511   2.877  49.660  1.00  0.00     0.008 A 
HETATM   22  C7  UNL     1      25.873   3.122  50.538  1.00  0.00    -0.000 A 
HETATM   23  C9  UNL     1      25.807   2.132  52.690  1.00  0.00    -0.029 A 
HETATM   24  C8  UNL     1      25.805   2.576  51.796  1.00  0.00     0.044 A 
BRANCH  23  25
HETATM   25  C10 UNL     1      26.309   0.778  53.018  1.00  0.00     0.039 A 
HETATM   26  C11 UNL     1      27.268   0.757  54.117  1.00  0.00    -0.015 A 
HETATM   27  C12 UNL     1      26.816   0.002  55.100  1.00  0.00     0.033 A 
HETATM   28  C13 UNL     1      25.492  -0.547  54.704  1.00  0.00     0.062 A 
HETATM   29  C14 UNL     1      25.206  -0.079  53.469  1.00  0.00     0.018 A 
BRANCH  28  30
HETATM   30  O1  UNL     1      25.010  -1.353  55.757  1.00  0.00    -0.361 OA
HETATM   31  H13 UNL     1      25.192  -2.363  55.727  1.00  0.00     0.217 HD
ENDBRANCH  28  30
ENDBRANCH  23  25
ENDBRANCH   1  17
TORSDOF 6
ENDMDL
MODEL 3
REMARK VINA RESULT:      -9.0      2.305      3.931
REMARK  6 active torsions:
REMARK  status: ('A' for Active; 'I' for Inactive)
REMARK    1  A    between atoms: N1_1  and  C1_2 
REMARK    2  A    between atoms: C3_4  and  N2_5 
REMARK    3  A    between atoms: N2_5  and  C4_6 
REMARK    4  A    between atoms: C6_10  and  C7_11 
REMARK    5  A    between atoms: C9_13  and  C10_14 
REMARK    6  A    between atoms: C13_17  and  O1_18 
ROOT
HETATM    1  N2  UNL     1      22.997   3.514  52.759  1.00  0.00    -0.405 N 
HETATM    2  H5  UNL     1      22.752   3.314  53.757  1.00  0.00     0.154 HD
ENDROOT
BRANCH   1   3
HETATM    3  C3  UNL     1      22.495   4.732  52.260  1.00  0.00     0.136 C 
HETATM    4  C2  UNL     1      23.517   5.704  51.946  1.00  0.00     0.031 C 
HETATM    5  C1  UNL     1      24.188   6.276  50.942  1.00  0.00     0.024 C 
HETATM    6  C22 UNL     1      23.925   5.878  49.557  1.00  0.00     0.029 C 
HETATM    7  C21 UNL     1      22.925   5.202  49.005  1.00  0.00     0.014 C 
HETATM    8  C20 UNL     1      21.800   4.692  49.765  1.00  0.00    -0.028 A 
HETATM    9  C15 UNL     1      21.558   4.483  51.101  1.00  0.00    -0.022 A 
HETATM   10  C19 UNL     1      20.801   4.369  48.830  1.00  0.00     0.012 A 
HETATM   11  C16 UNL     1      20.368   3.962  51.614  1.00  0.00     0.010 A 
HETATM   12  C17 UNL     1      19.467   3.678  50.623  1.00  0.00     0.001 A 
HETATM   13  C18 UNL     1      19.615   3.851  49.277  1.00  0.00     0.001 A 
BRANCH   5  14
HETATM   14  N1  UNL     1      25.190   7.267  51.070  1.00  0.00    -0.399 N 
HETATM   15  H1  UNL     1      24.957   8.055  50.385  1.00  0.00     0.156 HD
HETATM   16  H2  UNL     1      25.963   7.114  51.756  1.00  0.00     0.156 HD
ENDBRANCH   5  14
ENDBRANCH   1   3
BRANCH   1  17
HETATM   17  C4  UNL     1      23.036   2.354  51.915  1.00  0.00     0.092 A 
HETATM   18  C5  UNL     1      22.716   1.110  52.645  1.00  0.00     0.022 A 
HETATM   19  N3  UNL     1      23.704   1.751  51.912  1.00  0.00     0.000 N 
HETATM   20  N4  UNL     1      25.232   1.410  51.808  1.00  0.00     0.000 N 
HETATM   21  C6  UNL     1      24.795   2.581  50.972  1.00  0.00     0.008 A 
HETATM   22  C7  UNL     1      24.475   1.818  51.715  1.00  0.00    -0.000 A 
HETATM   23  C9  UNL     1      25.722   0.090  52.752  1.00  0.00    -0.029 A 
HETATM   24  C8  UNL     1      25.163   0.806  52.337  1.00  0.00     0.044 A 
BRANCH  23  25
HETATM   25  C10 UNL     1      26.989  -0.472  52.232  1.00  0.00     0.039 A 
HETATM   26  C11 UNL     1      28.153  -0.156  53.052  1.00  0.00    -0.015 A 
HETATM   27  C12 UNL     1      28.720  -1.267  53.484  1.00  0.00     0.033 A 
HETATM   28  C13 UNL     1      27.949  -2.426  52.960  1.00  0.00     0.062 A 
HETATM   29  C14 UNL     1      26.928  -1.939  52.220  1.00  0.00     0.018 A 
BRANCH  28  30
HETATM   30  O1  UNL     1      28.556  -3.612  53.425  1.00  0.00    -0.361 OA
HETATM   31  H13 UNL     1      28.010  -4.242  54.025  1.00  0.00     0.217 HD
ENDBRANCH  28  30
ENDBRANCH  23  25
ENDBRANCH   1  17
TORSDOF 6
ENDMDL
MODEL 4
REMARK VINA RESULT:      -8.7      2.217      3.075
REMARK  6 active torsions:
REMARK  status: ('A' for Active; 'I' for Inactive)
REMARK    1  A    between atoms: N1_1  and  C1_2 
REMARK    2  A    between atoms: C3_4  and  N2_5 
REMARK    3  A    between atoms: N2_5  and  C4_6 
REMARK    4  A    between atoms: C6_10  and  C7_11 
REMARK    5  A    between atoms: C9_13  and  C10_14 
REMARK    6  A    between atoms: C13_17  and  O1_18 
ROOT
HETATM    1  N2  UNL     1      23.928   3.046  50.327  1.00  0.00    -0.405 N 
HETATM    2  H5  UNL     1      24.065   2.489  49.451  1.00  0.00     0.154 HD
ENDROOT
BRANCH   1   3
HETATM    3  C3  UNL     1      22.984   4.086  50.225  1.00  0.00     0.136 C 
HETATM    4  C2  UNL     1      23.399   5.319  50.856  1.00  0.00     0.031 C 
HETATM    5  C1  UNL     1      23.867   6.547  50.617  1.00  0.00     0.024 C 
HETATM    6  C22 UNL     1      24.133   6.981  49.244  1.00  0.00     0.029 C 
HETATM    7  C21 UNL     1      23.760   6.485  48.071  1.00  0.00     0.014 C 
HETATM    8  C20 UNL     1      22.932   5.302  47.939  1.00  0.00    -0.028 A 
HETATM    9  C15 UNL     1      22.567   4.285  48.787  1.00  0.00    -0.022 A 
HETATM   10  C19 UNL     1      22.455   5.294  46.616  1.00  0.00     0.012 A 
HETATM   11  C16 UNL     1      21.740   3.218  48.427  1.00  0.00     0.010 A 
HETATM   12  C17 UNL     1      21.336   3.304  47.122  1.00  0.00     0.001 A 
HETATM   13  C18 UNL     1      21.643   4.270  46.209  1.00  0.00     0.001 A 
BRANCH   5  14
HETATM   14  N1  UNL     1      24.166   7.527  51.593  1.00  0.00    -0.399 N 
HETATM   15  H1  UNL     1      23.562   8.386  51.386  1.00  0.00     0.156 HD
HETATM   16  H2  UNL     1      24.877   7.306  52.326  1.00  0.00     0.156 HD
ENDBRANCH   5  14
ENDBRANCH   1   3
BRANCH   1  17
HETATM   17  C4  UNL     1      25.122   3.233  51.101  1.00  0.00     0.092 A 
HETATM   18  C5  UNL     1      26.344   2.870  50.355  1.00  0.00     0.022 A 
HETATM   19  N3  UNL     1      25.592   2.565  51.480  1.00  0.00     0.000 N 
HETATM   20  N4  UNL     1      25.653   1.290  52.392  1.00  0.00     0.000 N 
HETATM   21  C6  UNL     1      24.649   2.321  52.827  1.00  0.00     0.008 A 
HETATM   22  C7  UNL     1      25.400   2.044  52.054  1.00  0.00    -0.000 A 
HETATM   23  C9  UNL     1      26.786   0.129  51.899  1.00  0.00    -0.029 A 
HETATM   24  C8  UNL     1      26.219   0.950  51.928  1.00  0.00     0.044 A 
BRANCH  23  25
HETATM   25  C10 UNL     1      27.145  -0.753  53.033  1.00  0.00     0.039 A 
HETATM   26  C11 UNL     1      27.465  -2.119  52.637  1.00  0.00    -0.015 A 
HETATM   27  C12 UNL     1      28.698  -2.421  52.998  1.00  0.00     0.033 A 
HETATM   28  C13 UNL     1      29.292  -1.241  53.681  1.00  0.00     0.062 A 
HETATM   29  C14 UNL     1      28.360  -0.262  53.695  1.00  0.00     0.018 A 
BRANCH  28  30
HETATM   30  O1  UNL     1      30.610  -1.565  54.065  1.00  0.00    -0.361 OA
HETATM   31  H13 UNL     1      31.203  -0.827  54.463  1.00  0.00     0.217 HD
ENDBRANCH  28  30
ENDBRANCH  23  25
ENDBRANCH   1  17
TORSDOF 6
ENDMDL
MODEL 5
REMARK VINA RESULT:      -8.7      2.412      3.605
REMARK  6 active torsions:
REMARK  status: ('A' for Active; 'I' for Inactive)
REMARK    1  A    between atoms: N1_1  and  C1_2 
REMARK    2  A    between atoms: C3_4  and  N2_5 
REMARK    3  A    between atoms: N2_5  and  C4_6 
REMARK    4  A    between atoms: C6_10  and  C7_11 
REMARK    5  A    between atoms: C9_13  and  C10_14 
REMARK    6  A    between atoms: C13_17  and  O1_18 
ROOT
HETATM    1  N2  UNL     1      22.073   2.994  52.110  1.00  0.00    -0.405 N 
HETATM    2  H5  UNL     1      21.330   2.716  52.794  1.00  0.00     0.154 HD
ENDROOT
BRANCH   1   3
HETATM    3  C3  UNL     1      21.822   4.197  51.421  1.00  0.00     0.136 C 
HETATM    4  C2  UNL     1      22.758   5.255  51.727  1.00  0.00     0.031 C 
HETATM    5  C1  UNL     1      23.817   5.924  51.261  1.00  0.00     0.024 C 
HETATM    6  C22 UNL     1      24.393   5.581  49.959  1.00  0.00     0.029 C 
HETATM    7  C21 UNL     1      23.925   4.865  48.945  1.00  0.00     0.014 C 
HETATM    8  C20 UNL     1      22.617   4.237  48.956  1.00  0.00    -0.028 A 
HETATM    9  C15 UNL     1      21.702   3.942  49.937  1.00  0.00    -0.022 A 
HETATM   10  C19 UNL     1      22.329   3.892  47.624  1.00  0.00     0.012 A 
HETATM   11  C16 UNL     1      20.477   3.311  49.706  1.00  0.00     0.010 A 
HETATM   12  C17 UNL     1      20.297   3.016  48.382  1.00  0.00     0.001 A 
HETATM   13  C18 UNL     1      21.143   3.268  47.341  1.00  0.00     0.001 A 
BRANCH   5  14
HETATM   14  N1  UNL     1      24.492   6.976  51.924  1.00  0.00    -0.399 N 
HETATM   15  H1  UNL     1      25.539   6.860  51.737  1.00  0.00     0.156 HD
HETATM   16  H2  UNL     1      23.930   7.671  52.467  1.00  0.00     0.156 HD
ENDBRANCH   5  14
ENDBRANCH   1   3
BRANCH   1  17
HETATM   17  C4  UNL     1      22.691   1.892  51.429  1.00  0.00     0.092 A 
HETATM   18  C5  UNL     1      22.065   0.596  51.760  1.00  0.00     0.022 A 
HETATM   19  N3  UNL     1      23.255   1.307  51.816  1.00  0.00     0.000 N 
HETATM   20  N4  UNL     1      24.541   1.012  52.666  1.00  0.00     0.000 N 
HETATM   21  C6  UNL     1      24.641   2.224  51.781  1.00  0.00     0.008 A 
HETATM   22  C7  UNL     1      23.978   1.406  52.140  1.00  0.00    -0.000 A 
HETATM   23  C9  UNL     1      24.424  -0.354  53.663  1.00  0.00    -0.029 A 
HETATM   24  C8  UNL     1      24.196   0.373  53.017  1.00  0.00     0.044 A 
BRANCH  23  25
HETATM   25  C10 UNL     1      25.774  -0.850  54.015  1.00  0.00     0.039 A 
HETATM   26  C11 UNL     1      26.699  -0.890  52.889  1.00  0.00    -0.015 A 
HETATM   27  C12 UNL     1      27.745  -0.123  53.132  1.00  0.00     0.033 A 
HETATM   28  C13 UNL     1      27.579   0.490  54.477  1.00  0.00     0.062 A 
HETATM   29  C14 UNL     1      26.408   0.049  54.988  1.00  0.00     0.018 A 
BRANCH  28  30
HETATM   30  O1  UNL     1      28.698   1.310  54.734  1.00  0.00    -0.361 OA
HETATM   31  H13 UNL     1      29.542   1.187  54.161  1.00  0.00     0.217 HD
ENDBRANCH  28  30
ENDBRANCH  23  25
ENDBRANCH   1  17
TORSDOF 6
ENDMDL
MODEL 6
REMARK VINA RESULT:      -8.5      3.714      8.080
REMARK  6 active torsions:
REMARK  status: ('A' for Active; 'I' for Inactive)
REMARK    1  A    between atoms: N1_1  and  C1_2 
REMARK    2  A    between atoms: C3_4  and  N2_5 
REMARK    3  A    between atoms: N2_5  and  C4_6 
REMARK    4  A    between atoms: C6_10  and  C7_11 
REMARK    5  A    between atoms: C9_13  and  C10_14 
REMARK    6  A    between atoms: C13_17  and  O1_18 
ROOT
HETATM    1  N2  UNL     1      22.770   2.170  52.016  1.00  0.00    -0.405 N 
HETATM    2  H5  UNL     1      21.918   2.634  52.408  1.00  0.00     0.154 HD
ENDROOT
BRANCH   1   3
HETATM    3  C3  UNL     1      22.720   0.763  51.991  1.00  0.00     0.136 C 
HETATM    4  C2  UNL     1      23.693   0.125  52.849  1.00  0.00     0.031 C 
HETATM    5  C1  UNL     1      23.849  -0.512  54.013  1.00  0.00     0.024 C 
HETATM    6  C22 UNL     1      22.700  -0.729  54.896  1.00  0.00     0.029 C 
HETATM    7  C21 UNL     1      21.393  -0.646  54.684  1.00  0.00     0.014 C 
HETATM    8  C20 UNL     1      20.820  -0.294  53.399  1.00  0.00    -0.028 A 
HETATM    9  C15 UNL     1      21.314   0.278  52.251  1.00  0.00    -0.022 A 
HETATM   10  C19 UNL     1      19.463  -0.655  53.455  1.00  0.00     0.012 A 
HETATM   11  C16 UNL     1      20.551   0.534  51.109  1.00  0.00     0.010 A 
HETATM   12  C17 UNL     1      19.247   0.150  51.269  1.00  0.00     0.001 A 
HETATM   13  C18 UNL     1      18.668  -0.424  52.364  1.00  0.00     0.001 A 
BRANCH   5  14
HETATM   14  N1  UNL     1      25.066  -1.019  54.526  1.00  0.00    -0.399 N 
HETATM   15  H1  UNL     1      25.143  -2.044  54.228  1.00  0.00     0.156 HD
HETATM   16  H2  UNL     1      25.680  -0.383  55.083  1.00  0.00     0.156 HD
ENDBRANCH   5  14
ENDBRANCH   1   3
BRANCH   1  17
HETATM   17  C4  UNL     1      24.002   2.839  52.326  1.00  0.00     0.092 A 
HETATM   18  C5  UNL     1      23.792   4.102  53.062  1.00  0.00     0.022 A 
HETATM   19  N3  UNL     1      24.309   3.565  51.892  1.00  0.00     0.000 N 
HETATM   20  N4  UNL     1      24.689   4.294  50.556  1.00  0.00     0.000 N 
HETATM   21  C6  UNL     1      24.950   2.813  50.555  1.00  0.00     0.008 A 
HETATM   22  C7  UNL     1      24.538   3.670  51.135  1.00  0.00    -0.000 A 
HETATM   23  C9  UNL     1      24.394   5.964  50.560  1.00  0.00    -0.029 A 
HETATM   24  C8  UNL     1      24.436   5.006  50.839  1.00  0.00     0.044 A 
BRANCH  23  25
HETATM   25  C10 UNL     1      25.217   6.633  49.527  1.00  0.00     0.039 A 
HETATM   26  C11 UNL     1      24.437   7.377  48.544  1.00  0.00    -0.015 A 
HETATM   27  C12 UNL     1      24.779   8.651  48.561  1.00  0.00     0.033 A 
HETATM   28  C13 UNL     1      25.843   8.841  49.583  1.00  0.00     0.062 A 
HETATM   29  C14 UNL     1      26.092   7.637  50.145  1.00  0.00     0.018 A 
BRANCH  28  30
HETATM   30  O1  UNL     1      26.206  10.204  49.600  1.00  0.00    -0.361 OA
HETATM   31  H13 UNL     1      25.697  10.857  48.992  1.00  0.00     0.217 HD
ENDBRANCH  28  30
ENDBRANCH  23  25
ENDBRANCH   1  17
TORSDOF 6
ENDMDL
MODEL 7
REMARK VINA RESULT:      -8.5      5.473      8.142
REMARK  6 active torsions:
REMARK  status: ('A' for Active; 'I' for Inactive)
REMARK    1  A    between atoms: N1_1  and  C1_2 
REMARK    2  A    between atoms: C3_4  and  N2_5 
REMARK    3  A    between atoms: N2_5  and  C4_6 
REMARK    4  A    between atoms: C6_10  and  C7_11 
REMARK    5  A    between atoms: C9_13  and  C10_14 
REMARK    6  A    between atoms: C13_17  and  O1_18 
ROOT
HETATM    1  N2  UNL     1      22.841   1.146  52.526  1.00  0.00    -0.405 N 
HETATM    2  H5  UNL     1      23.026   0.362  51.858  1.00  0.00     0.154 HD
ENDROOT
BRANCH   1   3
HETATM    3  C3  UNL     1      23.995   1.779  53.028  1.00  0.00     0.136 C 
HETATM    4  C2  UNL     1      24.871   0.901  53.769  1.00  0.00     0.031 C 
HETATM    5  C1  UNL     1      26.019   0.220  53.705  1.00  0.00     0.024 C 
HETATM    6  C22 UNL     1      26.828   0.250  52.484  1.00  0.00     0.029 C 
HETATM    7  C21 UNL     1      26.808   1.054  51.428  1.00  0.00     0.014 C 
HETATM    8  C20 UNL     1      25.881   2.161  51.294  1.00  0.00    -0.028 A 
HETATM    9  C15 UNL     1      24.715   2.520  51.926  1.00  0.00    -0.022 A 
HETATM   10  C19 UNL     1      26.380   2.977  50.264  1.00  0.00     0.012 A 
HETATM   11  C16 UNL     1      23.970   3.660  51.616  1.00  0.00     0.010 A 
HETATM   12  C17 UNL     1      24.539   4.380  50.600  1.00  0.00     0.001 A 
HETATM   13  C18 UNL     1      25.688   4.106  49.916  1.00  0.00     0.001 A 
BRANCH   5  14
HETATM   14  N1  UNL     1      26.567  -0.584  54.732  1.00  0.00    -0.399 N 
HETATM   15  H1  UNL     1      25.903  -1.408  54.890  1.00  0.00     0.156 HD
HETATM   16  H2  UNL     1      27.471  -0.294  55.169  1.00  0.00     0.156 HD
ENDBRANCH   5  14
ENDBRANCH   1   3
BRANCH   1  17
HETATM   17  C4  UNL     1      21.706   0.940  53.380  1.00  0.00     0.092 A 
HETATM   18  C5  UNL     1      21.312  -0.481  53.466  1.00  0.00     0.022 A 
HETATM   19  N3  UNL     1      20.871   0.778  53.085  1.00  0.00     0.000 N 
HETATM   20  N4  UNL     1      19.646   1.163  52.184  1.00  0.00     0.000 N 
HETATM   21  C6  UNL     1      20.424   2.336  52.716  1.00  0.00     0.008 A 
HETATM   22  C7  UNL     1      20.366   1.226  52.660  1.00  0.00    -0.000 A 
HETATM   23  C9  UNL     1      18.772  -0.160  51.586  1.00  0.00    -0.029 A 
HETATM   24  C8  UNL     1      19.464   0.389  52.051  1.00  0.00     0.044 A 
BRANCH  23  25
HETATM   25  C10 UNL     1      17.404   0.257  51.205  1.00  0.00     0.039 A 
HETATM   26  C11 UNL     1      17.084   0.017  49.802  1.00  0.00    -0.015 A 
HETATM   27  C12 UNL     1      16.047  -0.794  49.704  1.00  0.00     0.033 A 
HETATM   28  C13 UNL     1      15.595  -1.150  51.076  1.00  0.00     0.062 A 
HETATM   29  C14 UNL     1      16.407  -0.519  51.953  1.00  0.00     0.018 A 
BRANCH  28  30
HETATM   30  O1  UNL     1      14.487  -2.017  50.969  1.00  0.00    -0.361 OA
HETATM   31  H13 UNL     1      13.576  -1.623  50.704  1.00  0.00     0.217 HD
ENDBRANCH  28  30
ENDBRANCH  23  25
ENDBRANCH   1  17
TORSDOF 6
ENDMDL
MODEL 8
REMARK VINA RESULT:      -8.5      3.135      7.383
REMARK  6 active torsions:
REMARK  status: ('A' for Active; 'I' for Inactive)
REMARK    1  A    between atoms: N1_1  and  C1_2 
REMARK    2  A    between atoms: C3_4  and  N2_5 
REMARK    3  A    between atoms: N2_5  and  C4_6 
REMARK    4  A    between atoms: C6_10  and  C7_11 
REMARK    5  A    between atoms: C9_13  and  C10_14 
REMARK    6  A    between atoms: C13_17  and  O1_18 
ROOT
HETATM    1  N2  UNL     1      24.967   4.040  51.685  1.00  0.00    -0.405 N 
HETATM    2  H5  UNL     1      25.770   3.406  51.460  1.00  0.00     0.154 HD
ENDROOT
BRANCH   1   3
HETATM    3  C3  UNL     1      24.128   3.587  52.722  1.00  0.00     0.136 C 
HETATM    4  C2  UNL     1      22.718   3.755  52.452  1.00  0.00     0.031 C 
HETATM    5  C1  UNL     1      21.605   3.107  52.098  1.00  0.00     0.024 C 
HETATM    6  C22 UNL     1      21.642   1.668  51.828  1.00  0.00     0.029 C 
HETATM    7  C21 UNL     1      22.546   0.738  52.109  1.00  0.00     0.014 C 
HETATM    8  C20 UNL     1      23.781   1.022  52.813  1.00  0.00    -0.028 A 
HETATM    9  C15 UNL     1      24.478   2.169  53.106  1.00  0.00    -0.022 A 
HETATM   10  C19 UNL     1      24.291  -0.217  53.239  1.00  0.00     0.012 A 
HETATM   11  C16 UNL     1      25.684   2.199  53.811  1.00  0.00     0.010 A 
HETATM   12  C17 UNL     1      26.093   0.944  54.175  1.00  0.00     0.001 A 
HETATM   13  C18 UNL     1      25.472  -0.246  53.932  1.00  0.00     0.001 A 
BRANCH   5  14
HETATM   14  N1  UNL     1      20.324   3.686  51.932  1.00  0.00    -0.399 N 
HETATM   15  H1  UNL     1      19.890   3.266  51.048  1.00  0.00     0.156 HD
HETATM   16  H2  UNL     1      19.996   4.389  52.631  1.00  0.00     0.156 HD
ENDBRANCH   5  14
ENDBRANCH   1   3
BRANCH   1  17
HETATM   17  C4  UNL     1      24.404   4.707  50.546  1.00  0.00     0.092 A 
HETATM   18  C5  UNL     1      24.773   4.061  49.270  1.00  0.00     0.022 A 
HETATM   19  N3  UNL     1      24.867   5.242  49.990  1.00  0.00     0.000 N 
HETATM   20  N4  UNL     1      25.823   6.465  49.758  1.00  0.00     0.000 N 
HETATM   21  C6  UNL     1      24.870   6.626  50.911  1.00  0.00     0.008 A 
HETATM   22  C7  UNL     1      25.234   5.940  50.114  1.00  0.00    -0.000 A 
HETATM   23  C9  UNL     1      26.894   6.281  48.458  1.00  0.00    -0.029 A 
HETATM   24  C8  UNL     1      26.189   6.098  49.141  1.00  0.00     0.044 A 
BRANCH  23  25
HETATM   25  C10 UNL     1      27.373   7.603  47.995  1.00  0.00     0.039 A 
HETATM   26  C11 UNL     1      28.707   7.573  47.407  1.00  0.00    -0.015 A 
HETATM   27  C12 UNL     1      28.663   7.996  46.157  1.00  0.00     0.033 A 
HETATM   28  C13 UNL     1      27.257   8.349  45.827  1.00  0.00     0.062 A 
HETATM   29  C14 UNL     1      26.505   8.112  46.925  1.00  0.00     0.018 A 
BRANCH  28  30
HETATM   30  O1  UNL     1      27.213   8.799  44.491  1.00  0.00    -0.361 OA
HETATM   31  H13 UNL     1      28.085   9.107  44.045  1.00  0.00     0.217 HD
ENDBRANCH  28  30
ENDBRANCH  23  25
ENDBRANCH   1  17
TORSDOF 6
ENDMDL
MODEL 9
REMARK VINA RESULT:      -8.3      3.280      7.986
REMARK  6 active torsions:
REMARK  status: ('A' for Active; 'I' for Inactive)
REMARK    1  A    between atoms: N1_1  and  C1_2 
REMARK    2  A    between atoms: C3_4  and  N2_5 
REMARK    3  A    between atoms: N2_5  and  C4_6 
REMARK    4  A    between atoms: C6_10  and  C7_11 
REMARK    5  A    between atoms: C9_13  and  C10_14 
REMARK    6  A    between atoms: C13_17  and  O1_18 
ROOT
HETATM    1  N2  UNL     1      23.645   2.405  52.493  1.00  0.00    -0.405 N 
HETATM    2  H5  UNL     1      24.398   2.880  53.044  1.00  0.00     0.154 HD
ENDROOT
BRANCH   1   3
HETATM    3  C3  UNL     1      23.890   1.048  52.204  1.00  0.00     0.136 C 
HETATM    4  C2  UNL     1      25.283   0.673  52.286  1.00  0.00     0.031 C 
HETATM    5  C1  UNL     1      26.186   0.041  53.042  1.00  0.00     0.024 C 
HETATM    6  C22 UNL     1      25.791  -0.553  54.322  1.00  0.00     0.029 C 
HETATM    7  C21 UNL     1      24.602  -0.843  54.834  1.00  0.00     0.014 C 
HETATM    8  C20 UNL     1      23.357  -0.598  54.132  1.00  0.00    -0.028 A 
HETATM    9  C15 UNL     1      23.002   0.160  53.042  1.00  0.00    -0.022 A 
HETATM   10  C19 UNL     1      22.369  -1.342  54.799  1.00  0.00     0.012 A 
HETATM   11  C16 UNL     1      21.703   0.249  52.536  1.00  0.00     0.010 A 
HETATM   12  C17 UNL     1      20.820  -0.508  53.258  1.00  0.00     0.001 A 
HETATM   13  C18 UNL     1      21.078  -1.289  54.347  1.00  0.00     0.001 A 
BRANCH   5  14
HETATM   14  N1  UNL     1      27.559  -0.118  52.739  1.00  0.00    -0.399 N 
HETATM   15  H1  UNL     1      28.121   0.233  53.579  1.00  0.00     0.156 HD
HETATM   16  H2  UNL     1      27.825  -0.523  51.812  1.00  0.00     0.156 HD
ENDBRANCH   5  14
ENDBRANCH   1   3
BRANCH   1  17
HETATM   17  C4  UNL     1      23.009   3.243  51.516  1.00  0.00     0.092 A 
HETATM   18  C5  UNL     1      23.320   2.837  50.131  1.00  0.00     0.022 A 
HETATM   19  N3  UNL     1      23.431   3.879  51.040  1.00  0.00     0.000 N 
HETATM   20  N4  UNL     1      24.350   5.149  50.976  1.00  0.00     0.000 N 
HETATM   21  C6  UNL     1      23.459   5.082  52.186  1.00  0.00     0.008 A 
HETATM   22  C7  UNL     1      23.791   4.555  51.264  1.00  0.00    -0.000 A 
HETATM   23  C9  UNL     1      25.353   5.221  49.611  1.00  0.00    -0.029 A 
HETATM   24  C8  UNL     1      24.689   4.904  50.287  1.00  0.00     0.044 A 
BRANCH  23  25
HETATM   25  C10 UNL     1      25.781   6.616  49.361  1.00  0.00     0.039 A 
HETATM   26  C11 UNL     1      27.129   6.730  48.816  1.00  0.00    -0.015 A 
HETATM   27  C12 UNL     1      27.095   7.330  47.641  1.00  0.00     0.033 A 
HETATM   28  C13 UNL     1      25.682   7.668  47.323  1.00  0.00     0.062 A 
HETATM   29  C14 UNL     1      24.917   7.241  48.352  1.00  0.00     0.018 A 
BRANCH  28  30
HETATM   30  O1  UNL     1      25.649   8.309  46.067  1.00  0.00    -0.361 OA
HETATM   31  H13 UNL     1      25.895   9.305  46.015  1.00  0.00     0.217 HD
ENDBRANCH  28  30
ENDBRANCH  23  25
ENDBRANCH   1  17
TORSDOF 6
ENDMDL
