MODEL 1
REMARK VINA RESULT:      -8.4      0.000      0.000
REMARK  3 active torsions:
REMARK  status: ('A' for Active; 'I' for Inactive)
REMARK    1  A    between atoms: C4_5  and  C5_6 
REMARK    2  A    between atoms: C5_6  and  N2_7 
REMARK    3  A    between atoms: N2_7  and  C6_8 
ROOT
HETATM    1  C6  UNL     1      24.211   1.550  52.920  1.00  0.00     0.045 A 
HETATM    2  C7  UNL     1      23.000   0.896  52.986  1.00  0.00     0.049 A 
HETATM    3  C8  UNL     1      22.811  -0.301  53.623  1.00  0.00     0.122 A 
HETATM    4  N3  UNL     1      23.864  -0.882  54.222  1.00  0.00    -0.236 NA
HETATM    5  C9  UNL     1      25.078  -0.313  54.206  1.00  0.00     0.183 A 
HETATM    6  O1  UNL     1      26.217  -0.671  54.699  1.00  0.00    -0.290 OA
HETATM    7  C10 UNL     1      27.162   0.202  54.439  1.00  0.00     0.089 A 
HETATM    8  C11 UNL     1      28.503   0.249  54.753  1.00  0.00     0.038 A 
HETATM    9  C12 UNL     1      29.271   1.313  54.340  1.00  0.00     0.003 A 
HETATM   10  C13 UNL     1      28.659   2.333  53.601  1.00  0.00     0.001 A 
HETATM   11  C14 UNL     1      27.315   2.245  53.311  1.00  0.00     0.015 A 
HETATM   12  C15 UNL     1      26.553   1.189  53.721  1.00  0.00     0.015 A 
HETATM   13  C16 UNL     1      25.241   0.903  53.551  1.00  0.00     0.057 A 
ENDROOT
BRANCH   1  14
HETATM   14  N2  UNL     1      24.295   2.783  52.233  1.00  0.00    -0.385 N 
HETATM   15  H6  UNL     1      24.320   3.764  52.446  1.00  0.00     0.160 HD
BRANCH  14  16
HETATM   16  C5  UNL     1      24.373   2.748  50.809  1.00  0.00     0.160 C 
BRANCH  16  17
HETATM   17  C4  UNL     1      25.252   3.694  50.147  1.00  0.00    -0.023 A 
HETATM   18  C3  UNL     1      24.893   5.043  50.051  1.00  0.00     0.124 A 
HETATM   19  N1  UNL     1      25.647   5.979  49.457  1.00  0.00    -0.273 NA
HETATM   20  C2  UNL     1      26.816   5.699  48.903  1.00  0.00     0.116 A 
HETATM   21  C1  UNL     1      27.214   4.377  48.972  1.00  0.00     0.020 A 
HETATM   22  C17 UNL     1      26.463   3.386  49.576  1.00  0.00     0.012 A 
ENDBRANCH  16  17
ENDBRANCH  14  16
ENDBRANCH   1  14
TORSDOF 3
ENDMDL
MODEL 2
REMARK VINA RESULT:      -8.2      1.387      3.658
REMARK  3 active torsions:
REMARK  status: ('A' for Active; 'I' for Inactive)
REMARK    1  A    between atoms: C4_5  and  C5_6 
REMARK    2  A    between atoms: C5_6  and  N2_7 
REMARK    3  A    between atoms: N2_7  and  C6_8 
ROOT
HETATM    1  C6  UNL     1      27.047   1.779  52.974  1.00  0.00     0.045 A 
HETATM    2  C7  UNL     1      28.371   1.596  53.308  1.00  0.00     0.049 A 
HETATM    3  C8  UNL     1      28.830   0.562  54.079  1.00  0.00     0.122 A 
HETATM    4  N3  UNL     1      27.943  -0.334  54.543  1.00  0.00    -0.236 NA
HETATM    5  C9  UNL     1      26.635  -0.231  54.266  1.00  0.00     0.183 A 
HETATM    6  O1  UNL     1      25.614  -0.951  54.590  1.00  0.00    -0.290 OA
HETATM    7  C10 UNL     1      24.497  -0.475  54.092  1.00  0.00     0.089 A 
HETATM    8  C11 UNL     1      23.186  -0.893  54.166  1.00  0.00     0.038 A 
HETATM    9  C12 UNL     1      22.196  -0.181  53.528  1.00  0.00     0.003 A 
HETATM   10  C13 UNL     1      22.555   0.966  52.811  1.00  0.00     0.001 A 
HETATM   11  C14 UNL     1      23.878   1.347  52.763  1.00  0.00     0.015 A 
HETATM   12  C15 UNL     1      24.860   0.641  53.396  1.00  0.00     0.015 A 
HETATM   13  C16 UNL     1      26.198   0.830  53.480  1.00  0.00     0.057 A 
ENDROOT
BRANCH   1  14
HETATM   14  N2  UNL     1      26.681   2.886  52.172  1.00  0.00    -0.385 N 
HETATM   15  H6  UNL     1      26.475   3.861  52.285  1.00  0.00     0.160 HD
BRANCH  14  16
HETATM   16  C5  UNL     1      26.531   2.671  50.770  1.00  0.00     0.160 C 
BRANCH  16  17
HETATM   17  C4  UNL     1      25.598   3.513  50.045  1.00  0.00    -0.023 A 
HETATM   18  C3  UNL     1      25.948   4.825  49.706  1.00  0.00     0.124 A 
HETATM   19  N1  UNL     1      25.146   5.666  49.039  1.00  0.00    -0.273 NA
HETATM   20  C2  UNL     1      23.934   5.319  48.635  1.00  0.00     0.116 A 
HETATM   21  C1  UNL     1      23.543   4.029  48.947  1.00  0.00     0.020 A 
HETATM   22  C17 UNL     1      24.343   3.135  49.634  1.00  0.00     0.012 A 
ENDBRANCH  16  17
ENDBRANCH  14  16
ENDBRANCH   1  14
TORSDOF 3
ENDMDL
MODEL 3
REMARK VINA RESULT:      -8.1      3.397      5.796
REMARK  3 active torsions:
REMARK  status: ('A' for Active; 'I' for Inactive)
REMARK    1  A    between atoms: C4_5  and  C5_6 
REMARK    2  A    between atoms: C5_6  and  N2_7 
REMARK    3  A    between atoms: N2_7  and  C6_8 
ROOT
HETATM    1  C6  UNL     1      23.746  -0.269  53.467  1.00  0.00     0.045 A 
HETATM    2  C7  UNL     1      24.088  -0.885  54.650  1.00  0.00     0.049 A 
HETATM    3  C8  UNL     1      23.184  -1.464  55.500  1.00  0.00     0.122 A 
HETATM    4  N3  UNL     1      21.882  -1.434  55.169  1.00  0.00    -0.236 NA
HETATM    5  C9  UNL     1      21.463  -0.854  54.034  1.00  0.00     0.183 A 
HETATM    6  O1  UNL     1      20.292  -0.703  53.512  1.00  0.00    -0.290 OA
HETATM    7  C10 UNL     1      20.343  -0.061  52.368  1.00  0.00     0.089 A 
HETATM    8  C11 UNL     1      19.373   0.325  51.468  1.00  0.00     0.038 A 
HETATM    9  C12 UNL     1      19.724   1.002  50.323  1.00  0.00     0.003 A 
HETATM   10  C13 UNL     1      21.077   1.285  50.102  1.00  0.00     0.001 A 
HETATM   11  C14 UNL     1      22.013   0.880  51.028  1.00  0.00     0.015 A 
HETATM   12  C15 UNL     1      21.665   0.208  52.165  1.00  0.00     0.015 A 
HETATM   13  C16 UNL     1      22.404  -0.274  53.190  1.00  0.00     0.057 A 
ENDROOT
BRANCH   1  14
HETATM   14  N2  UNL     1      24.762   0.300  52.664  1.00  0.00    -0.385 N 
HETATM   15  H6  UNL     1      24.890   1.090  52.059  1.00  0.00     0.160 HD
BRANCH  14  16
HETATM   16  C5  UNL     1      26.027  -0.359  52.625  1.00  0.00     0.160 C 
BRANCH  16  17
HETATM   17  C4  UNL     1      27.178   0.335  53.173  1.00  0.00    -0.023 A 
HETATM   18  C3  UNL     1      27.087   1.687  53.520  1.00  0.00     0.124 A 
HETATM   19  N1  UNL     1      28.101   2.400  54.030  1.00  0.00    -0.273 NA
HETATM   20  C2  UNL     1      29.295   1.873  54.253  1.00  0.00     0.116 A 
HETATM   21  C1  UNL     1      29.434   0.537  53.925  1.00  0.00     0.020 A 
HETATM   22  C17 UNL     1      28.411  -0.228  53.397  1.00  0.00     0.012 A 
ENDBRANCH  16  17
ENDBRANCH  14  16
ENDBRANCH   1  14
TORSDOF 3
ENDMDL
MODEL 4
REMARK VINA RESULT:      -8.0      2.409      5.640
REMARK  3 active torsions:
REMARK  status: ('A' for Active; 'I' for Inactive)
REMARK    1  A    between atoms: C4_5  and  C5_6 
REMARK    2  A    between atoms: C5_6  and  N2_7 
REMARK    3  A    between atoms: N2_7  and  C6_8 
ROOT
HETATM    1  C6  UNL     1      24.652   3.181  50.872  1.00  0.00     0.045 A 
HETATM    2  C7  UNL     1      24.645   4.060  49.811  1.00  0.00     0.049 A 
HETATM    3  C8  UNL     1      23.654   4.116  48.869  1.00  0.00     0.122 A 
HETATM    4  N3  UNL     1      22.620   3.264  48.975  1.00  0.00    -0.236 NA
HETATM    5  C9  UNL     1      22.548   2.375  49.977  1.00  0.00     0.183 A 
HETATM    6  O1  UNL     1      21.674   1.475  50.284  1.00  0.00    -0.290 OA
HETATM    7  C10 UNL     1      22.009   0.816  51.369  1.00  0.00     0.089 A 
HETATM    8  C11 UNL     1      21.404  -0.210  52.064  1.00  0.00     0.038 A 
HETATM    9  C12 UNL     1      21.995  -0.719  53.197  1.00  0.00     0.003 A 
HETATM   10  C13 UNL     1      23.213  -0.173  53.618  1.00  0.00     0.001 A 
HETATM   11  C14 UNL     1      23.781   0.852  52.894  1.00  0.00     0.015 A 
HETATM   12  C15 UNL     1      23.195   1.357  51.769  1.00  0.00     0.015 A 
HETATM   13  C16 UNL     1      23.570   2.342  50.920  1.00  0.00     0.057 A 
ENDROOT
BRANCH   1  14
HETATM   14  N2  UNL     1      25.730   3.208  51.787  1.00  0.00    -0.385 N 
HETATM   15  H6  UNL     1      25.967   3.647  52.657  1.00  0.00     0.160 HD
BRANCH  14  16
HETATM   16  C5  UNL     1      26.876   2.414  51.488  1.00  0.00     0.160 C 
BRANCH  16  17
HETATM   17  C4  UNL     1      27.484   1.656  52.566  1.00  0.00    -0.023 A 
HETATM   18  C3  UNL     1      28.276   2.301  53.523  1.00  0.00     0.124 A 
HETATM   19  N1  UNL     1      28.872   1.675  54.547  1.00  0.00    -0.273 NA
HETATM   20  C2  UNL     1      28.759   0.371  54.743  1.00  0.00     0.116 A 
HETATM   21  C1  UNL     1      27.985  -0.311  53.822  1.00  0.00     0.020 A 
HETATM   22  C17 UNL     1      27.356   0.301  52.754  1.00  0.00     0.012 A 
ENDBRANCH  16  17
ENDBRANCH  14  16
ENDBRANCH   1  14
TORSDOF 3
ENDMDL
MODEL 5
REMARK VINA RESULT:      -7.9      2.118      4.270
REMARK  3 active torsions:
REMARK  status: ('A' for Active; 'I' for Inactive)
REMARK    1  A    between atoms: C4_5  and  C5_6 
REMARK    2  A    between atoms: C5_6  and  N2_7 
REMARK    3  A    between atoms: N2_7  and  C6_8 
ROOT
HETATM    1  C6  UNL     1      26.309   0.767  52.660  1.00  0.00     0.045 A 
HETATM    2  C7  UNL     1      27.654   0.813  52.956  1.00  0.00     0.049 A 
HETATM    3  C8  UNL     1      28.211   0.250  54.072  1.00  0.00     0.122 A 
HETATM    4  N3  UNL     1      27.406  -0.389  54.939  1.00  0.00    -0.236 NA
HETATM    5  C9  UNL     1      26.085  -0.480  54.727  1.00  0.00     0.183 A 
HETATM    6  O1  UNL     1      25.129  -1.029  55.399  1.00  0.00    -0.290 OA
HETATM    7  C10 UNL     1      23.964  -0.875  54.813  1.00  0.00     0.089 A 
HETATM    8  C11 UNL     1      22.689  -1.278  55.147  1.00  0.00     0.038 A 
HETATM    9  C12 UNL     1      21.630  -0.969  54.325  1.00  0.00     0.003 A 
HETATM   10  C13 UNL     1      21.882  -0.243  53.155  1.00  0.00     0.001 A 
HETATM   11  C14 UNL     1      23.173   0.139  52.860  1.00  0.00     0.015 A 
HETATM   12  C15 UNL     1      24.224  -0.167  53.676  1.00  0.00     0.015 A 
HETATM   13  C16 UNL     1      25.547   0.102  53.584  1.00  0.00     0.057 A 
ENDROOT
BRANCH   1  14
HETATM   14  N2  UNL     1      25.839   1.386  51.478  1.00  0.00    -0.385 N 
HETATM   15  H6  UNL     1      25.539   1.121  50.558  1.00  0.00     0.160 HD
BRANCH  14  16
HETATM   16  C5  UNL     1      25.712   2.807  51.476  1.00  0.00     0.160 C 
BRANCH  16  17
HETATM   17  C4  UNL     1      24.378   3.375  51.526  1.00  0.00    -0.023 A 
HETATM   18  C3  UNL     1      23.559   3.351  50.392  1.00  0.00     0.124 A 
HETATM   19  N1  UNL     1      22.316   3.854  50.354  1.00  0.00    -0.273 NA
HETATM   20  C2  UNL     1      21.751   4.425  51.406  1.00  0.00     0.116 A 
HETATM   21  C1  UNL     1      22.523   4.472  52.552  1.00  0.00     0.020 A 
HETATM   22  C17 UNL     1      23.807   3.965  52.627  1.00  0.00     0.012 A 
ENDBRANCH  16  17
ENDBRANCH  14  16
ENDBRANCH   1  14
TORSDOF 3
ENDMDL
MODEL 6
REMARK VINA RESULT:      -7.9      1.714      2.270
REMARK  3 active torsions:
REMARK  status: ('A' for Active; 'I' for Inactive)
REMARK    1  A    between atoms: C4_5  and  C5_6 
REMARK    2  A    between atoms: C5_6  and  N2_7 
REMARK    3  A    between atoms: N2_7  and  C6_8 
ROOT
HETATM    1  C6  UNL     1      22.642  -0.102  53.033  1.00  0.00     0.045 A 
HETATM    2  C7  UNL     1      21.577  -0.644  53.718  1.00  0.00     0.049 A 
HETATM    3  C8  UNL     1      21.695  -1.329  54.897  1.00  0.00     0.122 A 
HETATM    4  N3  UNL     1      22.920  -1.487  55.428  1.00  0.00    -0.236 NA
HETATM    5  C9  UNL     1      24.010  -0.990  54.826  1.00  0.00     0.183 A 
HETATM    6  O1  UNL     1      25.264  -1.013  55.134  1.00  0.00    -0.290 OA
HETATM    7  C10 UNL     1      26.001  -0.391  54.243  1.00  0.00     0.089 A 
HETATM    8  C11 UNL     1      27.356  -0.161  54.147  1.00  0.00     0.038 A 
HETATM    9  C12 UNL     1      27.863   0.539  53.077  1.00  0.00     0.003 A 
HETATM   10  C13 UNL     1      26.974   1.004  52.101  1.00  0.00     0.001 A 
HETATM   11  C14 UNL     1      25.627   0.751  52.237  1.00  0.00     0.015 A 
HETATM   12  C15 UNL     1      25.123   0.057  53.300  1.00  0.00     0.015 A 
HETATM   13  C16 UNL     1      23.860  -0.299  53.628  1.00  0.00     0.057 A 
ENDROOT
BRANCH   1  14
HETATM   14  N2  UNL     1      22.407   0.585  51.819  1.00  0.00    -0.385 N 
HETATM   15  H6  UNL     1      22.389   0.390  50.835  1.00  0.00     0.160 HD
BRANCH  14  16
HETATM   16  C5  UNL     1      22.092   1.974  51.891  1.00  0.00     0.160 C 
BRANCH  16  17
HETATM   17  C4  UNL     1      22.951   2.908  51.186  1.00  0.00    -0.023 A 
HETATM   18  C3  UNL     1      23.292   4.132  51.773  1.00  0.00     0.124 A 
HETATM   19  N1  UNL     1      24.078   5.049  51.190  1.00  0.00    -0.273 NA
HETATM   20  C2  UNL     1      24.607   4.869  49.991  1.00  0.00     0.116 A 
HETATM   21  C1  UNL     1      24.298   3.672  49.370  1.00  0.00     0.020 A 
HETATM   22  C17 UNL     1      23.491   2.705  49.940  1.00  0.00     0.012 A 
ENDBRANCH  16  17
ENDBRANCH  14  16
ENDBRANCH   1  14
TORSDOF 3
ENDMDL
MODEL 7
REMARK VINA RESULT:      -7.6      2.632      6.372
REMARK  3 active torsions:
REMARK  status: ('A' for Active; 'I' for Inactive)
REMARK    1  A    between atoms: C4_5  and  C5_6 
REMARK    2  A    between atoms: C5_6  and  N2_7 
REMARK    3  A    between atoms: N2_7  and  C6_8 
ROOT
HETATM    1  C6  UNL     1      24.481   1.300  52.213  1.00  0.00     0.045 A 
HETATM    2  C7  UNL     1      25.095   2.206  51.376  1.00  0.00     0.049 A 
HETATM    3  C8  UNL     1      24.429   2.969  50.455  1.00  0.00     0.122 A 
HETATM    4  N3  UNL     1      23.096   2.833  50.353  1.00  0.00    -0.236 NA
HETATM    5  C9  UNL     1      22.420   1.974  51.130  1.00  0.00     0.183 A 
HETATM    6  O1  UNL     1      21.167   1.673  51.215  1.00  0.00    -0.290 OA
HETATM    7  C10 UNL     1      20.941   0.760  52.129  1.00  0.00     0.089 A 
HETATM    8  C11 UNL     1      19.791   0.140  52.568  1.00  0.00     0.038 A 
HETATM    9  C12 UNL     1      19.854  -0.803  53.568  1.00  0.00     0.003 A 
HETATM   10  C13 UNL     1      21.103  -1.111  54.119  1.00  0.00     0.001 A 
HETATM   11  C14 UNL     1      22.227  -0.466  53.651  1.00  0.00     0.015 A 
HETATM   12  C15 UNL     1      22.165   0.470  52.659  1.00  0.00     0.015 A 
HETATM   13  C16 UNL     1      23.123   1.212  52.057  1.00  0.00     0.057 A 
ENDROOT
BRANCH   1  14
HETATM   14  N2  UNL     1      25.267   0.561  53.128  1.00  0.00    -0.385 N 
HETATM   15  H6  UNL     1      25.512   0.584  54.100  1.00  0.00     0.160 HD
BRANCH  14  16
HETATM   16  C5  UNL     1      25.966  -0.580  52.633  1.00  0.00     0.160 C 
BRANCH  16  17
HETATM   17  C4  UNL     1      27.357  -0.747  53.012  1.00  0.00    -0.023 A 
HETATM   18  C3  UNL     1      27.931  -2.023  53.044  1.00  0.00     0.124 A 
HETATM   19  N1  UNL     1      29.206  -2.264  53.383  1.00  0.00    -0.273 NA
HETATM   20  C2  UNL     1      30.044  -1.296  53.719  1.00  0.00     0.116 A 
HETATM   21  C1  UNL     1      29.522  -0.015  53.701  1.00  0.00     0.020 A 
HETATM   22  C17 UNL     1      28.213   0.269  53.358  1.00  0.00     0.012 A 
ENDBRANCH  16  17
ENDBRANCH  14  16
ENDBRANCH   1  14
TORSDOF 3
ENDMDL
MODEL 8
REMARK VINA RESULT:      -7.5      1.795      2.290
REMARK  3 active torsions:
REMARK  status: ('A' for Active; 'I' for Inactive)
REMARK    1  A    between atoms: C4_5  and  C5_6 
REMARK    2  A    between atoms: C5_6  and  N2_7 
REMARK    3  A    between atoms: N2_7  and  C6_8 
ROOT
HETATM    1  C6  UNL     1      22.878   2.233  51.493  1.00  0.00     0.045 A 
HETATM    2  C7  UNL     1      21.532   2.474  51.659  1.00  0.00     0.049 A 
HETATM    3  C8  UNL     1      20.748   1.833  52.580  1.00  0.00     0.122 A 
HETATM    4  N3  UNL     1      21.316   0.910  53.375  1.00  0.00    -0.236 NA
HETATM    5  C9  UNL     1      22.620   0.614  53.279  1.00  0.00     0.183 A 
HETATM    6  O1  UNL     1      23.376  -0.216  53.917  1.00  0.00    -0.290 OA
HETATM    7  C10 UNL     1      24.617  -0.179  53.490  1.00  0.00     0.089 A 
HETATM    8  C11 UNL     1      25.753  -0.867  53.859  1.00  0.00     0.038 A 
HETATM    9  C12 UNL     1      26.947  -0.617  53.223  1.00  0.00     0.003 A 
HETATM   10  C13 UNL     1      26.975   0.342  52.204  1.00  0.00     0.001 A 
HETATM   11  C14 UNL     1      25.815   1.006  51.869  1.00  0.00     0.015 A 
HETATM   12  C15 UNL     1      24.629   0.758  52.500  1.00  0.00     0.015 A 
HETATM   13  C16 UNL     1      23.392   1.282  52.335  1.00  0.00     0.057 A 
ENDROOT
BRANCH   1  14
HETATM   14  N2  UNL     1      23.594   2.952  50.508  1.00  0.00    -0.385 N 
HETATM   15  H6  UNL     1      23.843   2.860  49.541  1.00  0.00     0.160 HD
BRANCH  14  16
HETATM   16  C5  UNL     1      24.183   4.195  50.888  1.00  0.00     0.160 C 
BRANCH  16  17
HETATM   17  C4  UNL     1      25.307   4.686  50.112  1.00  0.00    -0.023 A 
HETATM   18  C3  UNL     1      25.466   6.058  49.891  1.00  0.00     0.124 A 
HETATM   19  N1  UNL     1      26.474   6.592  49.187  1.00  0.00    -0.273 NA
HETATM   20  C2  UNL     1      27.421   5.852  48.633  1.00  0.00     0.116 A 
HETATM   21  C1  UNL     1      27.306   4.487  48.824  1.00  0.00     0.020 A 
HETATM   22  C17 UNL     1      26.281   3.902  49.544  1.00  0.00     0.012 A 
ENDBRANCH  16  17
ENDBRANCH  14  16
ENDBRANCH   1  14
TORSDOF 3
ENDMDL
MODEL 9
REMARK VINA RESULT:      -7.4      2.407      5.077
REMARK  3 active torsions:
REMARK  status: ('A' for Active; 'I' for Inactive)
REMARK    1  A    between atoms: C4_5  and  C5_6 
REMARK    2  A    between atoms: C5_6  and  N2_7 
REMARK    3  A    between atoms: N2_7  and  C6_8 
ROOT
HETATM    1  C6  UNL     1      23.541   0.271  52.894  1.00  0.00     0.045 A 
HETATM    2  C7  UNL     1      24.680   0.025  53.629  1.00  0.00     0.049 A 
HETATM    3  C8  UNL     1      24.708  -0.736  54.766  1.00  0.00     0.122 A 
HETATM    4  N3  UNL     1      23.558  -1.282  55.201  1.00  0.00    -0.236 NA
HETATM    5  C9  UNL     1      22.404  -1.092  54.545  1.00  0.00     0.183 A 
HETATM    6  O1  UNL     1      21.199  -1.503  54.762  1.00  0.00    -0.290 OA
HETATM    7  C10 UNL     1      20.360  -1.071  53.850  1.00  0.00     0.089 A 
HETATM    8  C11 UNL     1      19.005  -1.245  53.667  1.00  0.00     0.038 A 
HETATM    9  C12 UNL     1      18.372  -0.660  52.595  1.00  0.00     0.003 A 
HETATM   10  C13 UNL     1      19.134   0.107  51.706  1.00  0.00     0.001 A 
HETATM   11  C14 UNL     1      20.486   0.254  51.926  1.00  0.00     0.015 A 
HETATM   12  C15 UNL     1      21.115  -0.326  52.990  1.00  0.00     0.015 A 
HETATM   13  C16 UNL     1      22.407  -0.314  53.392  1.00  0.00     0.057 A 
ENDROOT
BRANCH   1  14
HETATM   14  N2  UNL     1      23.626   1.076  51.734  1.00  0.00    -0.385 N 
HETATM   15  H6  UNL     1      23.575   0.968  50.738  1.00  0.00     0.160 HD
BRANCH  14  16
HETATM   16  C5  UNL     1      23.851   2.473  51.909  1.00  0.00     0.160 C 
BRANCH  16  17
HETATM   17  C4  UNL     1      24.759   3.141  50.995  1.00  0.00    -0.023 A 
HETATM   18  C3  UNL     1      26.108   2.772  50.946  1.00  0.00     0.124 A 
HETATM   19  N1  UNL     1      27.011   3.338  50.132  1.00  0.00    -0.273 NA
HETATM   20  C2  UNL     1      26.694   4.309  49.290  1.00  0.00     0.116 A 
HETATM   21  C1  UNL     1      25.370   4.708  49.301  1.00  0.00     0.020 A 
HETATM   22  C17 UNL     1      24.413   4.148  50.127  1.00  0.00     0.012 A 
ENDBRANCH  16  17
ENDBRANCH  14  16
ENDBRANCH   1  14
TORSDOF 3
ENDMDL
