MODEL 1
REMARK VINA RESULT:      -8.2      0.000      0.000
REMARK  5 active torsions:
REMARK  status: ('A' for Active; 'I' for Inactive)
REMARK    1  A    between atoms: C3_4  and  C4_5 
REMARK    2  A    between atoms: C7_8  and  N2_9 
REMARK    3  A    between atoms: C8_10  and  N3_11 
REMARK    4  A    between atoms: C9_12  and  C10_13 
REMARK    5  A    between atoms: C10_13  and  C11_14 
ROOT
HETATM    1  C4  UNL     1      24.252   1.907  51.375  1.00  0.00    -0.022 A 
HETATM    2  C5  UNL     1      22.960   1.655  50.994  1.00  0.00     0.014 A 
HETATM    3  C6  UNL     1      22.208   0.693  51.652  1.00  0.00     0.033 A 
HETATM    4  C7  UNL     1      22.761  -0.030  52.709  1.00  0.00     0.064 A 
HETATM    5  C9  UNL     1      24.061   0.218  53.096  1.00  0.00    -0.024 A 
HETATM    6  C15 UNL     1      24.802   1.191  52.424  1.00  0.00     0.022 A 
ENDROOT
BRANCH   5   7
HETATM    7  C10 UNL     1      24.733  -0.497  54.212  1.00  0.00     0.082 C 
BRANCH   7   8
HETATM    8  C11 UNL     1      26.190  -0.647  53.862  1.00  0.00    -0.012 A 
HETATM    9  C12 UNL     1      26.825  -1.407  52.994  1.00  0.00     0.144 A 
HETATM   10  F1  UNL     1      26.823  -2.364  52.008  1.00  0.00    -0.204 F 
HETATM   11  C13 UNL     1      28.129  -0.841  53.402  1.00  0.00     0.073 A 
HETATM   12 CL1  UNL     1      29.880  -0.870  53.134  1.00  0.00    -0.081 Cl
HETATM   13  C14 UNL     1      27.468  -0.086  54.267  1.00  0.00     0.037 A 
ENDBRANCH   7   8
ENDBRANCH   5   7
BRANCH   4  14
HETATM   14  N2  UNL     1      22.140  -1.033  53.482  1.00  0.00    -0.244 NA
HETATM   15  C8  UNL     1      21.238  -0.712  54.342  1.00  0.00     0.200 C 
BRANCH  15  16
HETATM   16  N3  UNL     1      20.481   0.306  54.957  1.00  0.00    -0.394 N 
HETATM   17  H8  UNL     1      20.320   1.230  54.507  1.00  0.00     0.156 HD
HETATM   18  H9  UNL     1      20.208  -0.142  55.846  1.00  0.00     0.156 HD
ENDBRANCH  15  16
ENDBRANCH   4  14
BRANCH   1  19
HETATM   19  C3  UNL     1      25.077   2.930  50.696  1.00  0.00     0.010 A 
HETATM   20  C2  UNL     1      24.820   4.174  50.162  1.00  0.00     0.125 A 
HETATM   21  N1  UNL     1      25.983   4.671  49.660  1.00  0.00    -0.285 N 
HETATM   22  C1  UNL     1      26.103   5.962  49.017  1.00  0.00     0.179 C 
HETATM   23  N4  UNL     1      26.956   3.797  49.855  1.00  0.00    -0.185 NA
HETATM   24  C16 UNL     1      26.446   2.722  50.483  1.00  0.00     0.152 A 
ENDBRANCH   1  19
TORSDOF 5
ENDMDL
MODEL 2
REMARK VINA RESULT:      -8.2      4.019      6.445
REMARK  5 active torsions:
REMARK  status: ('A' for Active; 'I' for Inactive)
REMARK    1  A    between atoms: C3_4  and  C4_5 
REMARK    2  A    between atoms: C7_8  and  N2_9 
REMARK    3  A    between atoms: C8_10  and  N3_11 
REMARK    4  A    between atoms: C9_12  and  C10_13 
REMARK    5  A    between atoms: C10_13  and  C11_14 
ROOT
HETATM    1  C4  UNL     1      25.912   1.711  52.534  1.00  0.00    -0.022 A 
HETATM    2  C5  UNL     1      25.162   2.318  53.507  1.00  0.00     0.014 A 
HETATM    3  C6  UNL     1      24.257   3.317  53.176  1.00  0.00     0.033 A 
HETATM    4  C7  UNL     1      24.102   3.713  51.848  1.00  0.00     0.064 A 
HETATM    5  C9  UNL     1      24.855   3.106  50.865  1.00  0.00    -0.024 A 
HETATM    6  C15 UNL     1      25.759   2.102  51.216  1.00  0.00     0.022 A 
ENDROOT
BRANCH   5   7
HETATM    7  C10 UNL     1      24.756   3.457  49.424  1.00  0.00     0.082 C 
BRANCH   7   8
HETATM    8  C11 UNL     1      25.878   4.404  49.095  1.00  0.00    -0.012 A 
HETATM    9  C12 UNL     1      25.911   5.698  48.854  1.00  0.00     0.144 A 
HETATM   10  F1  UNL     1      25.280   6.912  48.720  1.00  0.00    -0.204 F 
HETATM   11  C13 UNL     1      27.376   5.658  48.657  1.00  0.00     0.073 A 
HETATM   12 CL1  UNL     1      28.825   6.609  48.284  1.00  0.00    -0.081 Cl
HETATM   13  C14 UNL     1      27.318   4.358  48.903  1.00  0.00     0.037 A 
ENDBRANCH   7   8
ENDBRANCH   5   7
BRANCH   4  14
HETATM   14  N2  UNL     1      23.232   4.700  51.342  1.00  0.00    -0.244 NA
HETATM   15  C8  UNL     1      23.501   5.946  51.524  1.00  0.00     0.200 C 
BRANCH  15  16
HETATM   16  N3  UNL     1      24.371   6.914  52.065  1.00  0.00    -0.394 N 
HETATM   17  H8  UNL     1      24.262   7.931  51.873  1.00  0.00     0.156 HD
HETATM   18  H9  UNL     1      25.022   6.330  52.613  1.00  0.00     0.156 HD
ENDBRANCH  15  16
ENDBRANCH   4  14
BRANCH   1  19
HETATM   19  C3  UNL     1      26.882   0.641  52.856  1.00  0.00     0.010 A 
HETATM   20  C2  UNL     1      28.221   0.623  53.183  1.00  0.00     0.125 A 
HETATM   21  N1  UNL     1      28.592  -0.671  53.383  1.00  0.00    -0.285 N 
HETATM   22  C1  UNL     1      29.932  -1.084  53.743  1.00  0.00     0.179 C 
HETATM   23  N4  UNL     1      27.549  -1.463  53.197  1.00  0.00    -0.185 NA
HETATM   24  C16 UNL     1      26.487  -0.703  52.874  1.00  0.00     0.152 A 
ENDBRANCH   1  19
TORSDOF 5
ENDMDL
MODEL 3
REMARK VINA RESULT:      -7.8      3.648      5.532
REMARK  5 active torsions:
REMARK  status: ('A' for Active; 'I' for Inactive)
REMARK    1  A    between atoms: C3_4  and  C4_5 
REMARK    2  A    between atoms: C7_8  and  N2_9 
REMARK    3  A    between atoms: C8_10  and  N3_11 
REMARK    4  A    between atoms: C9_12  and  C10_13 
REMARK    5  A    between atoms: C10_13  and  C11_14 
ROOT
HETATM    1  C4  UNL     1      24.711  -0.088  53.439  1.00  0.00    -0.022 A 
HETATM    2  C5  UNL     1      23.752  -0.623  54.258  1.00  0.00     0.014 A 
HETATM    3  C6  UNL     1      22.406  -0.455  53.967  1.00  0.00     0.033 A 
HETATM    4  C7  UNL     1      22.016   0.261  52.836  1.00  0.00     0.064 A 
HETATM    5  C9  UNL     1      22.976   0.803  52.009  1.00  0.00    -0.024 A 
HETATM    6  C15 UNL     1      24.326   0.623  52.317  1.00  0.00     0.022 A 
ENDROOT
BRANCH   5   7
HETATM    7  C10 UNL     1      22.657   1.578  50.781  1.00  0.00     0.082 C 
BRANCH   7   8
HETATM    8  C11 UNL     1      23.060   3.010  51.013  1.00  0.00    -0.012 A 
HETATM    9  C12 UNL     1      22.567   3.963  51.777  1.00  0.00     0.144 A 
HETATM   10  F1  UNL     1      21.645   4.413  52.690  1.00  0.00    -0.204 F 
HETATM   11  C13 UNL     1      23.602   4.913  51.316  1.00  0.00     0.073 A 
HETATM   12 CL1  UNL     1      24.231   6.564  51.454  1.00  0.00    -0.081 Cl
HETATM   13  C14 UNL     1      24.080   3.940  50.557  1.00  0.00     0.037 A 
ENDBRANCH   7   8
ENDBRANCH   5   7
BRANCH   4  14
HETATM   14  N2  UNL     1      20.701   0.521  52.395  1.00  0.00    -0.244 NA
HETATM   15  C8  UNL     1      19.715  -0.132  52.902  1.00  0.00     0.200 C 
BRANCH  15  16
HETATM   16  N3  UNL     1      19.273  -1.116  53.809  1.00  0.00    -0.394 N 
HETATM   17  H8  UNL     1      19.781  -2.012  53.950  1.00  0.00     0.156 HD
HETATM   18  H9  UNL     1      18.422  -0.679  54.196  1.00  0.00     0.156 HD
ENDBRANCH  15  16
ENDBRANCH   4  14
BRANCH   1  19
HETATM   19  C3  UNL     1      26.154  -0.254  53.721  1.00  0.00     0.010 A 
HETATM   20  C2  UNL     1      27.216  -0.785  53.021  1.00  0.00     0.125 A 
HETATM   21  N1  UNL     1      28.335  -0.661  53.788  1.00  0.00    -0.285 N 
HETATM   22  C1  UNL     1      29.649  -1.110  53.382  1.00  0.00     0.179 C 
HETATM   23  N4  UNL     1      28.022  -0.078  54.932  1.00  0.00    -0.185 NA
HETATM   24  C16 UNL     1      26.703   0.186  54.932  1.00  0.00     0.152 A 
ENDBRANCH   1  19
TORSDOF 5
ENDMDL
MODEL 4
REMARK VINA RESULT:      -7.6      3.815      6.025
REMARK  5 active torsions:
REMARK  status: ('A' for Active; 'I' for Inactive)
REMARK    1  A    between atoms: C3_4  and  C4_5 
REMARK    2  A    between atoms: C7_8  and  N2_9 
REMARK    3  A    between atoms: C8_10  and  N3_11 
REMARK    4  A    between atoms: C9_12  and  C10_13 
REMARK    5  A    between atoms: C10_13  and  C11_14 
ROOT
HETATM    1  C4  UNL     1      25.373   1.239  52.777  1.00  0.00    -0.022 A 
HETATM    2  C5  UNL     1      25.313   2.425  53.461  1.00  0.00     0.014 A 
HETATM    3  C6  UNL     1      24.253   3.298  53.263  1.00  0.00     0.033 A 
HETATM    4  C7  UNL     1      23.237   2.978  52.363  1.00  0.00     0.064 A 
HETATM    5  C9  UNL     1      23.293   1.787  51.671  1.00  0.00    -0.024 A 
HETATM    6  C15 UNL     1      24.366   0.920  51.884  1.00  0.00     0.022 A 
ENDROOT
BRANCH   5   7
HETATM    7  C10 UNL     1      22.256   1.357  50.696  1.00  0.00     0.082 C 
BRANCH   7   8
HETATM    8  C11 UNL     1      21.159   0.659  51.456  1.00  0.00    -0.012 A 
HETATM    9  C12 UNL     1      21.149  -0.020  52.583  1.00  0.00     0.144 A 
HETATM   10  F1  UNL     1      21.795  -0.537  53.680  1.00  0.00    -0.204 F 
HETATM   11  C13 UNL     1      19.696  -0.266  52.460  1.00  0.00     0.073 A 
HETATM   12 CL1  UNL     1      18.276  -1.023  53.203  1.00  0.00    -0.081 Cl
HETATM   13  C14 UNL     1      19.731   0.421  51.329  1.00  0.00     0.037 A 
ENDBRANCH   7   8
ENDBRANCH   5   7
BRANCH   4  14
HETATM   14  N2  UNL     1      22.096   3.743  52.048  1.00  0.00    -0.244 NA
HETATM   15  C8  UNL     1      22.214   5.003  51.812  1.00  0.00     0.200 C 
BRANCH  15  16
HETATM   16  N3  UNL     1      23.061   6.126  51.710  1.00  0.00    -0.394 N 
HETATM   17  H8  UNL     1      23.978   6.178  52.198  1.00  0.00     0.156 HD
HETATM   18  H9  UNL     1      22.518   6.743  51.086  1.00  0.00     0.156 HD
ENDBRANCH  15  16
ENDBRANCH   4  14
BRANCH   1  19
HETATM   19  C3  UNL     1      26.488   0.287  52.970  1.00  0.00     0.010 A 
HETATM   20  C2  UNL     1      27.826   0.421  53.273  1.00  0.00     0.125 A 
HETATM   21  N1  UNL     1      28.376  -0.823  53.330  1.00  0.00    -0.285 N 
HETATM   22  C1  UNL     1      29.769  -1.081  53.625  1.00  0.00     0.179 C 
HETATM   23  N4  UNL     1      27.445  -1.728  53.078  1.00  0.00    -0.185 NA
HETATM   24  C16 UNL     1      26.281  -1.093  52.852  1.00  0.00     0.152 A 
ENDBRANCH   1  19
TORSDOF 5
ENDMDL
MODEL 5
REMARK VINA RESULT:      -7.6      3.312      6.661
REMARK  5 active torsions:
REMARK  status: ('A' for Active; 'I' for Inactive)
REMARK    1  A    between atoms: C3_4  and  C4_5 
REMARK    2  A    between atoms: C7_8  and  N2_9 
REMARK    3  A    between atoms: C8_10  and  N3_11 
REMARK    4  A    between atoms: C9_12  and  C10_13 
REMARK    5  A    between atoms: C10_13  and  C11_14 
ROOT
HETATM    1  C4  UNL     1      24.384  -0.127  53.812  1.00  0.00    -0.022 A 
HETATM    2  C5  UNL     1      25.300  -0.456  54.777  1.00  0.00     0.014 A 
HETATM    3  C6  UNL     1      26.626  -0.068  54.649  1.00  0.00     0.033 A 
HETATM    4  C7  UNL     1      27.040   0.661  53.535  1.00  0.00     0.064 A 
HETATM    5  C9  UNL     1      26.123   0.995  52.561  1.00  0.00    -0.024 A 
HETATM    6  C15 UNL     1      24.793   0.597  52.707  1.00  0.00     0.022 A 
ENDROOT
BRANCH   5   7
HETATM    7  C10 UNL     1      26.469   1.773  51.342  1.00  0.00     0.082 C 
BRANCH   7   8
HETATM    8  C11 UNL     1      25.323   2.702  51.039  1.00  0.00    -0.012 A 
HETATM    9  C12 UNL     1      24.544   3.436  51.806  1.00  0.00     0.144 A 
HETATM   10  F1  UNL     1      24.159   3.888  53.044  1.00  0.00    -0.204 F 
HETATM   11  C13 UNL     1      23.801   3.936  50.629  1.00  0.00     0.073 A 
HETATM   12 CL1  UNL     1      22.484   4.983  50.071  1.00  0.00    -0.081 Cl
HETATM   13  C14 UNL     1      24.597   3.189  49.878  1.00  0.00     0.037 A 
ENDBRANCH   7   8
ENDBRANCH   5   7
BRANCH   4  14
HETATM   14  N2  UNL     1      28.338   1.135  53.252  1.00  0.00    -0.244 NA
HETATM   15  C8  UNL     1      29.353   0.365  53.429  1.00  0.00     0.200 C 
BRANCH  15  16
HETATM   16  N3  UNL     1      29.843  -0.897  53.826  1.00  0.00    -0.394 N 
HETATM   17  H8  UNL     1      30.525  -1.010  54.603  1.00  0.00     0.156 HD
HETATM   18  H9  UNL     1      29.353  -1.528  53.173  1.00  0.00     0.156 HD
ENDBRANCH  15  16
ENDBRANCH   4  14
BRANCH   1  19
HETATM   19  C3  UNL     1      22.963  -0.523  53.923  1.00  0.00     0.010 A 
HETATM   20  C2  UNL     1      21.818  -0.204  53.226  1.00  0.00     0.125 A 
HETATM   21  N1  UNL     1      20.778  -0.885  53.781  1.00  0.00    -0.285 N 
HETATM   22  C1  UNL     1      19.411  -0.801  53.313  1.00  0.00     0.179 C 
HETATM   23  N4  UNL     1      21.219  -1.615  54.792  1.00  0.00    -0.185 NA
HETATM   24  C16 UNL     1      22.544  -1.423  54.912  1.00  0.00     0.152 A 
ENDBRANCH   1  19
TORSDOF 5
ENDMDL
MODEL 6
REMARK VINA RESULT:      -7.6      1.404      5.428
REMARK  5 active torsions:
REMARK  status: ('A' for Active; 'I' for Inactive)
REMARK    1  A    between atoms: C3_4  and  C4_5 
REMARK    2  A    between atoms: C7_8  and  N2_9 
REMARK    3  A    between atoms: C8_10  and  N3_11 
REMARK    4  A    between atoms: C9_12  and  C10_13 
REMARK    5  A    between atoms: C10_13  and  C11_14 
ROOT
HETATM    1  C4  UNL     1      22.735   0.746  52.495  1.00  0.00    -0.022 A 
HETATM    2  C5  UNL     1      22.601   1.234  51.221  1.00  0.00     0.014 A 
HETATM    3  C6  UNL     1      23.586   2.041  50.670  1.00  0.00     0.033 A 
HETATM    4  C7  UNL     1      24.723   2.365  51.409  1.00  0.00     0.064 A 
HETATM    5  C9  UNL     1      24.863   1.879  52.691  1.00  0.00    -0.024 A 
HETATM    6  C15 UNL     1      23.862   1.067  53.229  1.00  0.00     0.022 A 
ENDROOT
BRANCH   5   7
HETATM    7  C10 UNL     1      26.040   2.166  53.553  1.00  0.00     0.082 C 
BRANCH   7   8
HETATM    8  C11 UNL     1      26.983   0.995  53.462  1.00  0.00    -0.012 A 
HETATM    9  C12 UNL     1      27.099   0.008  52.598  1.00  0.00     0.144 A 
HETATM   10  F1  UNL     1      26.689  -0.648  51.463  1.00  0.00    -0.204 F 
HETATM   11  C13 UNL     1      28.241  -0.558  53.347  1.00  0.00     0.073 A 
HETATM   12 CL1  UNL     1      29.440  -1.861  53.414  1.00  0.00    -0.081 Cl
HETATM   13  C14 UNL     1      28.106   0.445  54.202  1.00  0.00     0.037 A 
ENDBRANCH   7   8
ENDBRANCH   5   7
BRANCH   4  14
HETATM   14  N2  UNL     1      25.813   3.164  51.003  1.00  0.00    -0.244 NA
HETATM   15  C8  UNL     1      25.600   4.264  50.370  1.00  0.00     0.200 C 
BRANCH  15  16
HETATM   16  N3  UNL     1      24.666   5.163  49.817  1.00  0.00    -0.394 N 
HETATM   17  H8  UNL     1      24.448   5.184  48.799  1.00  0.00     0.156 HD
HETATM   18  H9  UNL     1      24.352   5.681  50.652  1.00  0.00     0.156 HD
ENDBRANCH  15  16
ENDBRANCH   4  14
BRANCH   1  19
HETATM   19  C3  UNL     1      21.704  -0.120  53.107  1.00  0.00     0.010 A 
HETATM   20  C2  UNL     1      20.368  -0.351  52.855  1.00  0.00     0.125 A 
HETATM   21  N1  UNL     1      19.919  -1.272  53.752  1.00  0.00    -0.285 N 
HETATM   22  C1  UNL     1      18.560  -1.765  53.795  1.00  0.00     0.179 C 
HETATM   23  N4  UNL     1      20.910  -1.626  54.552  1.00  0.00    -0.185 NA
HETATM   24  C16 UNL     1      22.015  -0.947  54.193  1.00  0.00     0.152 A 
ENDBRANCH   1  19
TORSDOF 5
ENDMDL
MODEL 7
REMARK VINA RESULT:      -7.4      3.556      4.955
REMARK  5 active torsions:
REMARK  status: ('A' for Active; 'I' for Inactive)
REMARK    1  A    between atoms: C3_4  and  C4_5 
REMARK    2  A    between atoms: C7_8  and  N2_9 
REMARK    3  A    between atoms: C8_10  and  N3_11 
REMARK    4  A    between atoms: C9_12  and  C10_13 
REMARK    5  A    between atoms: C10_13  and  C11_14 
ROOT
HETATM    1  C4  UNL     1      24.530   2.653  51.986  1.00  0.00    -0.022 A 
HETATM    2  C5  UNL     1      25.706   2.427  51.322  1.00  0.00     0.014 A 
HETATM    3  C6  UNL     1      26.421   1.257  51.535  1.00  0.00     0.033 A 
HETATM    4  C7  UNL     1      25.948   0.298  52.430  1.00  0.00     0.064 A 
HETATM    5  C9  UNL     1      24.765   0.520  53.102  1.00  0.00    -0.024 A 
HETATM    6  C15 UNL     1      24.059   1.703  52.874  1.00  0.00     0.022 A 
ENDROOT
BRANCH   5   7
HETATM    7  C10 UNL     1      24.180  -0.444  54.071  1.00  0.00     0.082 C 
BRANCH   7   8
HETATM    8  C11 UNL     1      22.699  -0.529  53.810  1.00  0.00    -0.012 A 
HETATM    9  C12 UNL     1      21.981  -0.452  52.709  1.00  0.00     0.144 A 
HETATM   10  F1  UNL     1      21.884  -0.295  51.348  1.00  0.00    -0.204 F 
HETATM   11  C13 UNL     1      20.729  -0.642  53.472  1.00  0.00     0.073 A 
HETATM   12 CL1  UNL     1      18.964  -0.769  53.372  1.00  0.00    -0.081 Cl
HETATM   13  C14 UNL     1      21.472  -0.716  54.566  1.00  0.00     0.037 A 
ENDBRANCH   7   8
ENDBRANCH   5   7
BRANCH   4  14
HETATM   14  N2  UNL     1      26.542  -0.938  52.759  1.00  0.00    -0.244 NA
HETATM   15  C8  UNL     1      27.741  -0.967  53.226  1.00  0.00     0.200 C 
BRANCH  15  16
HETATM   16  N3  UNL     1      28.891  -0.250  53.614  1.00  0.00    -0.394 N 
HETATM   17  H8  UNL     1      29.008   0.765  53.417  1.00  0.00     0.156 HD
HETATM   18  H9  UNL     1      29.452  -0.983  54.075  1.00  0.00     0.156 HD
ENDBRANCH  15  16
ENDBRANCH   4  14
BRANCH   1  19
HETATM   19  C3  UNL     1      23.744   3.889  51.777  1.00  0.00     0.010 A 
HETATM   20  C2  UNL     1      24.005   5.105  51.183  1.00  0.00     0.125 A 
HETATM   21  N1  UNL     1      22.886   5.875  51.282  1.00  0.00    -0.285 N 
HETATM   22  C1  UNL     1      22.783   7.224  50.770  1.00  0.00     0.179 C 
HETATM   23  N4  UNL     1      21.940   5.198  51.909  1.00  0.00    -0.185 NA
HETATM   24  C16 UNL     1      22.421   3.983  52.228  1.00  0.00     0.152 A 
ENDBRANCH   1  19
TORSDOF 5
ENDMDL
MODEL 8
REMARK VINA RESULT:      -7.3      1.856      2.499
REMARK  5 active torsions:
REMARK  status: ('A' for Active; 'I' for Inactive)
REMARK    1  A    between atoms: C3_4  and  C4_5 
REMARK    2  A    between atoms: C7_8  and  N2_9 
REMARK    3  A    between atoms: C8_10  and  N3_11 
REMARK    4  A    between atoms: C9_12  and  C10_13 
REMARK    5  A    between atoms: C10_13  and  C11_14 
ROOT
HETATM    1  C4  UNL     1      24.903   3.497  49.855  1.00  0.00    -0.022 A 
HETATM    2  C5  UNL     1      23.815   3.111  49.117  1.00  0.00     0.014 A 
HETATM    3  C6  UNL     1      22.884   2.228  49.646  1.00  0.00     0.033 A 
HETATM    4  C7  UNL     1      23.048   1.724  50.935  1.00  0.00     0.064 A 
HETATM    5  C9  UNL     1      24.142   2.107  51.682  1.00  0.00    -0.024 A 
HETATM    6  C15 UNL     1      25.068   2.997  51.134  1.00  0.00     0.022 A 
ENDROOT
BRANCH   5   7
HETATM    7  C10 UNL     1      24.399   1.627  53.065  1.00  0.00     0.082 C 
BRANCH   7   8
HETATM    8  C11 UNL     1      25.841   1.203  53.153  1.00  0.00    -0.012 A 
HETATM    9  C12 UNL     1      26.567   0.359  52.451  1.00  0.00     0.144 A 
HETATM   10  F1  UNL     1      26.700  -0.550  51.429  1.00  0.00    -0.204 F 
HETATM   11  C13 UNL     1      27.760   0.645  53.277  1.00  0.00     0.073 A 
HETATM   12 CL1  UNL     1      29.473   0.279  53.542  1.00  0.00    -0.081 Cl
HETATM   13  C14 UNL     1      27.010   1.489  53.969  1.00  0.00     0.037 A 
ENDBRANCH   7   8
ENDBRANCH   5   7
BRANCH   4  14
HETATM   14  N2  UNL     1      22.202   0.828  51.622  1.00  0.00    -0.244 NA
HETATM   15  C8  UNL     1      20.971   1.141  51.829  1.00  0.00     0.200 C 
BRANCH  15  16
HETATM   16  N3  UNL     1      19.935   2.084  51.674  1.00  0.00    -0.394 N 
HETATM   17  H8  UNL     1      18.941   1.804  51.544  1.00  0.00     0.156 HD
HETATM   18  H9  UNL     1      20.451   2.976  51.729  1.00  0.00     0.156 HD
ENDBRANCH  15  16
ENDBRANCH   4  14
BRANCH   1  19
HETATM   19  C3  UNL     1      25.910   4.439  49.319  1.00  0.00     0.010 A 
HETATM   20  C2  UNL     1      27.256   4.352  49.039  1.00  0.00     0.125 A 
HETATM   21  N1  UNL     1      27.668   5.554  48.550  1.00  0.00    -0.285 N 
HETATM   22  C1  UNL     1      29.027   5.841  48.144  1.00  0.00     0.179 C 
HETATM   23  N4  UNL     1      26.643   6.388  48.511  1.00  0.00    -0.185 NA
HETATM   24  C16 UNL     1      25.553   5.749  48.972  1.00  0.00     0.152 A 
ENDBRANCH   1  19
TORSDOF 5
ENDMDL
MODEL 9
REMARK VINA RESULT:      -7.3      1.587      1.720
REMARK  5 active torsions:
REMARK  status: ('A' for Active; 'I' for Inactive)
REMARK    1  A    between atoms: C3_4  and  C4_5 
REMARK    2  A    between atoms: C7_8  and  N2_9 
REMARK    3  A    between atoms: C8_10  and  N3_11 
REMARK    4  A    between atoms: C9_12  and  C10_13 
REMARK    5  A    between atoms: C10_13  and  C11_14 
ROOT
HETATM    1  C4  UNL     1      23.489   2.068  51.627  1.00  0.00    -0.022 A 
HETATM    2  C5  UNL     1      22.268   2.020  52.246  1.00  0.00     0.014 A 
HETATM    3  C6  UNL     1      22.000   1.046  53.198  1.00  0.00     0.033 A 
HETATM    4  C7  UNL     1      22.974   0.106  53.533  1.00  0.00     0.064 A 
HETATM    5  C9  UNL     1      24.204   0.149  52.913  1.00  0.00    -0.024 A 
HETATM    6  C15 UNL     1      24.456   1.136  51.958  1.00  0.00     0.022 A 
ENDROOT
BRANCH   5   7
HETATM    7  C10 UNL     1      25.304  -0.807  53.207  1.00  0.00     0.082 C 
BRANCH   7   8
HETATM    8  C11 UNL     1      26.537  -0.011  53.545  1.00  0.00    -0.012 A 
HETATM    9  C12 UNL     1      27.822  -0.246  53.381  1.00  0.00     0.144 A 
HETATM   10  F1  UNL     1      28.852  -1.049  52.952  1.00  0.00    -0.204 F 
HETATM   11  C13 UNL     1      28.172   1.052  53.996  1.00  0.00     0.073 A 
HETATM   12 CL1  UNL     1      29.494   2.135  54.468  1.00  0.00    -0.081 Cl
HETATM   13  C14 UNL     1      26.874   1.266  54.150  1.00  0.00     0.037 A 
ENDBRANCH   7   8
ENDBRANCH   5   7
BRANCH   4  14
HETATM   14  N2  UNL     1      22.870  -0.940  54.474  1.00  0.00    -0.244 NA
HETATM   15  C8  UNL     1      21.741  -1.531  54.654  1.00  0.00     0.200 C 
BRANCH  15  16
HETATM   16  N3  UNL     1      20.378  -1.636  54.307  1.00  0.00    -0.394 N 
HETATM   17  H8  UNL     1      19.838  -2.517  54.431  1.00  0.00     0.156 HD
HETATM   18  H9  UNL     1      20.176  -0.687  53.955  1.00  0.00     0.156 HD
ENDBRANCH  15  16
ENDBRANCH   4  14
BRANCH   1  19
HETATM   19  C3  UNL     1      23.804   3.097  50.611  1.00  0.00     0.010 A 
HETATM   20  C2  UNL     1      23.051   3.992  49.883  1.00  0.00     0.125 A 
HETATM   21  N1  UNL     1      23.892   4.708  49.088  1.00  0.00    -0.285 N 
HETATM   22  C1  UNL     1      23.460   5.746  48.177  1.00  0.00     0.179 C 
HETATM   23  N4  UNL     1      25.136   4.304  49.286  1.00  0.00    -0.185 NA
HETATM   24  C16 UNL     1      25.126   3.323  50.206  1.00  0.00     0.152 A 
ENDBRANCH   1  19
TORSDOF 5
ENDMDL
