MODEL 1
REMARK VINA RESULT:      -7.7      0.000      0.000
REMARK  4 active torsions:
REMARK  status: ('A' for Active; 'I' for Inactive)
REMARK    1  A    between atoms: C7_7  and  N1_8 
REMARK    2  A    between atoms: N1_8  and  C8_9 
REMARK    3  A    between atoms: C9_10  and  C10_11 
REMARK    4  A    between atoms: C11_12  and  C12_13 
ROOT
HETATM    1  C1  UNL     1      19.006   3.268  51.835  1.00  0.00     0.024 C 
HETATM    2  C2  UNL     1      20.270   2.557  51.949  1.00  0.00     0.025 A 
HETATM    3  C3  UNL     1      20.354   1.430  52.685  1.00  0.00     0.018 A 
HETATM    4  C4  UNL     1      21.010   0.236  53.280  1.00  0.00    -0.014 C 
HETATM    5  C5  UNL     1      22.269  -0.246  53.369  1.00  0.00    -0.001 C 
HETATM    6  C6  UNL     1      23.541   0.275  52.944  1.00  0.00     0.026 C 
HETATM    7  C7  UNL     1      24.159   1.359  52.410  1.00  0.00     0.029 C 
HETATM    8  C13 UNL     1      23.388   2.580  52.707  1.00  0.00     0.205 C 
HETATM    9  N2  UNL     1      22.739   3.419  51.827  1.00  0.00    -0.290 NA
HETATM   10  C14 UNL     1      21.460   3.428  51.511  1.00  0.00     0.035 C 
HETATM   11  C15 UNL     1      21.299   4.534  50.550  1.00  0.00     0.172 C 
HETATM   12  N3  UNL     1      21.530   4.041  49.262  1.00  0.00    -0.407 N 
HETATM   13  C16 UNL     1      20.490   3.505  48.491  1.00  0.00     0.117 C 
HETATM   14  C17 UNL     1      20.414   2.029  48.760  1.00  0.00     0.024 C 
HETATM   15  C18 UNL     1      21.630   1.394  49.353  1.00  0.00    -0.012 C 
HETATM   16  C19 UNL     1      22.887   2.102  49.008  1.00  0.00     0.024 C 
HETATM   17  C20 UNL     1      22.841   3.605  48.950  1.00  0.00     0.117 C 
HETATM   18  C21 UNL     1      21.456   0.780  50.666  1.00  0.00     0.005 C 
HETATM   19  O1  UNL     1      21.541   1.566  51.894  1.00  0.00     0.000 OA
ENDROOT
BRANCH   7  20
HETATM   20  N1  UNL     1      25.439   1.787  51.986  1.00  0.00    -0.368 N 
HETATM   21  H7  UNL     1      26.252   1.222  52.282  1.00  0.00     0.165 HD
BRANCH  20  22
HETATM   22  C8  UNL     1      25.838   2.896  51.196  1.00  0.00     0.088 C 
HETATM   23  C9  UNL     1      26.420   2.891  50.011  1.00  0.00     0.017 C 
BRANCH  23  24
HETATM   24  C10 UNL     1      26.819   4.049  49.223  1.00  0.00    -0.002 C 
HETATM   25  C11 UNL     1      26.174   5.192  49.394  1.00  0.00    -0.016 C 
BRANCH  25  26
HETATM   26  C12 UNL     1      26.587   6.359  48.589  1.00  0.00     0.112 C 
HETATM   27 BR1  UNL     1      28.468   6.180  48.207  1.00  0.00    -0.092 Br
ENDBRANCH  25  26
ENDBRANCH  23  24
ENDBRANCH  20  22
ENDBRANCH   7  20
TORSDOF 4
ENDMDL
MODEL 2
REMARK VINA RESULT:      -7.4      4.031      6.888
REMARK  4 active torsions:
REMARK  status: ('A' for Active; 'I' for Inactive)
REMARK    1  A    between atoms: C7_7  and  N1_8 
REMARK    2  A    between atoms: N1_8  and  C8_9 
REMARK    3  A    between atoms: C9_10  and  C10_11 
REMARK    4  A    between atoms: C11_12  and  C12_13 
ROOT
HETATM    1  C1  UNL     1      25.869   3.291  49.946  1.00  0.00     0.024 C 
HETATM    2  C2  UNL     1      24.795   2.653  50.690  1.00  0.00     0.025 A 
HETATM    3  C3  UNL     1      25.075   1.745  51.647  1.00  0.00     0.018 A 
HETATM    4  C4  UNL     1      24.780   0.770  52.730  1.00  0.00    -0.014 C 
HETATM    5  C5  UNL     1      23.675   0.195  53.255  1.00  0.00    -0.001 C 
HETATM    6  C6  UNL     1      22.281   0.270  52.904  1.00  0.00     0.026 C 
HETATM    7  C7  UNL     1      21.405   0.756  51.988  1.00  0.00     0.029 C 
HETATM    8  C13 UNL     1      22.080   0.942  50.691  1.00  0.00     0.205 C 
HETATM    9  N2  UNL     1      22.323   2.118  50.012  1.00  0.00    -0.290 NA
HETATM   10  C14 UNL     1      23.433   2.826  49.995  1.00  0.00     0.035 C 
HETATM   11  C15 UNL     1      23.160   3.966  49.100  1.00  0.00     0.172 C 
HETATM   12  N3  UNL     1      22.605   5.002  49.857  1.00  0.00    -0.407 N 
HETATM   13  C16 UNL     1      23.415   5.962  50.479  1.00  0.00     0.117 C 
HETATM   14  C17 UNL     1      23.744   5.479  51.862  1.00  0.00     0.024 C 
HETATM   15  C18 UNL     1      22.853   4.423  52.431  1.00  0.00    -0.012 C 
HETATM   16  C19 UNL     1      21.476   4.461  51.881  1.00  0.00     0.024 C 
HETATM   17  C20 UNL     1      21.323   4.792  50.421  1.00  0.00     0.117 C 
HETATM   18  C21 UNL     1      23.492   3.151  52.755  1.00  0.00     0.005 C 
HETATM   19  O1  UNL     1      23.695   2.119  51.742  1.00  0.00     0.000 OA
ENDROOT
BRANCH   7  20
HETATM   20  N1  UNL     1      20.016   0.811  51.729  1.00  0.00    -0.368 N 
HETATM   21  H7  UNL     1      19.638   1.691  51.341  1.00  0.00     0.165 HD
BRANCH  20  22
HETATM   22  C8  UNL     1      18.994  -0.157  51.908  1.00  0.00     0.088 C 
HETATM   23  C9  UNL     1      18.606  -0.742  53.026  1.00  0.00     0.017 C 
BRANCH  23  24
HETATM   24  C10 UNL     1      17.551  -1.734  53.179  1.00  0.00    -0.002 C 
HETATM   25  C11 UNL     1      17.873  -2.955  53.577  1.00  0.00    -0.016 C 
BRANCH  25  26
HETATM   26  C12 UNL     1      16.795  -3.952  53.728  1.00  0.00     0.112 C 
HETATM   27 BR1  UNL     1      15.379  -3.484  52.508  1.00  0.00    -0.092 Br
ENDBRANCH  25  26
ENDBRANCH  23  24
ENDBRANCH  20  22
ENDBRANCH   7  20
TORSDOF 4
ENDMDL
MODEL 3
REMARK VINA RESULT:      -7.1      2.006      2.623
REMARK  4 active torsions:
REMARK  status: ('A' for Active; 'I' for Inactive)
REMARK    1  A    between atoms: C7_7  and  N1_8 
REMARK    2  A    between atoms: N1_8  and  C8_9 
REMARK    3  A    between atoms: C9_10  and  C10_11 
REMARK    4  A    between atoms: C11_12  and  C12_13 
ROOT
HETATM    1  C1  UNL     1      19.903   0.923  50.339  1.00  0.00     0.024 C 
HETATM    2  C2  UNL     1      21.018   1.715  50.837  1.00  0.00     0.025 A 
HETATM    3  C3  UNL     1      21.906   1.176  51.697  1.00  0.00     0.018 A 
HETATM    4  C4  UNL     1      23.110   1.138  52.568  1.00  0.00    -0.014 C 
HETATM    5  C5  UNL     1      24.022   2.029  53.015  1.00  0.00    -0.001 C 
HETATM    6  C6  UNL     1      24.149   3.454  52.853  1.00  0.00     0.026 C 
HETATM    7  C7  UNL     1      23.536   4.561  52.363  1.00  0.00     0.029 C 
HETATM    8  C13 UNL     1      22.077   4.355  52.321  1.00  0.00     0.205 C 
HETATM    9  N2  UNL     1      21.251   4.295  51.219  1.00  0.00    -0.290 NA
HETATM   10  C14 UNL     1      20.802   3.220  50.603  1.00  0.00     0.035 C 
HETATM   11  C15 UNL     1      19.948   3.720  49.510  1.00  0.00     0.172 C 
HETATM   12  N3  UNL     1      20.748   3.931  48.383  1.00  0.00    -0.407 N 
HETATM   13  C16 UNL     1      20.975   2.910  47.451  1.00  0.00     0.117 C 
HETATM   14  C17 UNL     1      22.208   2.158  47.862  1.00  0.00     0.024 C 
HETATM   15  C18 UNL     1      23.135   2.859  48.802  1.00  0.00    -0.012 C 
HETATM   16  C19 UNL     1      23.073   4.337  48.692  1.00  0.00     0.024 C 
HETATM   17  C20 UNL     1      21.723   4.957  48.451  1.00  0.00     0.117 C 
HETATM   18  C21 UNL     1      23.343   2.216  50.095  1.00  0.00     0.005 C 
HETATM   19  O1  UNL     1      22.419   2.421  51.208  1.00  0.00     0.000 OA
ENDROOT
BRANCH   7  20
HETATM   20  N1  UNL     1      23.749   5.951  52.216  1.00  0.00    -0.368 N 
HETATM   21  H7  UNL     1      23.543   6.554  53.030  1.00  0.00     0.165 HD
BRANCH  20  22
HETATM   22  C8  UNL     1      24.212   6.713  51.112  1.00  0.00     0.088 C 
HETATM   23  C9  UNL     1      25.320   6.553  50.413  1.00  0.00     0.017 C 
BRANCH  23  24
HETATM   24  C10 UNL     1      25.769   7.353  49.282  1.00  0.00    -0.002 C 
HETATM   25  C11 UNL     1      26.745   6.889  48.516  1.00  0.00    -0.016 C 
BRANCH  25  26
HETATM   26  C12 UNL     1      27.192   7.709  47.373  1.00  0.00     0.112 C 
HETATM   27 BR1  UNL     1      25.624   8.340  46.447  1.00  0.00    -0.092 Br
ENDBRANCH  25  26
ENDBRANCH  23  24
ENDBRANCH  20  22
ENDBRANCH   7  20
TORSDOF 4
ENDMDL
MODEL 4
REMARK VINA RESULT:      -6.8      3.384      6.049
REMARK  4 active torsions:
REMARK  status: ('A' for Active; 'I' for Inactive)
REMARK    1  A    between atoms: C7_7  and  N1_8 
REMARK    2  A    between atoms: N1_8  and  C8_9 
REMARK    3  A    between atoms: C9_10  and  C10_11 
REMARK    4  A    between atoms: C11_12  and  C12_13 
ROOT
HETATM    1  C1  UNL     1      25.930   3.857  49.448  1.00  0.00     0.024 C 
HETATM    2  C2  UNL     1      25.035   3.120  50.327  1.00  0.00     0.025 A 
HETATM    3  C3  UNL     1      25.532   2.255  51.234  1.00  0.00     0.018 A 
HETATM    4  C4  UNL     1      25.484   1.267  52.344  1.00  0.00    -0.014 C 
HETATM    5  C5  UNL     1      24.523   0.588  53.009  1.00  0.00    -0.001 C 
HETATM    6  C6  UNL     1      23.095   0.518  52.848  1.00  0.00     0.026 C 
HETATM    7  C7  UNL     1      22.060   0.903  52.059  1.00  0.00     0.029 C 
HETATM    8  C13 UNL     1      22.533   1.144  50.684  1.00  0.00     0.205 C 
HETATM    9  N2  UNL     1      22.563   2.330  49.983  1.00  0.00    -0.290 NA
HETATM   10  C14 UNL     1      23.583   3.148  49.820  1.00  0.00     0.035 C 
HETATM   11  C15 UNL     1      23.078   4.245  48.974  1.00  0.00     0.172 C 
HETATM   12  N3  UNL     1      22.526   5.227  49.802  1.00  0.00    -0.407 N 
HETATM   13  C16 UNL     1      23.310   6.270  50.313  1.00  0.00     0.117 C 
HETATM   14  C17 UNL     1      23.868   5.838  51.639  1.00  0.00     0.024 C 
HETATM   15  C18 UNL     1      23.173   4.702  52.318  1.00  0.00    -0.012 C 
HETATM   16  C19 UNL     1      21.738   4.595  51.957  1.00  0.00     0.024 C 
HETATM   17  C20 UNL     1      21.359   4.894  50.532  1.00  0.00     0.117 C 
HETATM   18  C21 UNL     1      23.976   3.505  52.549  1.00  0.00     0.005 C 
HETATM   19  O1  UNL     1      24.146   2.488  51.514  1.00  0.00     0.000 OA
ENDROOT
BRANCH   7  20
HETATM   20  N1  UNL     1      20.650   0.814  51.988  1.00  0.00    -0.368 N 
HETATM   21  H7  UNL     1      20.243  -0.104  51.743  1.00  0.00     0.165 HD
BRANCH  20  22
HETATM   22  C8  UNL     1      19.641   1.789  52.198  1.00  0.00     0.088 C 
HETATM   23  C9  UNL     1      18.734   2.226  51.344  1.00  0.00     0.017 C 
BRANCH  23  24
HETATM   24  C10 UNL     1      17.708   3.231  51.590  1.00  0.00    -0.002 C 
HETATM   25  C11 UNL     1      16.575   3.169  50.907  1.00  0.00    -0.016 C 
BRANCH  25  26
HETATM   26  C12 UNL     1      15.543   4.193  51.164  1.00  0.00     0.112 C 
HETATM   27 BR1  UNL     1      14.902   3.950  52.965  1.00  0.00    -0.092 Br
ENDBRANCH  25  26
ENDBRANCH  23  24
ENDBRANCH  20  22
ENDBRANCH   7  20
TORSDOF 4
ENDMDL
MODEL 5
REMARK VINA RESULT:      -6.8      6.274     10.918
REMARK  4 active torsions:
REMARK  status: ('A' for Active; 'I' for Inactive)
REMARK    1  A    between atoms: C7_7  and  N1_8 
REMARK    2  A    between atoms: N1_8  and  C8_9 
REMARK    3  A    between atoms: C9_10  and  C10_11 
REMARK    4  A    between atoms: C11_12  and  C12_13 
ROOT
HETATM    1  C1  UNL     1      32.967  10.885  46.597  1.00  0.00     0.024 C 
HETATM    2  C2  UNL     1      32.242   9.763  47.174  1.00  0.00     0.025 A 
HETATM    3  C3  UNL     1      32.905   8.784  47.822  1.00  0.00     0.018 A 
HETATM    4  C4  UNL     1      33.060   7.524  48.596  1.00  0.00    -0.014 C 
HETATM    5  C5  UNL     1      32.258   6.507  48.981  1.00  0.00    -0.001 C 
HETATM    6  C6  UNL     1      30.873   6.211  48.723  1.00  0.00     0.026 C 
HETATM    7  C7  UNL     1      29.781   6.601  48.019  1.00  0.00     0.029 C 
HETATM    8  C13 UNL     1      30.194   7.321  46.801  1.00  0.00     0.205 C 
HETATM    9  N2  UNL     1      29.981   8.643  46.474  1.00  0.00    -0.290 NA
HETATM   10  C14 UNL     1      30.813   9.655  46.613  1.00  0.00     0.035 C 
HETATM   11  C15 UNL     1      30.095  10.831  46.089  1.00  0.00     0.172 C 
HETATM   12  N3  UNL     1      29.357  11.401  47.131  1.00  0.00    -0.407 N 
HETATM   13  C16 UNL     1      29.912  12.380  47.965  1.00  0.00     0.117 C 
HETATM   14  C17 UNL     1      30.549  11.695  49.140  1.00  0.00     0.024 C 
HETATM   15  C18 UNL     1      30.099  10.298  49.423  1.00  0.00    -0.012 C 
HETATM   16  C19 UNL     1      28.716  10.024  48.963  1.00  0.00     0.024 C 
HETATM   17  C20 UNL     1      28.282  10.648  47.665  1.00  0.00     0.117 C 
HETATM   18  C21 UNL     1      31.129   9.266  49.347  1.00  0.00     0.005 C 
HETATM   19  O1  UNL     1      31.501   8.651  48.075  1.00  0.00     0.000 OA
ENDROOT
BRANCH   7  20
HETATM   20  N1  UNL     1      28.419   6.264  47.843  1.00  0.00    -0.368 N 
HETATM   21  H7  UNL     1      27.991   6.474  46.926  1.00  0.00     0.165 HD
BRANCH  20  22
HETATM   22  C8  UNL     1      27.483   5.666  48.726  1.00  0.00     0.088 C 
HETATM   23  C9  UNL     1      27.173   4.389  48.850  1.00  0.00     0.017 C 
BRANCH  23  24
HETATM   24  C10 UNL     1      26.206   3.803  49.768  1.00  0.00    -0.002 C 
HETATM   25  C11 UNL     1      26.616   2.889  50.633  1.00  0.00    -0.016 C 
BRANCH  25  26
HETATM   26  C12 UNL     1      25.627   2.303  51.559  1.00  0.00     0.112 C 
HETATM   27 BR1  UNL     1      26.328   0.621  52.188  1.00  0.00    -0.092 Br
ENDBRANCH  25  26
ENDBRANCH  23  24
ENDBRANCH  20  22
ENDBRANCH   7  20
TORSDOF 4
ENDMDL
MODEL 6
REMARK VINA RESULT:      -6.7      1.607      2.264
REMARK  4 active torsions:
REMARK  status: ('A' for Active; 'I' for Inactive)
REMARK    1  A    between atoms: C7_7  and  N1_8 
REMARK    2  A    between atoms: N1_8  and  C8_9 
REMARK    3  A    between atoms: C9_10  and  C10_11 
REMARK    4  A    between atoms: C11_12  and  C12_13 
ROOT
HETATM    1  C1  UNL     1      20.211   3.245  52.442  1.00  0.00     0.024 C 
HETATM    2  C2  UNL     1      21.548   2.934  51.959  1.00  0.00     0.025 A 
HETATM    3  C3  UNL     1      22.376   2.165  52.695  1.00  0.00     0.018 A 
HETATM    4  C4  UNL     1      23.626   1.426  53.014  1.00  0.00    -0.014 C 
HETATM    5  C5  UNL     1      24.861   1.316  52.479  1.00  0.00    -0.001 C 
HETATM    6  C6  UNL     1      25.494   1.957  51.356  1.00  0.00     0.026 C 
HETATM    7  C7  UNL     1      25.339   2.920  50.412  1.00  0.00     0.029 C 
HETATM    8  C13 UNL     1      24.397   3.948  50.888  1.00  0.00     0.205 C 
HETATM    9  N2  UNL     1      23.155   4.272  50.384  1.00  0.00    -0.290 NA
HETATM   10  C14 UNL     1      21.977   3.871  50.817  1.00  0.00     0.035 C 
HETATM   11  C15 UNL     1      20.991   4.528  49.940  1.00  0.00     0.172 C 
HETATM   12  N3  UNL     1      20.770   3.710  48.828  1.00  0.00    -0.407 N 
HETATM   13  C16 UNL     1      19.780   2.719  48.840  1.00  0.00     0.117 C 
HETATM   14  C17 UNL     1      20.396   1.440  49.330  1.00  0.00     0.024 C 
HETATM   15  C18 UNL     1      21.886   1.345  49.258  1.00  0.00    -0.012 C 
HETATM   16  C19 UNL     1      22.474   2.179  48.181  1.00  0.00     0.024 C 
HETATM   17  C20 UNL     1      21.846   3.522  47.925  1.00  0.00     0.117 C 
HETATM   18  C21 UNL     1      22.580   1.173  50.530  1.00  0.00     0.005 C 
HETATM   19  O1  UNL     1      22.918   2.314  51.377  1.00  0.00     0.000 OA
ENDROOT
BRANCH   7  20
HETATM   20  N1  UNL     1      26.014   3.477  49.301  1.00  0.00    -0.368 N 
HETATM   21  H7  UNL     1      26.010   2.936  48.421  1.00  0.00     0.165 HD
BRANCH  20  22
HETATM   22  C8  UNL     1      26.730   4.693  49.159  1.00  0.00     0.088 C 
HETATM   23  C9  UNL     1      27.867   4.906  48.521  1.00  0.00     0.017 C 
BRANCH  23  24
HETATM   24  C10 UNL     1      28.580   6.169  48.391  1.00  0.00    -0.002 C 
HETATM   25  C11 UNL     1      28.044   7.135  47.660  1.00  0.00    -0.016 C 
BRANCH  25  26
HETATM   26  C12 UNL     1      28.775   8.410  47.536  1.00  0.00     0.112 C 
HETATM   27 BR1  UNL     1      28.955   8.810  45.659  1.00  0.00    -0.092 Br
ENDBRANCH  25  26
ENDBRANCH  23  24
ENDBRANCH  20  22
ENDBRANCH   7  20
TORSDOF 4
ENDMDL
MODEL 7
REMARK VINA RESULT:      -6.7      3.914      7.405
REMARK  4 active torsions:
REMARK  status: ('A' for Active; 'I' for Inactive)
REMARK    1  A    between atoms: C7_7  and  N1_8 
REMARK    2  A    between atoms: N1_8  and  C8_9 
REMARK    3  A    between atoms: C9_10  and  C10_11 
REMARK    4  A    between atoms: C11_12  and  C12_13 
ROOT
HETATM    1  C1  UNL     1      28.756   2.501  53.247  1.00  0.00     0.024 C 
HETATM    2  C2  UNL     1      27.427   2.344  52.677  1.00  0.00     0.025 A 
HETATM    3  C3  UNL     1      27.158   2.804  51.438  1.00  0.00     0.018 A 
HETATM    4  C4  UNL     1      26.332   3.062  50.229  1.00  0.00    -0.014 C 
HETATM    5  C5  UNL     1      25.031   2.933  49.887  1.00  0.00    -0.001 C 
HETATM    6  C6  UNL     1      23.868   2.523  50.629  1.00  0.00     0.026 C 
HETATM    7  C7  UNL     1      23.416   2.189  51.864  1.00  0.00     0.029 C 
HETATM    8  C13 UNL     1      24.260   2.813  52.899  1.00  0.00     0.205 C 
HETATM    9  N2  UNL     1      25.078   2.199  53.824  1.00  0.00    -0.290 NA
HETATM   10  C14 UNL     1      26.379   2.007  53.752  1.00  0.00     0.035 C 
HETATM   11  C15 UNL     1      26.748   1.330  55.009  1.00  0.00     0.172 C 
HETATM   12  N3  UNL     1      26.614  -0.050  54.826  1.00  0.00    -0.407 N 
HETATM   13  C16 UNL     1      27.678  -0.826  54.347  1.00  0.00     0.117 C 
HETATM   14  C17 UNL     1      27.587  -0.883  52.849  1.00  0.00     0.024 C 
HETATM   15  C18 UNL     1      26.259  -0.552  52.248  1.00  0.00    -0.012 C 
HETATM   16  C19 UNL     1      25.119  -0.842  53.152  1.00  0.00     0.024 C 
HETATM   17  C20 UNL     1      25.311  -0.564  54.619  1.00  0.00     0.117 C 
HETATM   18  C21 UNL     1      26.229   0.603  51.357  1.00  0.00     0.005 C 
HETATM   19  O1  UNL     1      26.083   1.962  51.872  1.00  0.00     0.000 OA
ENDROOT
BRANCH   7  20
HETATM   20  N1  UNL     1      22.236   1.759  52.516  1.00  0.00    -0.368 N 
HETATM   21  H7  UNL     1      22.181   1.896  53.539  1.00  0.00     0.165 HD
BRANCH  20  22
HETATM   22  C8  UNL     1      21.061   1.147  52.010  1.00  0.00     0.088 C 
HETATM   23  C9  UNL     1      20.124   0.496  52.675  1.00  0.00     0.017 C 
BRANCH  23  24
HETATM   24  C10 UNL     1      18.926  -0.123  52.127  1.00  0.00    -0.002 C 
HETATM   25  C11 UNL     1      18.366   0.408  51.050  1.00  0.00    -0.016 C 
BRANCH  25  26
HETATM   26  C12 UNL     1      17.152  -0.228  50.504  1.00  0.00     0.112 C 
HETATM   27 BR1  UNL     1      16.235  -1.102  51.956  1.00  0.00    -0.092 Br
ENDBRANCH  25  26
ENDBRANCH  23  24
ENDBRANCH  20  22
ENDBRANCH   7  20
TORSDOF 4
ENDMDL
MODEL 8
REMARK VINA RESULT:      -6.7      3.633      6.208
REMARK  4 active torsions:
REMARK  status: ('A' for Active; 'I' for Inactive)
REMARK    1  A    between atoms: C7_7  and  N1_8 
REMARK    2  A    between atoms: N1_8  and  C8_9 
REMARK    3  A    between atoms: C9_10  and  C10_11 
REMARK    4  A    between atoms: C11_12  and  C12_13 
ROOT
HETATM    1  C1  UNL     1      25.708   3.757  49.480  1.00  0.00     0.024 C 
HETATM    2  C2  UNL     1      24.870   3.030  50.422  1.00  0.00     0.025 A 
HETATM    3  C3  UNL     1      25.425   2.189  51.318  1.00  0.00     0.018 A 
HETATM    4  C4  UNL     1      25.450   1.224  52.449  1.00  0.00    -0.014 C 
HETATM    5  C5  UNL     1      24.534   0.550  53.180  1.00  0.00    -0.001 C 
HETATM    6  C6  UNL     1      23.100   0.463  53.099  1.00  0.00     0.026 C 
HETATM    7  C7  UNL     1      22.019   0.822  52.361  1.00  0.00     0.029 C 
HETATM    8  C13 UNL     1      22.413   1.038  50.957  1.00  0.00     0.205 C 
HETATM    9  N2  UNL     1      22.391   2.210  50.232  1.00  0.00    -0.290 NA
HETATM   10  C14 UNL     1      23.392   3.033  49.996  1.00  0.00     0.035 C 
HETATM   11  C15 UNL     1      22.830   4.107  49.157  1.00  0.00     0.172 C 
HETATM   12  N3  UNL     1      22.315   5.102  49.994  1.00  0.00    -0.407 N 
HETATM   13  C16 UNL     1      23.114   6.163  50.439  1.00  0.00     0.117 C 
HETATM   14  C17 UNL     1      23.749   5.763  51.740  1.00  0.00     0.024 C 
HETATM   15  C18 UNL     1      23.104   4.636  52.480  1.00  0.00    -0.012 C 
HETATM   16  C19 UNL     1      21.653   4.507  52.201  1.00  0.00     0.024 C 
HETATM   17  C20 UNL     1      21.192   4.773  50.794  1.00  0.00     0.117 C 
HETATM   18  C21 UNL     1      23.931   3.452  52.690  1.00  0.00     0.005 C 
HETATM   19  O1  UNL     1      24.055   2.415  51.669  1.00  0.00     0.000 OA
ENDROOT
BRANCH   7  20
HETATM   20  N1  UNL     1      20.608   0.718  52.370  1.00  0.00    -0.368 N 
HETATM   21  H7  UNL     1      20.118   0.965  53.246  1.00  0.00     0.165 HD
BRANCH  20  22
HETATM   22  C8  UNL     1      19.696   0.319  51.360  1.00  0.00     0.088 C 
HETATM   23  C9  UNL     1      18.416   0.624  51.244  1.00  0.00     0.017 C 
BRANCH  23  24
HETATM   24  C10 UNL     1      17.503   0.198  50.193  1.00  0.00    -0.002 C 
HETATM   25  C11 UNL     1      16.690   1.091  49.650  1.00  0.00    -0.016 C 
BRANCH  25  26
HETATM   26  C12 UNL     1      15.768   0.648  48.586  1.00  0.00     0.112 C 
HETATM   27 BR1  UNL     1      15.600  -1.268  48.707  1.00  0.00    -0.092 Br
ENDBRANCH  25  26
ENDBRANCH  23  24
ENDBRANCH  20  22
ENDBRANCH   7  20
TORSDOF 4
ENDMDL
MODEL 9
REMARK VINA RESULT:      -6.7      3.237      5.753
REMARK  4 active torsions:
REMARK  status: ('A' for Active; 'I' for Inactive)
REMARK    1  A    between atoms: C7_7  and  N1_8 
REMARK    2  A    between atoms: N1_8  and  C8_9 
REMARK    3  A    between atoms: C9_10  and  C10_11 
REMARK    4  A    between atoms: C11_12  and  C12_13 
ROOT
HETATM    1  C1  UNL     1      21.257   6.016  46.479  1.00  0.00     0.024 C 
HETATM    2  C2  UNL     1      22.374   5.998  47.411  1.00  0.00     0.025 A 
HETATM    3  C3  UNL     1      23.450   6.784  47.200  1.00  0.00     0.018 A 
HETATM    4  C4  UNL     1      24.781   7.379  47.490  1.00  0.00    -0.014 C 
HETATM    5  C5  UNL     1      25.772   7.170  48.384  1.00  0.00    -0.001 C 
HETATM    6  C6  UNL     1      25.950   6.194  49.427  1.00  0.00     0.026 C 
HETATM    7  C7  UNL     1      25.426   5.071  49.979  1.00  0.00     0.029 C 
HETATM    8  C13 UNL     1      24.629   4.339  48.978  1.00  0.00     0.205 C 
HETATM    9  N2  UNL     1      23.272   4.098  48.973  1.00  0.00    -0.290 NA
HETATM   10  C14 UNL     1      22.335   4.764  48.329  1.00  0.00     0.035 C 
HETATM   11  C15 UNL     1      21.071   4.077  48.650  1.00  0.00     0.172 C 
HETATM   12  N3  UNL     1      20.548   4.633  49.822  1.00  0.00    -0.407 N 
HETATM   13  C16 UNL     1      19.687   5.738  49.781  1.00  0.00     0.117 C 
HETATM   14  C17 UNL     1      20.516   6.987  49.868  1.00  0.00     0.024 C 
HETATM   15  C18 UNL     1      21.899   6.835  50.413  1.00  0.00    -0.012 C 
HETATM   16  C19 UNL     1      22.037   5.691  51.348  1.00  0.00     0.024 C 
HETATM   17  C20 UNL     1      21.272   4.437  51.024  1.00  0.00     0.117 C 
HETATM   18  C21 UNL     1      22.987   7.195  49.509  1.00  0.00     0.005 C 
HETATM   19  O1  UNL     1      23.510   6.248  48.528  1.00  0.00     0.000 OA
ENDROOT
BRANCH   7  20
HETATM   20  N1  UNL     1      25.654   4.171  51.046  1.00  0.00    -0.368 N 
HETATM   21  H7  UNL     1      25.288   4.434  51.977  1.00  0.00     0.165 HD
BRANCH  20  22
HETATM   22  C8  UNL     1      26.319   2.919  51.086  1.00  0.00     0.088 C 
HETATM   23  C9  UNL     1      26.129   1.916  51.922  1.00  0.00     0.017 C 
BRANCH  23  24
HETATM   24  C10 UNL     1      26.830   0.639  51.938  1.00  0.00    -0.002 C 
HETATM   25  C11 UNL     1      27.173   0.110  53.102  1.00  0.00    -0.016 C 
BRANCH  25  26
HETATM   26  C12 UNL     1      27.883  -1.183  53.105  1.00  0.00     0.112 C 
HETATM   27 BR1  UNL     1      29.710  -0.856  53.627  1.00  0.00    -0.092 Br
ENDBRANCH  25  26
ENDBRANCH  23  24
ENDBRANCH  20  22
ENDBRANCH   7  20
TORSDOF 4
ENDMDL
