MODEL 1
REMARK VINA RESULT:      -8.3      0.000      0.000
REMARK  5 active torsions:
REMARK  status: ('A' for Active; 'I' for Inactive)
REMARK    1  A    between atoms: O1_1  and  C1_2 
REMARK    2  A    between atoms: C6_8  and  N1_9 
REMARK    3  A    between atoms: N1_9  and  C7_10 
REMARK    4  A    between atoms: C10_15  and  N4_16 
REMARK    5  A    between atoms: N4_16  and  C11_17 
ROOT
HETATM    1  C7  UNL     1      24.097  -0.456  54.034  1.00  0.00     0.093 A 
HETATM    2  C8  UNL     1      23.808  -1.246  55.156  1.00  0.00     0.151 A 
HETATM    3  N2  UNL     1      22.535  -1.597  55.380  1.00  0.00    -0.252 NA
HETATM    4  C9  UNL     1      21.567  -1.196  54.543  1.00  0.00     0.235 A 
HETATM    5  N3  UNL     1      21.870  -0.446  53.483  1.00  0.00    -0.222 NA
HETATM    6  C10 UNL     1      23.108  -0.049  53.182  1.00  0.00     0.157 A 
ENDROOT
BRANCH   1   7
HETATM    7  N1  UNL     1      25.410  -0.036  53.699  1.00  0.00    -0.375 N 
HETATM    8  H7  UNL     1      25.762   0.523  54.516  1.00  0.00     0.160 HD
BRANCH   7   9
HETATM    9  C6  UNL     1      26.545   0.063  52.864  1.00  0.00     0.145 A 
HETATM   10  C1  UNL     1      27.684  -0.847  53.215  1.00  0.00     0.066 A 
HETATM   11  C2  UNL     1      28.942  -0.742  53.595  1.00  0.00     0.037 A 
HETATM   12  C3  UNL     1      29.443   0.617  53.738  1.00  0.00     0.040 A 
HETATM   13  C4  UNL     1      28.512   1.504  53.447  1.00  0.00     0.096 A 
HETATM   14  F1  UNL     1      28.965   2.774  53.576  1.00  0.00    -0.211 F 
HETATM   15  C5  UNL     1      27.112   1.477  53.014  1.00  0.00     0.102 A 
BRANCH  10  16
HETATM   16  O1  UNL     1      27.168  -2.147  53.067  1.00  0.00    -0.363 OA
HETATM   17  H1  UNL     1      26.698  -2.375  52.199  1.00  0.00     0.217 HD
ENDBRANCH  10  16
ENDBRANCH   7   9
ENDBRANCH   1   7
BRANCH   6  18
HETATM   18  N4  UNL     1      23.150   0.707  52.000  1.00  0.00    -0.339 N 
HETATM   19  H10 UNL     1      22.966   0.202  51.116  1.00  0.00     0.167 HD
BRANCH  18  20
HETATM   20  C11 UNL     1      23.409   2.086  51.832  1.00  0.00     0.035 A 
HETATM   21  C12 UNL     1      22.739   3.126  52.435  1.00  0.00     0.029 A 
HETATM   22  C13 UNL     1      22.993   4.457  52.232  1.00  0.00     0.004 A 
HETATM   23  C14 UNL     1      23.994   4.773  51.358  1.00  0.00     0.019 A 
HETATM   24  C15 UNL     1      24.715   3.811  50.712  1.00  0.00     0.013 A 
HETATM   25 BR1  UNL     1      26.103   4.314  49.504  1.00  0.00    -0.051 Br
HETATM   26  C16 UNL     1      24.398   2.501  50.970  1.00  0.00     0.048 A 
ENDBRANCH  18  20
ENDBRANCH   6  18
TORSDOF 5
ENDMDL
MODEL 2
REMARK VINA RESULT:      -8.2      2.916      4.815
REMARK  5 active torsions:
REMARK  status: ('A' for Active; 'I' for Inactive)
REMARK    1  A    between atoms: O1_1  and  C1_2 
REMARK    2  A    between atoms: C6_8  and  N1_9 
REMARK    3  A    between atoms: N1_9  and  C7_10 
REMARK    4  A    between atoms: C10_15  and  N4_16 
REMARK    5  A    between atoms: N4_16  and  C11_17 
ROOT
HETATM    1  C7  UNL     1      25.914   2.476  51.276  1.00  0.00     0.093 A 
HETATM    2  C8  UNL     1      26.504   3.041  50.136  1.00  0.00     0.151 A 
HETATM    3  N2  UNL     1      25.835   3.995  49.475  1.00  0.00    -0.252 NA
HETATM    4  C9  UNL     1      24.628   4.392  49.904  1.00  0.00     0.235 A 
HETATM    5  N3  UNL     1      24.091   3.839  50.991  1.00  0.00    -0.222 NA
HETATM    6  C10 UNL     1      24.683   2.884  51.711  1.00  0.00     0.157 A 
ENDROOT
BRANCH   1   7
HETATM    7  N1  UNL     1      26.539   1.467  52.053  1.00  0.00    -0.375 N 
HETATM    8  H7  UNL     1      26.830   0.711  51.383  1.00  0.00     0.160 HD
BRANCH   7   9
HETATM    9  C6  UNL     1      27.003   0.883  53.252  1.00  0.00     0.145 A 
HETATM   10  C1  UNL     1      28.325   1.391  53.747  1.00  0.00     0.066 A 
HETATM   11  C2  UNL     1      29.531   0.916  53.983  1.00  0.00     0.037 A 
HETATM   12  C3  UNL     1      29.713  -0.502  53.710  1.00  0.00     0.040 A 
HETATM   13  C4  UNL     1      28.598  -1.051  53.268  1.00  0.00     0.096 A 
HETATM   14  F1  UNL     1      28.753  -2.371  53.010  1.00  0.00    -0.211 F 
HETATM   15  C5  UNL     1      27.230  -0.607  52.988  1.00  0.00     0.102 A 
BRANCH  10  16
HETATM   16  O1  UNL     1      28.115   2.758  54.000  1.00  0.00    -0.363 OA
HETATM   17  H1  UNL     1      27.667   3.312  53.279  1.00  0.00     0.217 HD
ENDBRANCH  10  16
ENDBRANCH   7   9
ENDBRANCH   1   7
BRANCH   6  18
HETATM   18  N4  UNL     1      23.913   2.498  52.818  1.00  0.00    -0.339 N 
HETATM   19  H10 UNL     1      23.922   3.130  53.636  1.00  0.00     0.167 HD
BRANCH  18  20
HETATM   20  C11 UNL     1      23.106   1.350  52.987  1.00  0.00     0.035 A 
HETATM   21  C12 UNL     1      23.468   0.177  53.609  1.00  0.00     0.029 A 
HETATM   22  C13 UNL     1      22.674  -0.932  53.735  1.00  0.00     0.004 A 
HETATM   23  C14 UNL     1      21.420  -0.863  53.199  1.00  0.00     0.019 A 
HETATM   24  C15 UNL     1      20.970   0.258  52.564  1.00  0.00     0.013 A 
HETATM   25 BR1  UNL     1      19.206   0.295  51.835  1.00  0.00    -0.051 Br
HETATM   26  C16 UNL     1      21.827   1.326  52.479  1.00  0.00     0.048 A 
ENDBRANCH  18  20
ENDBRANCH   6  18
TORSDOF 5
ENDMDL
MODEL 3
REMARK VINA RESULT:      -8.2      3.128      5.818
REMARK  5 active torsions:
REMARK  status: ('A' for Active; 'I' for Inactive)
REMARK    1  A    between atoms: O1_1  and  C1_2 
REMARK    2  A    between atoms: C6_8  and  N1_9 
REMARK    3  A    between atoms: N1_9  and  C7_10 
REMARK    4  A    between atoms: C10_15  and  N4_16 
REMARK    5  A    between atoms: N4_16  and  C11_17 
ROOT
HETATM    1  C7  UNL     1      27.239   1.789  53.068  1.00  0.00     0.093 A 
HETATM    2  C8  UNL     1      28.400   2.366  53.602  1.00  0.00     0.151 A 
HETATM    3  N2  UNL     1      29.106   1.667  54.501  1.00  0.00    -0.252 NA
HETATM    4  C9  UNL     1      28.701   0.445  54.874  1.00  0.00     0.235 A 
HETATM    5  N3  UNL     1      27.593  -0.080  54.349  1.00  0.00    -0.222 NA
HETATM    6  C10 UNL     1      26.829   0.542  53.449  1.00  0.00     0.157 A 
ENDROOT
BRANCH   1   7
HETATM    7  N1  UNL     1      26.425   2.438  52.104  1.00  0.00    -0.375 N 
HETATM    8  H7  UNL     1      25.982   3.258  52.590  1.00  0.00     0.160 HD
BRANCH   7   9
HETATM    9  C6  UNL     1      25.851   2.610  50.825  1.00  0.00     0.145 A 
HETATM   10  C1  UNL     1      26.088   3.947  50.187  1.00  0.00     0.066 A 
HETATM   11  C2  UNL     1      25.375   4.974  49.770  1.00  0.00     0.037 A 
HETATM   12  C3  UNL     1      23.935   4.851  49.942  1.00  0.00     0.040 A 
HETATM   13  C4  UNL     1      23.616   3.699  50.498  1.00  0.00     0.096 A 
HETATM   14  F1  UNL     1      22.279   3.571  50.664  1.00  0.00    -0.211 F 
HETATM   15  C5  UNL     1      24.331   2.514  50.980  1.00  0.00     0.102 A 
BRANCH  10  16
HETATM   16  O1  UNL     1      27.483   4.032  50.035  1.00  0.00    -0.363 OA
HETATM   17  H1  UNL     1      28.015   3.169  50.036  1.00  0.00     0.217 HD
ENDBRANCH  10  16
ENDBRANCH   7   9
ENDBRANCH   1   7
BRANCH   6  18
HETATM   18  N4  UNL     1      25.740  -0.244  53.044  1.00  0.00    -0.339 N 
HETATM   19  H10 UNL     1      25.834  -0.744  52.144  1.00  0.00     0.167 HD
BRANCH  18  20
HETATM   20  C11 UNL     1      24.505  -0.463  53.697  1.00  0.00     0.035 A 
HETATM   21  C12 UNL     1      24.314  -1.112  54.895  1.00  0.00     0.029 A 
HETATM   22  C13 UNL     1      23.102  -1.335  55.492  1.00  0.00     0.004 A 
HETATM   23  C14 UNL     1      21.994  -0.875  54.841  1.00  0.00     0.019 A 
HETATM   24  C15 UNL     1      22.082  -0.219  53.647  1.00  0.00     0.013 A 
HETATM   25 BR1  UNL     1      20.497   0.403  52.785  1.00  0.00    -0.051 Br
HETATM   26  C16 UNL     1      23.334  -0.036  53.115  1.00  0.00     0.048 A 
ENDBRANCH  18  20
ENDBRANCH   6  18
TORSDOF 5
ENDMDL
MODEL 4
REMARK VINA RESULT:      -7.7      3.116      4.987
REMARK  5 active torsions:
REMARK  status: ('A' for Active; 'I' for Inactive)
REMARK    1  A    between atoms: O1_1  and  C1_2 
REMARK    2  A    between atoms: C6_8  and  N1_9 
REMARK    3  A    between atoms: N1_9  and  C7_10 
REMARK    4  A    between atoms: C10_15  and  N4_16 
REMARK    5  A    between atoms: N4_16  and  C11_17 
ROOT
HETATM    1  C7  UNL     1      24.053   2.892  52.581  1.00  0.00     0.093 A 
HETATM    2  C8  UNL     1      24.148   4.282  52.741  1.00  0.00     0.151 A 
HETATM    3  N2  UNL     1      23.096   5.038  52.401  1.00  0.00    -0.252 NA
HETATM    4  C9  UNL     1      21.982   4.468  51.920  1.00  0.00     0.235 A 
HETATM    5  N3  UNL     1      21.919   3.143  51.779  1.00  0.00    -0.222 NA
HETATM    6  C10 UNL     1      22.916   2.313  52.090  1.00  0.00     0.157 A 
ENDROOT
BRANCH   1   7
HETATM    7  N1  UNL     1      25.104   2.000  52.917  1.00  0.00    -0.375 N 
HETATM    8  H7  UNL     1      25.569   1.733  52.014  1.00  0.00     0.160 HD
BRANCH   7   9
HETATM    9  C6  UNL     1      25.899   1.241  53.803  1.00  0.00     0.145 A 
HETATM   10  C1  UNL     1      27.371   1.528  53.753  1.00  0.00     0.066 A 
HETATM   11  C2  UNL     1      28.486   0.886  53.466  1.00  0.00     0.037 A 
HETATM   12  C3  UNL     1      28.327  -0.507  53.076  1.00  0.00     0.040 A 
HETATM   13  C4  UNL     1      27.057  -0.865  53.090  1.00  0.00     0.096 A 
HETATM   14  F1  UNL     1      26.894  -2.160  52.728  1.00  0.00    -0.211 F 
HETATM   15  C5  UNL     1      25.774  -0.230  53.399  1.00  0.00     0.102 A 
BRANCH  10  16
HETATM   16  O1  UNL     1      27.489   2.876  54.135  1.00  0.00    -0.363 OA
HETATM   17  H1  UNL     1      27.954   3.083  55.012  1.00  0.00     0.217 HD
ENDBRANCH  10  16
ENDBRANCH   7   9
ENDBRANCH   1   7
BRANCH   6  18
HETATM   18  N4  UNL     1      22.576   0.969  51.870  1.00  0.00    -0.339 N 
HETATM   19  H10 UNL     1      22.871   0.555  50.969  1.00  0.00     0.167 HD
BRANCH  18  20
HETATM   20  C11 UNL     1      21.879   0.075  52.713  1.00  0.00     0.035 A 
HETATM   21  C12 UNL     1      22.426  -0.730  53.686  1.00  0.00     0.029 A 
HETATM   22  C13 UNL     1      21.729  -1.610  54.472  1.00  0.00     0.004 A 
HETATM   23  C14 UNL     1      20.381  -1.692  54.270  1.00  0.00     0.019 A 
HETATM   24  C15 UNL     1      19.748  -0.933  53.329  1.00  0.00     0.013 A 
HETATM   25 BR1  UNL     1      17.861  -1.090  53.093  1.00  0.00    -0.051 Br
HETATM   26  C16 UNL     1      20.518  -0.076  52.582  1.00  0.00     0.048 A 
ENDBRANCH  18  20
ENDBRANCH   6  18
TORSDOF 5
ENDMDL
MODEL 5
REMARK VINA RESULT:      -7.6      3.103      4.762
REMARK  5 active torsions:
REMARK  status: ('A' for Active; 'I' for Inactive)
REMARK    1  A    between atoms: O1_1  and  C1_2 
REMARK    2  A    between atoms: C6_8  and  N1_9 
REMARK    3  A    between atoms: N1_9  and  C7_10 
REMARK    4  A    between atoms: C10_15  and  N4_16 
REMARK    5  A    between atoms: N4_16  and  C11_17 
ROOT
HETATM    1  C7  UNL     1      22.597   1.897  50.578  1.00  0.00     0.093 A 
HETATM    2  C8  UNL     1      21.786   0.959  49.924  1.00  0.00     0.151 A 
HETATM    3  N2  UNL     1      21.562   1.110  48.612  1.00  0.00    -0.252 NA
HETATM    4  C9  UNL     1      22.106   2.141  47.950  1.00  0.00     0.235 A 
HETATM    5  N3  UNL     1      22.874   3.019  48.596  1.00  0.00    -0.222 NA
HETATM    6  C10 UNL     1      23.151   2.948  49.900  1.00  0.00     0.157 A 
ENDROOT
BRANCH   1   7
HETATM    7  N1  UNL     1      22.905   1.826  51.961  1.00  0.00    -0.375 N 
HETATM    8  H7  UNL     1      22.071   2.209  52.473  1.00  0.00     0.160 HD
BRANCH   7   9
HETATM    9  C6  UNL     1      23.722   1.527  53.073  1.00  0.00     0.145 A 
HETATM   10  C1  UNL     1      25.008   2.297  53.153  1.00  0.00     0.066 A 
HETATM   11  C2  UNL     1      26.302   2.047  53.141  1.00  0.00     0.037 A 
HETATM   12  C3  UNL     1      26.670   0.645  53.020  1.00  0.00     0.040 A 
HETATM   13  C4  UNL     1      25.603  -0.126  52.945  1.00  0.00     0.096 A 
HETATM   14  F1  UNL     1      25.931  -1.435  52.831  1.00  0.00    -0.211 F 
HETATM   15  C5  UNL     1      24.150   0.062  52.958  1.00  0.00     0.102 A 
BRANCH  10  16
HETATM   16  O1  UNL     1      24.617   3.642  53.270  1.00  0.00    -0.363 OA
HETATM   17  H1  UNL     1      24.861   4.275  52.516  1.00  0.00     0.217 HD
ENDBRANCH  10  16
ENDBRANCH   7   9
ENDBRANCH   1   7
BRANCH   6  18
HETATM   18  N4  UNL     1      24.002   3.981  50.319  1.00  0.00    -0.339 N 
HETATM   19  H10 UNL     1      23.776   4.435  51.221  1.00  0.00     0.167 HD
BRANCH  18  20
HETATM   20  C11 UNL     1      25.149   4.507  49.683  1.00  0.00     0.035 A 
HETATM   21  C12 UNL     1      26.358   3.871  49.517  1.00  0.00     0.029 A 
HETATM   22  C13 UNL     1      27.465   4.415  48.919  1.00  0.00     0.004 A 
HETATM   23  C14 UNL     1      27.354   5.693  48.451  1.00  0.00     0.019 A 
HETATM   24  C15 UNL     1      26.195   6.404  48.569  1.00  0.00     0.013 A 
HETATM   25 BR1  UNL     1      26.101   8.187  47.895  1.00  0.00    -0.051 Br
HETATM   26  C16 UNL     1      25.132   5.788  49.181  1.00  0.00     0.048 A 
ENDBRANCH  18  20
ENDBRANCH   6  18
TORSDOF 5
ENDMDL
MODEL 6
REMARK VINA RESULT:      -7.4      7.212      9.844
REMARK  5 active torsions:
REMARK  status: ('A' for Active; 'I' for Inactive)
REMARK    1  A    between atoms: O1_1  and  C1_2 
REMARK    2  A    between atoms: C6_8  and  N1_9 
REMARK    3  A    between atoms: N1_9  and  C7_10 
REMARK    4  A    between atoms: C10_15  and  N4_16 
REMARK    5  A    between atoms: N4_16  and  C11_17 
ROOT
HETATM    1  C7  UNL     1      30.537   7.253  49.084  1.00  0.00     0.093 A 
HETATM    2  C8  UNL     1      31.903   7.211  49.397  1.00  0.00     0.151 A 
HETATM    3  N2  UNL     1      32.615   6.143  49.014  1.00  0.00    -0.252 NA
HETATM    4  C9  UNL     1      32.023   5.142  48.347  1.00  0.00     0.235 A 
HETATM    5  N3  UNL     1      30.722   5.208  48.061  1.00  0.00    -0.222 NA
HETATM    6  C10 UNL     1      29.936   6.231  48.403  1.00  0.00     0.157 A 
ENDROOT
BRANCH   1   7
HETATM    7  N1  UNL     1      29.694   8.340  49.434  1.00  0.00    -0.375 N 
HETATM    8  H7  UNL     1      29.273   8.102  50.367  1.00  0.00     0.160 HD
BRANCH   7   9
HETATM    9  C6  UNL     1      29.079   9.594  49.232  1.00  0.00     0.145 A 
HETATM   10  C1  UNL     1      27.675   9.714  49.748  1.00  0.00     0.066 A 
HETATM   11  C2  UNL     1      26.469   9.936  49.266  1.00  0.00     0.037 A 
HETATM   12  C3  UNL     1      26.394  10.135  47.826  1.00  0.00     0.040 A 
HETATM   13  C4  UNL     1      27.587  10.051  47.270  1.00  0.00     0.096 A 
HETATM   14  F1  UNL     1      27.532  10.234  45.929  1.00  0.00    -0.211 F 
HETATM   15  C5  UNL     1      28.961   9.818  47.722  1.00  0.00     0.102 A 
BRANCH  10  16
HETATM   16  O1  UNL     1      27.783   9.519  51.137  1.00  0.00    -0.363 OA
HETATM   17  H1  UNL     1      27.571  10.302  51.744  1.00  0.00     0.217 HD
ENDBRANCH  10  16
ENDBRANCH   7   9
ENDBRANCH   1   7
BRANCH   6  18
HETATM   18  N4  UNL     1      28.617   6.059  47.957  1.00  0.00    -0.339 N 
HETATM   19  H10 UNL     1      28.410   6.353  46.987  1.00  0.00     0.167 HD
BRANCH  18  20
HETATM   20  C11 UNL     1      27.503   5.529  48.647  1.00  0.00     0.035 A 
HETATM   21  C12 UNL     1      27.277   4.205  48.947  1.00  0.00     0.029 A 
HETATM   22  C13 UNL     1      26.174   3.715  49.594  1.00  0.00     0.004 A 
HETATM   23  C14 UNL     1      25.222   4.618  49.971  1.00  0.00     0.019 A 
HETATM   24  C15 UNL     1      25.356   5.953  49.718  1.00  0.00     0.013 A 
HETATM   25 BR1  UNL     1      23.992   7.167  50.270  1.00  0.00    -0.051 Br
HETATM   26  C16 UNL     1      26.492   6.363  49.065  1.00  0.00     0.048 A 
ENDBRANCH  18  20
ENDBRANCH   6  18
TORSDOF 5
ENDMDL
MODEL 7
REMARK VINA RESULT:      -7.4      3.284      4.726
REMARK  5 active torsions:
REMARK  status: ('A' for Active; 'I' for Inactive)
REMARK    1  A    between atoms: O1_1  and  C1_2 
REMARK    2  A    between atoms: C6_8  and  N1_9 
REMARK    3  A    between atoms: N1_9  and  C7_10 
REMARK    4  A    between atoms: C10_15  and  N4_16 
REMARK    5  A    between atoms: N4_16  and  C11_17 
ROOT
HETATM    1  C7  UNL     1      23.998   2.934  51.194  1.00  0.00     0.093 A 
HETATM    2  C8  UNL     1      22.627   2.683  51.351  1.00  0.00     0.151 A 
HETATM    3  N2  UNL     1      21.845   2.699  50.263  1.00  0.00    -0.252 NA
HETATM    4  C9  UNL     1      22.373   2.953  49.057  1.00  0.00     0.235 A 
HETATM    5  N3  UNL     1      23.680   3.188  48.936  1.00  0.00    -0.222 NA
HETATM    6  C10 UNL     1      24.533   3.192  49.962  1.00  0.00     0.157 A 
ENDROOT
BRANCH   1   7
HETATM    7  N1  UNL     1      24.915   2.932  52.276  1.00  0.00    -0.375 N 
HETATM    8  H7  UNL     1      24.950   3.917  52.640  1.00  0.00     0.160 HD
BRANCH   7   9
HETATM    9  C6  UNL     1      25.838   2.340  53.166  1.00  0.00     0.145 A 
HETATM   10  C1  UNL     1      27.049   1.729  52.524  1.00  0.00     0.066 A 
HETATM   11  C2  UNL     1      27.605   0.540  52.414  1.00  0.00     0.037 A 
HETATM   12  C3  UNL     1      26.902  -0.547  53.079  1.00  0.00     0.040 A 
HETATM   13  C4  UNL     1      25.812  -0.113  53.683  1.00  0.00     0.096 A 
HETATM   14  F1  UNL     1      25.147  -1.115  54.306  1.00  0.00    -0.211 F 
HETATM   15  C5  UNL     1      25.133   1.173  53.861  1.00  0.00     0.102 A 
BRANCH  10  16
HETATM   16  O1  UNL     1      27.704   2.802  51.894  1.00  0.00    -0.363 OA
HETATM   17  H1  UNL     1      27.242   3.245  51.108  1.00  0.00     0.217 HD
ENDBRANCH  10  16
ENDBRANCH   7   9
ENDBRANCH   1   7
BRANCH   6  18
HETATM   18  N4  UNL     1      25.852   3.441  49.555  1.00  0.00    -0.339 N 
HETATM   19  H10 UNL     1      26.508   2.642  49.584  1.00  0.00     0.167 HD
BRANCH  18  20
HETATM   20  C11 UNL     1      26.433   4.646  49.097  1.00  0.00     0.035 A 
HETATM   21  C12 UNL     1      25.787   5.844  48.895  1.00  0.00     0.029 A 
HETATM   22  C13 UNL     1      26.369   6.990  48.423  1.00  0.00     0.004 A 
HETATM   23  C14 UNL     1      27.702   6.936  48.131  1.00  0.00     0.019 A 
HETATM   24  C15 UNL     1      28.429   5.793  48.300  1.00  0.00     0.013 A 
HETATM   25 BR1  UNL     1      30.290   5.778  47.875  1.00  0.00    -0.051 Br
HETATM   26  C16 UNL     1      27.771   4.687  48.776  1.00  0.00     0.048 A 
ENDBRANCH  18  20
ENDBRANCH   6  18
TORSDOF 5
ENDMDL
MODEL 8
REMARK VINA RESULT:      -7.4      2.310      2.724
REMARK  5 active torsions:
REMARK  status: ('A' for Active; 'I' for Inactive)
REMARK    1  A    between atoms: O1_1  and  C1_2 
REMARK    2  A    between atoms: C6_8  and  N1_9 
REMARK    3  A    between atoms: N1_9  and  C7_10 
REMARK    4  A    between atoms: C10_15  and  N4_16 
REMARK    5  A    between atoms: N4_16  and  C11_17 
ROOT
HETATM    1  C7  UNL     1      24.030  -0.235  54.060  1.00  0.00     0.093 A 
HETATM    2  C8  UNL     1      23.873  -1.235  55.031  1.00  0.00     0.151 A 
HETATM    3  N2  UNL     1      22.633  -1.622  55.356  1.00  0.00    -0.252 NA
HETATM    4  C9  UNL     1      21.572  -1.058  54.761  1.00  0.00     0.235 A 
HETATM    5  N3  UNL     1      21.750  -0.109  53.841  1.00  0.00    -0.222 NA
HETATM    6  C10 UNL     1      22.946   0.338  53.454  1.00  0.00     0.157 A 
ENDROOT
BRANCH   1   7
HETATM    7  N1  UNL     1      25.297   0.241  53.636  1.00  0.00    -0.375 N 
HETATM    8  H7  UNL     1      25.537   1.050  54.262  1.00  0.00     0.160 HD
BRANCH   7   9
HETATM    9  C6  UNL     1      26.451   0.248  52.822  1.00  0.00     0.145 A 
HETATM   10  C1  UNL     1      27.539  -0.697  53.240  1.00  0.00     0.066 A 
HETATM   11  C2  UNL     1      28.792  -0.632  53.642  1.00  0.00     0.037 A 
HETATM   12  C3  UNL     1      29.355   0.707  53.732  1.00  0.00     0.040 A 
HETATM   13  C4  UNL     1      28.473   1.621  53.380  1.00  0.00     0.096 A 
HETATM   14  F1  UNL     1      28.984   2.873  53.460  1.00  0.00    -0.211 F 
HETATM   15  C5  UNL     1      27.082   1.639  52.919  1.00  0.00     0.102 A 
BRANCH  10  16
HETATM   16  O1  UNL     1      26.964  -1.976  53.141  1.00  0.00    -0.363 OA
HETATM   17  H1  UNL     1      27.025  -2.457  52.250  1.00  0.00     0.217 HD
ENDBRANCH  10  16
ENDBRANCH   7   9
ENDBRANCH   1   7
BRANCH   6  18
HETATM   18  N4  UNL     1      22.849   1.318  52.455  1.00  0.00    -0.339 N 
HETATM   19  H10 UNL     1      23.603   2.025  52.419  1.00  0.00     0.167 HD
BRANCH  18  20
HETATM   20  C11 UNL     1      21.856   1.486  51.463  1.00  0.00     0.035 A 
HETATM   21  C12 UNL     1      21.829   0.896  50.220  1.00  0.00     0.029 A 
HETATM   22  C13 UNL     1      20.867   1.099  49.267  1.00  0.00     0.004 A 
HETATM   23  C14 UNL     1      19.852   1.958  49.579  1.00  0.00     0.019 A 
HETATM   24  C15 UNL     1      19.792   2.591  50.787  1.00  0.00     0.013 A 
HETATM   25 BR1  UNL     1      18.349   3.780  51.167  1.00  0.00    -0.051 Br
HETATM   26  C16 UNL     1      20.796   2.334  51.688  1.00  0.00     0.048 A 
ENDBRANCH  18  20
ENDBRANCH   6  18
TORSDOF 5
ENDMDL
MODEL 9
REMARK VINA RESULT:      -7.3      3.073      5.298
REMARK  5 active torsions:
REMARK  status: ('A' for Active; 'I' for Inactive)
REMARK    1  A    between atoms: O1_1  and  C1_2 
REMARK    2  A    between atoms: C6_8  and  N1_9 
REMARK    3  A    between atoms: N1_9  and  C7_10 
REMARK    4  A    between atoms: C10_15  and  N4_16 
REMARK    5  A    between atoms: N4_16  and  C11_17 
ROOT
HETATM    1  C7  UNL     1      24.215  -0.103  53.586  1.00  0.00     0.093 A 
HETATM    2  C8  UNL     1      24.800  -0.852  54.616  1.00  0.00     0.151 A 
HETATM    3  N2  UNL     1      26.137  -0.911  54.685  1.00  0.00    -0.252 NA
HETATM    4  C9  UNL     1      26.888  -0.263  53.782  1.00  0.00     0.235 A 
HETATM    5  N3  UNL     1      26.305   0.443  52.813  1.00  0.00    -0.222 NA
HETATM    6  C10 UNL     1      24.983   0.557  52.667  1.00  0.00     0.157 A 
ENDROOT
BRANCH   1   7
HETATM    7  N1  UNL     1      22.811   0.032  53.427  1.00  0.00    -0.375 N 
HETATM    8  H7  UNL     1      22.580  -0.351  52.476  1.00  0.00     0.160 HD
BRANCH   7   9
HETATM    9  C6  UNL     1      21.511   0.404  53.832  1.00  0.00     0.145 A 
HETATM   10  C1  UNL     1      20.533  -0.725  53.974  1.00  0.00     0.066 A 
HETATM   11  C2  UNL     1      19.394  -1.109  53.433  1.00  0.00     0.037 A 
HETATM   12  C3  UNL     1      18.868  -0.240  52.391  1.00  0.00     0.040 A 
HETATM   13  C4  UNL     1      19.659   0.795  52.187  1.00  0.00     0.096 A 
HETATM   14  F1  UNL     1      19.182   1.613  51.219  1.00  0.00    -0.211 F 
HETATM   15  C5  UNL     1      20.920   1.298  52.739  1.00  0.00     0.102 A 
BRANCH  10  16
HETATM   16  O1  UNL     1      21.068  -1.542  54.985  1.00  0.00    -0.363 OA
HETATM   17  H1  UNL     1      21.937  -1.253  55.419  1.00  0.00     0.217 HD
ENDBRANCH  10  16
ENDBRANCH   7   9
ENDBRANCH   1   7
BRANCH   6  18
HETATM   18  N4  UNL     1      24.637   1.377  51.583  1.00  0.00    -0.339 N 
HETATM   19  H10 UNL     1      24.719   0.963  50.639  1.00  0.00     0.167 HD
BRANCH  18  20
HETATM   20  C11 UNL     1      24.181   2.715  51.585  1.00  0.00     0.035 A 
HETATM   21  C12 UNL     1      23.917   3.490  52.692  1.00  0.00     0.029 A 
HETATM   22  C13 UNL     1      23.449   4.777  52.666  1.00  0.00     0.004 A 
HETATM   23  C14 UNL     1      23.228   5.334  51.438  1.00  0.00     0.019 A 
HETATM   24  C15 UNL     1      23.461   4.645  50.284  1.00  0.00     0.013 A 
HETATM   25 BR1  UNL     1      23.135   5.476  48.597  1.00  0.00    -0.051 Br
HETATM   26  C16 UNL     1      23.930   3.359  50.395  1.00  0.00     0.048 A 
ENDBRANCH  18  20
ENDBRANCH   6  18
TORSDOF 5
ENDMDL
