MODEL 1
REMARK VINA RESULT:      -7.3      0.000      0.000
REMARK  6 active torsions:
REMARK  status: ('A' for Active; 'I' for Inactive)
REMARK    1  A    between atoms: C2_2  and  C4_4 
REMARK    2  A    between atoms: C5_5  and  C6_6 
REMARK       I    between atoms: C6_6  and  N1_8 
REMARK    3  A    between atoms: C13_18  and  S2_19 
REMARK    4  A    between atoms: S2_19  and  C14_20 
REMARK    5  A    between atoms: C14_20  and  C15_21 
REMARK    6  A    between atoms: C15_21  and  O2_22 
ROOT
HETATM    1  C6  UNL     1      24.543   4.358  49.773  1.00  0.00     0.243 C 
HETATM    2  O1  UNL     1      25.522   5.084  50.082  1.00  0.00    -0.268 OA
HETATM    3  N1  UNL     1      24.587   3.231  50.638  1.00  0.00    -0.344 N 
HETATM    4  C7  UNL     1      25.591   3.057  51.654  1.00  0.00     0.131 C 
HETATM    5  C8  UNL     1      25.888   1.577  51.795  1.00  0.00     0.060 C 
HETATM    6  C9  UNL     1      24.720   0.938  52.440  1.00  0.00    -0.026 A 
HETATM    7  C10 UNL     1      23.556   1.321  51.698  1.00  0.00     0.010 A 
HETATM    8  S1  UNL     1      22.233   0.501  52.564  1.00  0.00    -0.072 SA
HETATM    9  C11 UNL     1      23.189  -0.281  53.810  1.00  0.00     0.113 A 
HETATM   10  N2  UNL     1      22.904  -1.060  54.833  1.00  0.00    -0.234 NA
HETATM   11  C12 UNL     1      23.845  -1.527  55.665  1.00  0.00     0.235 A 
HETATM   12  N3  UNL     1      25.103  -1.144  55.384  1.00  0.00    -0.234 NA
HETATM   13  C13 UNL     1      25.438  -0.359  54.360  1.00  0.00     0.108 A 
HETATM   14  C16 UNL     1      24.472   0.121  53.506  1.00  0.00     0.043 A 
HETATM   15  C17 UNL     1      23.597   2.178  50.537  1.00  0.00     0.172 C 
ENDROOT
BRANCH   1  16
HETATM   16  C5  UNL     1      23.525   4.546  48.763  1.00  0.00     0.070 C 
HETATM   17  C4  UNL     1      22.394   5.207  48.910  1.00  0.00    -0.017 C 
BRANCH  17  18
HETATM   18  C2  UNL     1      21.587   5.978  49.861  1.00  0.00    -0.000 C 
HETATM   19  C1  UNL     1      21.139   5.160  51.037  1.00  0.00     0.013 C 
HETATM   20  C3  UNL     1      22.287   7.250  50.311  1.00  0.00     0.013 C 
ENDBRANCH  17  18
ENDBRANCH   1  16
BRANCH  13  21
HETATM   21  S2  UNL     1      27.192  -0.075  54.351  1.00  0.00    -0.107 SA
BRANCH  21  22
HETATM   22  C14 UNL     1      27.918  -0.945  52.954  1.00  0.00     0.107 C 
BRANCH  22  23
HETATM   23  C15 UNL     1      27.345  -2.310  52.698  1.00  0.00     0.174 C 
BRANCH  23  24
HETATM   24  O2  UNL     1      28.241  -3.345  52.842  1.00  0.00    -0.400 OA
HETATM   25  H19 UNL     1      28.385  -3.854  52.015  1.00  0.00     0.209 HD
ENDBRANCH  23  24
ENDBRANCH  22  23
ENDBRANCH  21  22
ENDBRANCH  13  21
TORSDOF 6
ENDMDL
MODEL 2
REMARK VINA RESULT:      -7.2      3.491      7.426
REMARK  6 active torsions:
REMARK  status: ('A' for Active; 'I' for Inactive)
REMARK    1  A    between atoms: C2_2  and  C4_4 
REMARK    2  A    between atoms: C5_5  and  C6_6 
REMARK       I    between atoms: C6_6  and  N1_8 
REMARK    3  A    between atoms: C13_18  and  S2_19 
REMARK    4  A    between atoms: S2_19  and  C14_20 
REMARK    5  A    between atoms: C14_20  and  C15_21 
REMARK    6  A    between atoms: C15_21  and  O2_22 
ROOT
HETATM    1  C6  UNL     1      25.681  -0.282  54.715  1.00  0.00     0.243 C 
HETATM    2  O1  UNL     1      25.127  -1.261  55.276  1.00  0.00    -0.268 OA
HETATM    3  N1  UNL     1      24.689   0.332  53.902  1.00  0.00    -0.344 N 
HETATM    4  C7  UNL     1      23.333  -0.143  53.821  1.00  0.00     0.131 C 
HETATM    5  C8  UNL     1      22.817   0.101  52.417  1.00  0.00     0.060 C 
HETATM    6  C9  UNL     1      22.616   1.557  52.252  1.00  0.00    -0.026 A 
HETATM    7  C10 UNL     1      23.832   2.206  52.641  1.00  0.00     0.010 A 
HETATM    8  S1  UNL     1      23.467   3.933  52.403  1.00  0.00    -0.072 SA
HETATM    9  C11 UNL     1      21.817   3.768  51.831  1.00  0.00     0.113 A 
HETATM   10  N2  UNL     1      20.885   4.621  51.457  1.00  0.00    -0.234 NA
HETATM   11  C12 UNL     1      19.667   4.226  51.063  1.00  0.00     0.235 A 
HETATM   12  N3  UNL     1      19.460   2.898  51.074  1.00  0.00    -0.234 NA
HETATM   13  C13 UNL     1      20.372   1.999  51.441  1.00  0.00     0.108 A 
HETATM   14  C16 UNL     1      21.624   2.404  51.848  1.00  0.00     0.043 A 
HETATM   15  C17 UNL     1      25.003   1.496  53.098  1.00  0.00     0.172 C 
ENDROOT
BRANCH   1  16
HETATM   16  C5  UNL     1      27.040   0.204  54.814  1.00  0.00     0.070 C 
HETATM   17  C4  UNL     1      28.071  -0.217  54.109  1.00  0.00    -0.017 C 
BRANCH  17  18
HETATM   18  C2  UNL     1      28.487  -1.158  53.064  1.00  0.00    -0.000 C 
HETATM   19  C1  UNL     1      29.698  -1.955  53.453  1.00  0.00     0.013 C 
HETATM   20  C3  UNL     1      27.352  -2.065  52.619  1.00  0.00     0.013 C 
ENDBRANCH  17  18
ENDBRANCH   1  16
BRANCH  13  21
HETATM   21  S2  UNL     1      19.699   0.359  51.334  1.00  0.00    -0.107 SA
BRANCH  21  22
HETATM   22  C14 UNL     1      19.218  -0.185  52.979  1.00  0.00     0.107 C 
BRANCH  22  23
HETATM   23  C15 UNL     1      18.213  -1.303  53.002  1.00  0.00     0.174 C 
BRANCH  23  24
HETATM   24  O2  UNL     1      17.302  -1.234  54.031  1.00  0.00    -0.400 OA
HETATM   25  H19 UNL     1      17.592  -0.661  54.773  1.00  0.00     0.209 HD
ENDBRANCH  23  24
ENDBRANCH  22  23
ENDBRANCH  21  22
ENDBRANCH  13  21
TORSDOF 6
ENDMDL
MODEL 3
REMARK VINA RESULT:      -7.2      1.901      2.190
REMARK  6 active torsions:
REMARK  status: ('A' for Active; 'I' for Inactive)
REMARK    1  A    between atoms: C2_2  and  C4_4 
REMARK    2  A    between atoms: C5_5  and  C6_6 
REMARK       I    between atoms: C6_6  and  N1_8 
REMARK    3  A    between atoms: C13_18  and  S2_19 
REMARK    4  A    between atoms: S2_19  and  C14_20 
REMARK    5  A    between atoms: C14_20  and  C15_21 
REMARK    6  A    between atoms: C15_21  and  O2_22 
ROOT
HETATM    1  C6  UNL     1      25.197   4.654  49.477  1.00  0.00     0.243 C 
HETATM    2  O1  UNL     1      26.346   5.148  49.594  1.00  0.00    -0.268 OA
HETATM    3  N1  UNL     1      25.176   3.484  50.285  1.00  0.00    -0.344 N 
HETATM    4  C7  UNL     1      26.303   3.045  51.065  1.00  0.00     0.131 C 
HETATM    5  C8  UNL     1      26.307   1.530  51.103  1.00  0.00     0.060 C 
HETATM    6  C9  UNL     1      25.184   1.093  51.960  1.00  0.00    -0.026 A 
HETATM    7  C10 UNL     1      24.001   1.749  51.487  1.00  0.00     0.010 A 
HETATM    8  S1  UNL     1      22.736   1.151  52.589  1.00  0.00    -0.072 SA
HETATM    9  C11 UNL     1      23.737   0.112  53.587  1.00  0.00     0.113 A 
HETATM   10  N2  UNL     1      23.505  -0.663  54.627  1.00  0.00    -0.234 NA
HETATM   11  C12 UNL     1      24.475  -1.362  55.232  1.00  0.00     0.235 A 
HETATM   12  N3  UNL     1      25.703  -1.219  54.705  1.00  0.00    -0.234 NA
HETATM   13  C13 UNL     1      25.984  -0.448  53.655  1.00  0.00     0.108 A 
HETATM   14  C16 UNL     1      24.988   0.271  53.033  1.00  0.00     0.043 A 
HETATM   15  C17 UNL     1      23.989   2.657  50.366  1.00  0.00     0.172 C 
ENDROOT
BRANCH   1  16
HETATM   16  C5  UNL     1      24.060   5.108  48.707  1.00  0.00     0.070 C 
HETATM   17  C4  UNL     1      23.600   6.342  48.650  1.00  0.00    -0.017 C 
BRANCH  17  18
HETATM   18  C2  UNL     1      23.808   7.708  49.141  1.00  0.00    -0.000 C 
HETATM   19  C1  UNL     1      22.948   8.714  48.432  1.00  0.00     0.013 C 
HETATM   20  C3  UNL     1      23.642   7.810  50.648  1.00  0.00     0.013 C 
ENDBRANCH  17  18
ENDBRANCH   1  16
BRANCH  13  21
HETATM   21  S2  UNL     1      27.720  -0.518  53.287  1.00  0.00    -0.107 SA
BRANCH  21  22
HETATM   22  C14 UNL     1      28.602   0.571  54.414  1.00  0.00     0.107 C 
BRANCH  22  23
HETATM   23  C15 UNL     1      28.826   1.963  53.895  1.00  0.00     0.174 C 
BRANCH  23  24
HETATM   24  O2  UNL     1      27.832   2.861  54.212  1.00  0.00    -0.400 OA
HETATM   25  H19 UNL     1      27.036   2.778  53.644  1.00  0.00     0.209 HD
ENDBRANCH  23  24
ENDBRANCH  22  23
ENDBRANCH  21  22
ENDBRANCH  13  21
TORSDOF 6
ENDMDL
MODEL 4
REMARK VINA RESULT:      -7.1      2.909      7.331
REMARK  6 active torsions:
REMARK  status: ('A' for Active; 'I' for Inactive)
REMARK    1  A    between atoms: C2_2  and  C4_4 
REMARK    2  A    between atoms: C5_5  and  C6_6 
REMARK       I    between atoms: C6_6  and  N1_8 
REMARK    3  A    between atoms: C13_18  and  S2_19 
REMARK    4  A    between atoms: S2_19  and  C14_20 
REMARK    5  A    between atoms: C14_20  and  C15_21 
REMARK    6  A    between atoms: C15_21  and  O2_22 
ROOT
HETATM    1  C6  UNL     1      26.395   1.131  51.892  1.00  0.00     0.243 C 
HETATM    2  O1  UNL     1      27.254   2.020  51.664  1.00  0.00    -0.268 OA
HETATM    3  N1  UNL     1      25.123   1.747  51.733  1.00  0.00    -0.344 N 
HETATM    4  C7  UNL     1      24.958   3.127  51.361  1.00  0.00     0.131 C 
HETATM    5  C8  UNL     1      23.717   3.668  52.042  1.00  0.00     0.060 C 
HETATM    6  C9  UNL     1      22.538   3.057  51.391  1.00  0.00    -0.026 A 
HETATM    7  C10 UNL     1      22.735   1.638  51.387  1.00  0.00     0.010 A 
HETATM    8  S1  UNL     1      21.268   1.025  50.585  1.00  0.00    -0.072 SA
HETATM    9  C11 UNL     1      20.476   2.562  50.292  1.00  0.00     0.113 A 
HETATM   10  N2  UNL     1      19.341   2.918  49.724  1.00  0.00    -0.234 NA
HETATM   11  C12 UNL     1      18.964   4.199  49.613  1.00  0.00     0.235 A 
HETATM   12  N3  UNL     1      19.823   5.099  50.122  1.00  0.00    -0.234 NA
HETATM   13  C13 UNL     1      20.979   4.786  50.706  1.00  0.00     0.108 A 
HETATM   14  C16 UNL     1      21.368   3.470  50.820  1.00  0.00     0.043 A 
HETATM   15  C17 UNL     1      23.903   0.995  51.941  1.00  0.00     0.172 C 
ENDROOT
BRANCH   1  16
HETATM   16  C5  UNL     1      26.565  -0.261  52.248  1.00  0.00     0.070 C 
HETATM   17  C4  UNL     1      27.589  -0.780  52.896  1.00  0.00    -0.017 C 
BRANCH  17  18
HETATM   18  C2  UNL     1      28.876  -0.466  53.526  1.00  0.00    -0.000 C 
HETATM   19  C1  UNL     1      28.718   0.173  54.875  1.00  0.00     0.013 C 
HETATM   20  C3  UNL     1      29.794  -1.675  53.595  1.00  0.00     0.013 C 
ENDBRANCH  17  18
ENDBRANCH   1  16
BRANCH  13  21
HETATM   21  S2  UNL     1      21.825   6.259  51.224  1.00  0.00    -0.107 SA
BRANCH  21  22
HETATM   22  C14 UNL     1      23.119   6.639  50.034  1.00  0.00     0.107 C 
BRANCH  22  23
HETATM   23  C15 UNL     1      24.448   6.990  50.642  1.00  0.00     0.174 C 
BRANCH  23  24
HETATM   24  O2  UNL     1      24.449   7.063  52.016  1.00  0.00    -0.400 OA
HETATM   25  H19 UNL     1      25.345   6.989  52.410  1.00  0.00     0.209 HD
ENDBRANCH  23  24
ENDBRANCH  22  23
ENDBRANCH  21  22
ENDBRANCH  13  21
TORSDOF 6
ENDMDL
MODEL 5
REMARK VINA RESULT:      -7.0      3.044      6.423
REMARK  6 active torsions:
REMARK  status: ('A' for Active; 'I' for Inactive)
REMARK    1  A    between atoms: C2_2  and  C4_4 
REMARK    2  A    between atoms: C5_5  and  C6_6 
REMARK       I    between atoms: C6_6  and  N1_8 
REMARK    3  A    between atoms: C13_18  and  S2_19 
REMARK    4  A    between atoms: S2_19  and  C14_20 
REMARK    5  A    between atoms: C14_20  and  C15_21 
REMARK    6  A    between atoms: C15_21  and  O2_22 
ROOT
HETATM    1  C6  UNL     1      26.845   2.318  52.158  1.00  0.00     0.243 C 
HETATM    2  O1  UNL     1      27.147   2.733  51.010  1.00  0.00    -0.268 OA
HETATM    3  N1  UNL     1      25.431   2.167  52.173  1.00  0.00    -0.344 N 
HETATM    4  C7  UNL     1      24.597   2.446  51.034  1.00  0.00     0.131 C 
HETATM    5  C8  UNL     1      23.269   2.987  51.526  1.00  0.00     0.060 C 
HETATM    6  C9  UNL     1      22.527   1.872  52.154  1.00  0.00    -0.026 A 
HETATM    7  C10 UNL     1      23.398   1.261  53.113  1.00  0.00     0.010 A 
HETATM    8  S1  UNL     1      22.403  -0.051  53.789  1.00  0.00    -0.072 SA
HETATM    9  C11 UNL     1      20.948   0.220  52.848  1.00  0.00     0.113 A 
HETATM   10  N2  UNL     1      19.771  -0.368  52.786  1.00  0.00    -0.234 NA
HETATM   11  C12 UNL     1      18.808   0.039  51.947  1.00  0.00     0.235 A 
HETATM   12  N3  UNL     1      19.125   1.090  51.172  1.00  0.00    -0.234 NA
HETATM   13  C13 UNL     1      20.301   1.717  51.202  1.00  0.00     0.108 A 
HETATM   14  C16 UNL     1      21.291   1.299  52.062  1.00  0.00     0.043 A 
HETATM   15  C17 UNL     1      24.746   1.713  53.366  1.00  0.00     0.172 C 
ENDROOT
BRANCH   1  16
HETATM   16  C5  UNL     1      27.689   2.021  53.294  1.00  0.00     0.070 C 
HETATM   17  C4  UNL     1      28.309   0.882  53.528  1.00  0.00    -0.017 C 
BRANCH  17  18
HETATM   18  C2  UNL     1      28.540  -0.470  53.009  1.00  0.00    -0.000 C 
HETATM   19  C1  UNL     1      29.635  -1.191  53.740  1.00  0.00     0.013 C 
HETATM   20  C3  UNL     1      27.267  -1.299  52.972  1.00  0.00     0.013 C 
ENDBRANCH  17  18
ENDBRANCH   1  16
BRANCH  13  21
HETATM   21  S2  UNL     1      20.325   3.037  50.013  1.00  0.00    -0.107 SA
BRANCH  21  22
HETATM   22  C14 UNL     1      20.629   2.349  48.380  1.00  0.00     0.107 C 
BRANCH  22  23
HETATM   23  C15 UNL     1      21.846   1.471  48.285  1.00  0.00     0.174 C 
BRANCH  23  24
HETATM   24  O2  UNL     1      22.674   1.752  47.222  1.00  0.00    -0.400 OA
HETATM   25  H19 UNL     1      22.385   2.528  46.697  1.00  0.00     0.209 HD
ENDBRANCH  23  24
ENDBRANCH  22  23
ENDBRANCH  21  22
ENDBRANCH  13  21
TORSDOF 6
ENDMDL
MODEL 6
REMARK VINA RESULT:      -7.0      3.887      8.609
REMARK  6 active torsions:
REMARK  status: ('A' for Active; 'I' for Inactive)
REMARK    1  A    between atoms: C2_2  and  C4_4 
REMARK    2  A    between atoms: C5_5  and  C6_6 
REMARK       I    between atoms: C6_6  and  N1_8 
REMARK    3  A    between atoms: C13_18  and  S2_19 
REMARK    4  A    between atoms: S2_19  and  C14_20 
REMARK    5  A    between atoms: C14_20  and  C15_21 
REMARK    6  A    between atoms: C15_21  and  O2_22 
ROOT
HETATM    1  C6  UNL     1      25.405   1.961  51.807  1.00  0.00     0.243 C 
HETATM    2  O1  UNL     1      24.414   2.194  52.544  1.00  0.00    -0.268 OA
HETATM    3  N1  UNL     1      25.462   3.020  50.859  1.00  0.00    -0.344 N 
HETATM    4  C7  UNL     1      24.527   4.113  50.843  1.00  0.00     0.131 C 
HETATM    5  C8  UNL     1      24.307   4.542  49.407  1.00  0.00     0.060 C 
HETATM    6  C9  UNL     1      25.537   5.217  48.939  1.00  0.00    -0.026 A 
HETATM    7  C10 UNL     1      26.639   4.344  49.217  1.00  0.00     0.010 A 
HETATM    8  S1  UNL     1      28.045   5.258  48.618  1.00  0.00    -0.072 SA
HETATM    9  C11 UNL     1      27.198   6.685  48.050  1.00  0.00     0.113 A 
HETATM   10  N2  UNL     1      27.576   7.814  47.484  1.00  0.00    -0.234 NA
HETATM   11  C12 UNL     1      26.706   8.776  47.149  1.00  0.00     0.235 A 
HETATM   12  N3  UNL     1      25.418   8.511  47.429  1.00  0.00    -0.234 NA
HETATM   13  C13 UNL     1      24.989   7.385  47.998  1.00  0.00     0.108 A 
HETATM   14  C16 UNL     1      25.883   6.396  48.344  1.00  0.00     0.043 A 
HETATM   15  C17 UNL     1      26.492   3.050  49.841  1.00  0.00     0.172 C 
ENDROOT
BRANCH   1  16
HETATM   16  C5  UNL     1      26.354   0.870  51.838  1.00  0.00     0.070 C 
HETATM   17  C4  UNL     1      27.287   0.675  52.749  1.00  0.00    -0.017 C 
BRANCH  17  18
HETATM   18  C2  UNL     1      27.870   1.212  53.982  1.00  0.00    -0.000 C 
HETATM   19  C1  UNL     1      28.620   0.175  54.767  1.00  0.00     0.013 C 
HETATM   20  C3  UNL     1      28.733   2.436  53.726  1.00  0.00     0.013 C 
ENDBRANCH  17  18
ENDBRANCH   1  16
BRANCH  13  21
HETATM   21  S2  UNL     1      23.227   7.437  48.215  1.00  0.00    -0.107 SA
BRANCH  21  22
HETATM   22  C14 UNL     1      22.849   8.329  49.729  1.00  0.00     0.107 C 
BRANCH  22  23
HETATM   23  C15 UNL     1      23.007   7.525  50.989  1.00  0.00     0.174 C 
BRANCH  23  24
HETATM   24  O2  UNL     1      24.224   7.670  51.614  1.00  0.00    -0.400 OA
HETATM   25  H19 UNL     1      24.467   8.605  51.784  1.00  0.00     0.209 HD
ENDBRANCH  23  24
ENDBRANCH  22  23
ENDBRANCH  21  22
ENDBRANCH  13  21
TORSDOF 6
ENDMDL
MODEL 7
REMARK VINA RESULT:      -6.9      3.141      6.978
REMARK  6 active torsions:
REMARK  status: ('A' for Active; 'I' for Inactive)
REMARK    1  A    between atoms: C2_2  and  C4_4 
REMARK    2  A    between atoms: C5_5  and  C6_6 
REMARK       I    between atoms: C6_6  and  N1_8 
REMARK    3  A    between atoms: C13_18  and  S2_19 
REMARK    4  A    between atoms: S2_19  and  C14_20 
REMARK    5  A    between atoms: C14_20  and  C15_21 
REMARK    6  A    between atoms: C15_21  and  O2_22 
ROOT
HETATM    1  C6  UNL     1      26.856   2.261  52.175  1.00  0.00     0.243 C 
HETATM    2  O1  UNL     1      27.136   2.693  51.028  1.00  0.00    -0.268 OA
HETATM    3  N1  UNL     1      25.444   2.098  52.212  1.00  0.00    -0.344 N 
HETATM    4  C7  UNL     1      24.589   2.382  51.090  1.00  0.00     0.131 C 
HETATM    5  C8  UNL     1      23.265   2.906  51.610  1.00  0.00     0.060 C 
HETATM    6  C9  UNL     1      22.543   1.776  52.235  1.00  0.00    -0.026 A 
HETATM    7  C10 UNL     1      23.435   1.162  53.173  1.00  0.00     0.010 A 
HETATM    8  S1  UNL     1      22.463  -0.168  53.850  1.00  0.00    -0.072 SA
HETATM    9  C11 UNL     1      20.990   0.102  52.935  1.00  0.00     0.113 A 
HETATM   10  N2  UNL     1      19.817  -0.497  52.885  1.00  0.00    -0.234 NA
HETATM   11  C12 UNL     1      18.838  -0.089  52.067  1.00  0.00     0.235 A 
HETATM   12  N3  UNL     1      19.133   0.975  51.300  1.00  0.00    -0.234 NA
HETATM   13  C13 UNL     1      20.303   1.612  51.318  1.00  0.00     0.108 A 
HETATM   14  C16 UNL     1      21.311   1.193  52.157  1.00  0.00     0.043 A 
HETATM   15  C17 UNL     1      24.783   1.623  53.410  1.00  0.00     0.172 C 
ENDROOT
BRANCH   1  16
HETATM   16  C5  UNL     1      27.721   1.959  53.294  1.00  0.00     0.070 C 
HETATM   17  C4  UNL     1      28.341   0.817  53.513  1.00  0.00    -0.017 C 
BRANCH  17  18
HETATM   18  C2  UNL     1      28.557  -0.535  52.987  1.00  0.00    -0.000 C 
HETATM   19  C1  UNL     1      29.650  -1.268  53.709  1.00  0.00     0.013 C 
HETATM   20  C3  UNL     1      27.276  -1.352  52.955  1.00  0.00     0.013 C 
ENDBRANCH  17  18
ENDBRANCH   1  16
BRANCH  13  21
HETATM   21  S2  UNL     1      20.296   2.946  50.145  1.00  0.00    -0.107 SA
BRANCH  21  22
HETATM   22  C14 UNL     1      18.596   3.445  49.836  1.00  0.00     0.107 C 
BRANCH  22  23
HETATM   23  C15 UNL     1      17.994   4.319  50.900  1.00  0.00     0.174 C 
BRANCH  23  24
HETATM   24  O2  UNL     1      17.393   3.635  51.932  1.00  0.00    -0.400 OA
HETATM   25  H19 UNL     1      16.554   4.043  52.234  1.00  0.00     0.209 HD
ENDBRANCH  23  24
ENDBRANCH  22  23
ENDBRANCH  21  22
ENDBRANCH  13  21
TORSDOF 6
ENDMDL
MODEL 8
REMARK VINA RESULT:      -6.9      8.829     11.998
REMARK  6 active torsions:
REMARK  status: ('A' for Active; 'I' for Inactive)
REMARK    1  A    between atoms: C2_2  and  C4_4 
REMARK    2  A    between atoms: C5_5  and  C6_6 
REMARK       I    between atoms: C6_6  and  N1_8 
REMARK    3  A    between atoms: C13_18  and  S2_19 
REMARK    4  A    between atoms: S2_19  and  C14_20 
REMARK    5  A    between atoms: C14_20  and  C15_21 
REMARK    6  A    between atoms: C15_21  and  O2_22 
ROOT
HETATM    1  C6  UNL     1      34.652   5.858  48.390  1.00  0.00     0.243 C 
HETATM    2  O1  UNL     1      35.416   6.767  47.977  1.00  0.00    -0.268 OA
HETATM    3  N1  UNL     1      33.359   6.440  48.511  1.00  0.00    -0.344 N 
HETATM    4  C7  UNL     1      33.080   7.812  48.181  1.00  0.00     0.131 C 
HETATM    5  C8  UNL     1      32.003   8.326  49.116  1.00  0.00     0.060 C 
HETATM    6  C9  UNL     1      30.727   7.680  48.739  1.00  0.00    -0.026 A 
HETATM    7  C10 UNL     1      30.957   6.266  48.695  1.00  0.00     0.010 A 
HETATM    8  S1  UNL     1      29.367   5.609  48.234  1.00  0.00    -0.072 SA
HETATM    9  C11 UNL     1      28.489   7.123  48.118  1.00  0.00     0.113 A 
HETATM   10  N2  UNL     1      27.248   7.444  47.811  1.00  0.00    -0.234 NA
HETATM   11  C12 UNL     1      26.822   8.714  47.783  1.00  0.00     0.235 A 
HETATM   12  N3  UNL     1      27.746   9.640  48.090  1.00  0.00    -0.234 NA
HETATM   13  C13 UNL     1      29.010   9.362  48.408  1.00  0.00     0.108 A 
HETATM   14  C16 UNL     1      29.451   8.058  48.436  1.00  0.00     0.043 A 
HETATM   15  C17 UNL     1      32.235   5.658  48.982  1.00  0.00     0.172 C 
ENDROOT
BRANCH   1  16
HETATM   16  C5  UNL     1      34.933   4.474  48.702  1.00  0.00     0.070 C 
HETATM   17  C4  UNL     1      34.785   3.447  47.890  1.00  0.00    -0.017 C 
BRANCH  17  18
HETATM   18  C2  UNL     1      34.372   3.053  46.539  1.00  0.00    -0.000 C 
HETATM   19  C1  UNL     1      32.902   3.244  46.305  1.00  0.00     0.013 C 
HETATM   20  C3  UNL     1      35.194   3.742  45.462  1.00  0.00     0.013 C 
ENDBRANCH  17  18
ENDBRANCH   1  16
BRANCH  13  21
HETATM   21  S2  UNL     1      29.909  10.861  48.725  1.00  0.00    -0.107 SA
BRANCH  21  22
HETATM   22  C14 UNL     1      29.259  12.167  47.675  1.00  0.00     0.107 C 
BRANCH  22  23
HETATM   23  C15 UNL     1      28.532  13.259  48.408  1.00  0.00     0.174 C 
BRANCH  23  24
HETATM   24  O2  UNL     1      28.357  13.029  49.754  1.00  0.00    -0.400 OA
HETATM   25  H19 UNL     1      28.531  12.100  50.017  1.00  0.00     0.209 HD
ENDBRANCH  23  24
ENDBRANCH  22  23
ENDBRANCH  21  22
ENDBRANCH  13  21
TORSDOF 6
ENDMDL
MODEL 9
REMARK VINA RESULT:      -6.7      2.842      7.133
REMARK  6 active torsions:
REMARK  status: ('A' for Active; 'I' for Inactive)
REMARK    1  A    between atoms: C2_2  and  C4_4 
REMARK    2  A    between atoms: C5_5  and  C6_6 
REMARK       I    between atoms: C6_6  and  N1_8 
REMARK    3  A    between atoms: C13_18  and  S2_19 
REMARK    4  A    between atoms: S2_19  and  C14_20 
REMARK    5  A    between atoms: C14_20  and  C15_21 
REMARK    6  A    between atoms: C15_21  and  O2_22 
ROOT
HETATM    1  C6  UNL     1      26.155   0.611  51.977  1.00  0.00     0.243 C 
HETATM    2  O1  UNL     1      26.824   1.314  51.177  1.00  0.00    -0.268 OA
HETATM    3  N1  UNL     1      24.860   1.194  52.043  1.00  0.00    -0.344 N 
HETATM    4  C7  UNL     1      24.481   2.357  51.284  1.00  0.00     0.131 C 
HETATM    5  C8  UNL     1      23.496   3.169  52.101  1.00  0.00     0.060 C 
HETATM    6  C9  UNL     1      22.217   2.428  52.140  1.00  0.00    -0.026 A 
HETATM    7  C10 UNL     1      22.506   1.094  52.573  1.00  0.00     0.010 A 
HETATM    8  S1  UNL     1      20.906   0.311  52.577  1.00  0.00    -0.072 SA
HETATM    9  C11 UNL     1      19.950   1.681  52.041  1.00  0.00     0.113 A 
HETATM   10  N2  UNL     1      18.669   1.868  51.796  1.00  0.00    -0.234 NA
HETATM   11  C12 UNL     1      18.183   3.043  51.372  1.00  0.00     0.235 A 
HETATM   12  N3  UNL     1      19.093   4.019  51.212  1.00  0.00    -0.234 NA
HETATM   13  C13 UNL     1      20.397   3.876  51.449  1.00  0.00     0.108 A 
HETATM   14  C16 UNL     1      20.898   2.670  51.884  1.00  0.00     0.043 A 
HETATM   15  C17 UNL     1      23.834   0.631  52.897  1.00  0.00     0.172 C 
ENDROOT
BRANCH   1  16
HETATM   16  C5  UNL     1      26.535  -0.568  52.724  1.00  0.00     0.070 C 
HETATM   17  C4  UNL     1      27.708  -0.793  53.282  1.00  0.00    -0.017 C 
BRANCH  17  18
HETATM   18  C2  UNL     1      29.045  -0.231  53.498  1.00  0.00    -0.000 C 
HETATM   19  C1  UNL     1      29.059   0.840  54.550  1.00  0.00     0.013 C 
HETATM   20  C3  UNL     1      30.080  -1.304  53.794  1.00  0.00     0.013 C 
ENDBRANCH  17  18
ENDBRANCH   1  16
BRANCH  13  21
HETATM   21  S2  UNL     1      21.256   5.391  51.098  1.00  0.00    -0.107 SA
BRANCH  21  22
HETATM   22  C14 UNL     1      21.891   5.328  49.417  1.00  0.00     0.107 C 
BRANCH  22  23
HETATM   23  C15 UNL     1      23.359   5.621  49.289  1.00  0.00     0.174 C 
BRANCH  23  24
HETATM   24  O2  UNL     1      23.752   6.056  48.044  1.00  0.00    -0.400 OA
HETATM   25  H19 UNL     1      24.236   6.909  48.064  1.00  0.00     0.209 HD
ENDBRANCH  23  24
ENDBRANCH  22  23
ENDBRANCH  21  22
ENDBRANCH  13  21
TORSDOF 6
ENDMDL
