MODEL 1
REMARK VINA RESULT:      -8.1      0.000      0.000
REMARK  3 active torsions:
REMARK  status: ('A' for Active; 'I' for Inactive)
REMARK    1  A    between atoms: C5_6  and  O2_7 
REMARK    2  A    between atoms: C7_9  and  C8_10 
REMARK    3  A    between atoms: C22_25  and  O4_26 
ROOT
HETATM    1  O1  UNL     1      23.091   2.487  48.229  1.00  0.00    -0.292 OA
HETATM    2  C1  UNL     1      22.494   2.718  49.328  1.00  0.00     0.167 C 
HETATM    3  C2  UNL     1      21.042   2.721  49.650  1.00  0.00     0.148 C 
HETATM    4  C3  UNL     1      20.871   3.717  50.763  1.00  0.00     0.056 C 
HETATM    5  C4  UNL     1      21.797   4.590  51.121  1.00  0.00     0.070 C 
HETATM    6  C5  UNL     1      23.217   4.268  51.119  1.00  0.00     0.080 C 
HETATM    7  C6  UNL     1      22.881   3.060  50.693  1.00  0.00     0.055 C 
HETATM    8  C7  UNL     1      22.982   2.188  51.884  1.00  0.00     0.200 C 
HETATM    9  O3  UNL     1      22.506   0.853  51.603  1.00  0.00    -0.348 OA
HETATM   10  C14 UNL     1      22.404  -0.019  52.683  1.00  0.00     0.132 C 
HETATM   11  C15 UNL     1      21.228  -0.279  53.201  1.00  0.00    -0.003 C 
HETATM   12  C16 UNL     1      19.811   0.148  52.920  1.00  0.00     0.029 C 
HETATM   13  C17 UNL     1      18.948  -1.045  52.731  1.00  0.00     0.004 C 
HETATM   14  C18 UNL     1      17.513  -0.859  52.487  1.00  0.00     0.000 C 
HETATM   15  C19 UNL     1      16.991  -0.318  51.240  1.00  0.00     0.000 C 
HETATM   16  C20 UNL     1      17.344   1.033  50.763  1.00  0.00     0.002 C 
HETATM   17  C21 UNL     1      17.036   2.082  51.790  1.00  0.00     0.034 C 
HETATM   18  C22 UNL     1      17.194   3.484  51.225  1.00  0.00     0.142 C 
HETATM   19  C23 UNL     1      18.456   3.661  50.469  1.00  0.00     0.207 C 
HETATM   20  O5  UNL     1      19.573   3.530  51.313  1.00  0.00    -0.352 OA
ENDROOT
BRANCH   8  21
HETATM   21  C8  UNL     1      24.395   2.019  52.331  1.00  0.00    -0.024 A 
HETATM   22  C9  UNL     1      24.784   2.424  53.591  1.00  0.00     0.010 A 
HETATM   23  C10 UNL     1      26.126   2.219  53.902  1.00  0.00     0.001 A 
HETATM   24  C11 UNL     1      27.023   1.650  53.024  1.00  0.00     0.000 A 
HETATM   25  C12 UNL     1      26.612   1.253  51.769  1.00  0.00     0.001 A 
HETATM   26  C13 UNL     1      25.286   1.449  51.445  1.00  0.00     0.010 A 
ENDBRANCH   8  21
BRANCH   6  27
HETATM   27  O2  UNL     1      24.136   5.231  51.505  1.00  0.00    -0.360 OA
HETATM   28  H4  UNL     1      25.004   4.869  51.898  1.00  0.00     0.217 HD
ENDBRANCH   6  27
BRANCH  18  29
HETATM   29  O4  UNL     1      17.036   4.418  52.235  1.00  0.00    -0.393 OA
HETATM   30  H26 UNL     1      16.372   5.086  51.880  1.00  0.00     0.210 HD
ENDBRANCH  18  29
TORSDOF 3
ENDMDL
MODEL 2
REMARK VINA RESULT:      -7.9      2.052      6.269
REMARK  3 active torsions:
REMARK  status: ('A' for Active; 'I' for Inactive)
REMARK    1  A    between atoms: C5_6  and  O2_7 
REMARK    2  A    between atoms: C7_9  and  C8_10 
REMARK    3  A    between atoms: C22_25  and  O4_26 
ROOT
HETATM    1  O1  UNL     1      23.369   5.523  52.524  1.00  0.00    -0.292 OA
HETATM    2  C1  UNL     1      23.436   4.334  52.075  1.00  0.00     0.167 C 
HETATM    3  C2  UNL     1      24.288   3.192  52.505  1.00  0.00     0.148 C 
HETATM    4  C3  UNL     1      24.512   2.361  51.273  1.00  0.00     0.056 C 
HETATM    5  C4  UNL     1      24.243   2.773  50.045  1.00  0.00     0.070 C 
HETATM    6  C5  UNL     1      23.087   3.602  49.736  1.00  0.00     0.080 C 
HETATM    7  C6  UNL     1      22.786   3.558  51.024  1.00  0.00     0.055 C 
HETATM    8  C7  UNL     1      21.686   2.574  51.131  1.00  0.00     0.200 C 
HETATM    9  O3  UNL     1      21.342   2.315  52.511  1.00  0.00    -0.348 OA
HETATM   10  C14 UNL     1      20.428   1.292  52.750  1.00  0.00     0.132 C 
HETATM   11  C15 UNL     1      20.851   0.132  53.189  1.00  0.00    -0.003 C 
HETATM   12  C16 UNL     1      22.190  -0.461  53.544  1.00  0.00     0.029 C 
HETATM   13  C17 UNL     1      22.154  -1.011  54.923  1.00  0.00     0.004 C 
HETATM   14  C18 UNL     1      23.346  -1.676  55.459  1.00  0.00     0.000 C 
HETATM   15  C19 UNL     1      24.561  -0.953  55.809  1.00  0.00     0.000 C 
HETATM   16  C20 UNL     1      25.325  -0.178  54.814  1.00  0.00     0.002 C 
HETATM   17  C21 UNL     1      25.711  -1.019  53.633  1.00  0.00     0.034 C 
HETATM   18  C22 UNL     1      26.677  -0.289  52.715  1.00  0.00     0.142 C 
HETATM   19  C23 UNL     1      26.249   1.098  52.416  1.00  0.00     0.207 C 
HETATM   20  O5  UNL     1      25.047   1.110  51.688  1.00  0.00    -0.352 OA
ENDROOT
BRANCH   8  21
HETATM   21  C8  UNL     1      20.431   3.071  50.496  1.00  0.00    -0.024 A 
HETATM   22  C9  UNL     1      19.859   4.256  50.911  1.00  0.00     0.010 A 
HETATM   23  C10 UNL     1      18.690   4.624  50.250  1.00  0.00     0.001 A 
HETATM   24  C11 UNL     1      18.125   3.869  49.245  1.00  0.00     0.000 A 
HETATM   25  C12 UNL     1      18.713   2.688  48.848  1.00  0.00     0.001 A 
HETATM   26  C13 UNL     1      19.873   2.309  49.492  1.00  0.00     0.010 A 
ENDBRANCH   8  21
BRANCH   6  27
HETATM   27  O2  UNL     1      22.864   4.000  48.427  1.00  0.00    -0.360 OA
HETATM   28  H4  UNL     1      22.579   4.972  48.312  1.00  0.00     0.217 HD
ENDBRANCH   6  27
BRANCH  18  29
HETATM   29  O4  UNL     1      26.901  -1.040  51.574  1.00  0.00    -0.393 OA
HETATM   30  H26 UNL     1      27.763  -1.531  51.741  1.00  0.00     0.210 HD
ENDBRANCH  18  29
TORSDOF 3
ENDMDL
MODEL 3
REMARK VINA RESULT:      -7.8      2.545      5.918
REMARK  3 active torsions:
REMARK  status: ('A' for Active; 'I' for Inactive)
REMARK    1  A    between atoms: C5_6  and  O2_7 
REMARK    2  A    between atoms: C7_9  and  C8_10 
REMARK    3  A    between atoms: C22_25  and  O4_26 
ROOT
HETATM    1  O1  UNL     1      23.633   5.496  52.716  1.00  0.00    -0.292 OA
HETATM    2  C1  UNL     1      23.940   4.340  52.281  1.00  0.00     0.167 C 
HETATM    3  C2  UNL     1      24.347   3.114  53.017  1.00  0.00     0.148 C 
HETATM    4  C3  UNL     1      25.255   2.359  52.087  1.00  0.00     0.056 C 
HETATM    5  C4  UNL     1      25.783   2.876  50.990  1.00  0.00     0.070 C 
HETATM    6  C5  UNL     1      25.056   3.806  50.136  1.00  0.00     0.080 C 
HETATM    7  C6  UNL     1      24.041   3.691  50.978  1.00  0.00     0.055 C 
HETATM    8  C7  UNL     1      23.084   2.783  50.308  1.00  0.00     0.200 C 
HETATM    9  O3  UNL     1      21.977   2.450  51.175  1.00  0.00    -0.348 OA
HETATM   10  C14 UNL     1      21.089   1.481  50.718  1.00  0.00     0.132 C 
HETATM   11  C15 UNL     1      21.146   0.264  51.203  1.00  0.00    -0.003 C 
HETATM   12  C16 UNL     1      21.995  -0.446  52.226  1.00  0.00     0.029 C 
HETATM   13  C17 UNL     1      21.129  -1.089  53.247  1.00  0.00     0.004 C 
HETATM   14  C18 UNL     1      21.751  -1.875  54.318  1.00  0.00     0.000 C 
HETATM   15  C19 UNL     1      22.521  -1.267  55.395  1.00  0.00     0.000 C 
HETATM   16  C20 UNL     1      23.741  -0.479  55.136  1.00  0.00     0.002 C 
HETATM   17  C21 UNL     1      24.747  -1.259  54.342  1.00  0.00     0.034 C 
HETATM   18  C22 UNL     1      26.081  -0.535  54.261  1.00  0.00     0.142 C 
HETATM   19  C23 UNL     1      25.938   0.897  53.907  1.00  0.00     0.207 C 
HETATM   20  O5  UNL     1      25.415   1.046  52.611  1.00  0.00    -0.352 OA
ENDROOT
BRANCH   8  21
HETATM   21  C8  UNL     1      22.470   3.412  49.104  1.00  0.00    -0.024 A 
HETATM   22  C9  UNL     1      21.861   4.647  49.193  1.00  0.00     0.010 A 
HETATM   23  C10 UNL     1      21.320   5.139  48.008  1.00  0.00     0.001 A 
HETATM   24  C11 UNL     1      21.379   4.454  46.813  1.00  0.00     0.000 A 
HETATM   25  C12 UNL     1      21.992   3.222  46.747  1.00  0.00     0.001 A 
HETATM   26  C13 UNL     1      22.533   2.720  47.913  1.00  0.00     0.010 A 
ENDBRANCH   8  21
BRANCH   6  27
HETATM   27  O2  UNL     1      25.671   4.311  49.001  1.00  0.00    -0.360 OA
HETATM   28  H4  UNL     1      25.318   3.943  48.118  1.00  0.00     0.217 HD
ENDBRANCH   6  27
BRANCH  18  29
HETATM   29  O4  UNL     1      26.935  -1.217  53.411  1.00  0.00    -0.393 OA
HETATM   30  H26 UNL     1      26.744  -2.192  53.565  1.00  0.00     0.210 HD
ENDBRANCH  18  29
TORSDOF 3
ENDMDL
MODEL 4
REMARK VINA RESULT:      -7.3      3.057      5.187
REMARK  3 active torsions:
REMARK  status: ('A' for Active; 'I' for Inactive)
REMARK    1  A    between atoms: C5_6  and  O2_7 
REMARK    2  A    between atoms: C7_9  and  C8_10 
REMARK    3  A    between atoms: C22_25  and  O4_26 
ROOT
HETATM    1  O1  UNL     1      26.504   2.867  50.213  1.00  0.00    -0.292 OA
HETATM    2  C1  UNL     1      25.357   3.409  50.311  1.00  0.00     0.167 C 
HETATM    3  C2  UNL     1      24.682   4.392  49.423  1.00  0.00     0.148 C 
HETATM    4  C3  UNL     1      23.784   5.202  50.316  1.00  0.00     0.056 C 
HETATM    5  C4  UNL     1      23.856   5.196  51.637  1.00  0.00     0.070 C 
HETATM    6  C5  UNL     1      24.158   3.992  52.397  1.00  0.00     0.080 C 
HETATM    7  C6  UNL     1      24.233   3.353  51.240  1.00  0.00     0.055 C 
HETATM    8  C7  UNL     1      22.959   2.610  51.125  1.00  0.00     0.200 C 
HETATM    9  O3  UNL     1      22.837   1.968  49.835  1.00  0.00    -0.348 OA
HETATM   10  C14 UNL     1      21.616   1.367  49.545  1.00  0.00     0.132 C 
HETATM   11  C15 UNL     1      20.773   1.964  48.737  1.00  0.00    -0.003 C 
HETATM   12  C16 UNL     1      20.761   3.252  47.955  1.00  0.00     0.029 C 
HETATM   13  C17 UNL     1      20.480   2.975  46.524  1.00  0.00     0.004 C 
HETATM   14  C18 UNL     1      20.380   4.098  45.585  1.00  0.00     0.000 C 
HETATM   15  C19 UNL     1      21.534   4.888  45.177  1.00  0.00     0.000 C 
HETATM   16  C20 UNL     1      22.345   5.648  46.148  1.00  0.00     0.002 C 
HETATM   17  C21 UNL     1      21.503   6.593  46.954  1.00  0.00     0.034 C 
HETATM   18  C22 UNL     1      22.357   7.527  47.796  1.00  0.00     0.142 C 
HETATM   19  C23 UNL     1      23.431   6.818  48.532  1.00  0.00     0.207 C 
HETATM   20  O5  UNL     1      22.893   5.934  49.483  1.00  0.00    -0.352 OA
ENDROOT
BRANCH   8  21
HETATM   21  C8  UNL     1      22.865   1.508  52.126  1.00  0.00    -0.024 A 
HETATM   22  C9  UNL     1      23.928   0.652  52.327  1.00  0.00     0.010 A 
HETATM   23  C10 UNL     1      23.730  -0.339  53.284  1.00  0.00     0.001 A 
HETATM   24  C11 UNL     1      22.558  -0.474  53.996  1.00  0.00     0.000 A 
HETATM   25  C12 UNL     1      21.508   0.393  53.779  1.00  0.00     0.001 A 
HETATM   26  C13 UNL     1      21.688   1.381  52.833  1.00  0.00     0.010 A 
ENDBRANCH   8  21
BRANCH   6  27
HETATM   27  O2  UNL     1      24.219   4.057  53.780  1.00  0.00    -0.360 OA
HETATM   28  H4  UNL     1      25.100   4.403  54.158  1.00  0.00     0.217 HD
ENDBRANCH   6  27
BRANCH  18  29
HETATM   29  O4  UNL     1      21.548   8.285  48.624  1.00  0.00    -0.393 OA
HETATM   30  H26 UNL     1      21.694   9.239  48.340  1.00  0.00     0.210 HD
ENDBRANCH  18  29
TORSDOF 3
ENDMDL
MODEL 5
REMARK VINA RESULT:      -7.2     10.337     13.916
REMARK  3 active torsions:
REMARK  status: ('A' for Active; 'I' for Inactive)
REMARK    1  A    between atoms: C5_6  and  O2_7 
REMARK    2  A    between atoms: C7_9  and  C8_10 
REMARK    3  A    between atoms: C22_25  and  O4_26 
ROOT
HETATM    1  O1  UNL     1      28.014   6.816  48.395  1.00  0.00    -0.292 OA
HETATM    2  C1  UNL     1      29.209   7.202  48.187  1.00  0.00     0.167 C 
HETATM    3  C2  UNL     1      30.409   6.428  47.772  1.00  0.00     0.148 C 
HETATM    4  C3  UNL     1      31.586   7.141  48.376  1.00  0.00     0.056 C 
HETATM    5  C4  UNL     1      31.486   8.068  49.315  1.00  0.00     0.070 C 
HETATM    6  C5  UNL     1      30.402   9.039  49.341  1.00  0.00     0.080 C 
HETATM    7  C6  UNL     1      29.940   8.463  48.242  1.00  0.00     0.055 C 
HETATM    8  C7  UNL     1      30.333   9.366  47.138  1.00  0.00     0.200 C 
HETATM    9  O3  UNL     1      30.015   8.793  45.849  1.00  0.00    -0.348 OA
HETATM   10  C14 UNL     1      30.476   9.475  44.726  1.00  0.00     0.132 C 
HETATM   11  C15 UNL     1      31.522   9.026  44.076  1.00  0.00    -0.003 C 
HETATM   12  C16 UNL     1      32.459   7.855  44.223  1.00  0.00     0.029 C 
HETATM   13  C17 UNL     1      32.514   7.085  42.955  1.00  0.00     0.004 C 
HETATM   14  C18 UNL     1      33.402   5.922  42.862  1.00  0.00     0.000 C 
HETATM   15  C19 UNL     1      33.146   4.677  43.574  1.00  0.00     0.000 C 
HETATM   16  C20 UNL     1      33.066   4.618  45.046  1.00  0.00     0.002 C 
HETATM   17  C21 UNL     1      34.300   5.177  45.691  1.00  0.00     0.034 C 
HETATM   18  C22 UNL     1      34.316   4.921  47.189  1.00  0.00     0.142 C 
HETATM   19  C23 UNL     1      33.029   5.256  47.843  1.00  0.00     0.207 C 
HETATM   20  O5  UNL     1      32.762   6.633  47.757  1.00  0.00    -0.352 OA
ENDROOT
BRANCH   8  21
HETATM   21  C8  UNL     1      29.596  10.661  47.188  1.00  0.00    -0.024 A 
HETATM   22  C9  UNL     1      30.282  11.854  47.296  1.00  0.00     0.010 A 
HETATM   23  C10 UNL     1      29.493  13.000  47.335  1.00  0.00     0.001 A 
HETATM   24  C11 UNL     1      28.117  12.969  47.272  1.00  0.00     0.000 A 
HETATM   25  C12 UNL     1      27.452  11.766  47.165  1.00  0.00     0.001 A 
HETATM   26  C13 UNL     1      28.219  10.620  47.124  1.00  0.00     0.010 A 
ENDBRANCH   8  21
BRANCH   6  27
HETATM   27  O2  UNL     1      30.357   9.983  50.355  1.00  0.00    -0.360 OA
HETATM   28  H4  UNL     1      29.875   9.684  51.202  1.00  0.00     0.217 HD
ENDBRANCH   6  27
BRANCH  18  29
HETATM   29  O4  UNL     1      35.396   5.567  47.765  1.00  0.00    -0.393 OA
HETATM   30  H26 UNL     1      35.493   5.163  48.681  1.00  0.00     0.210 HD
ENDBRANCH  18  29
TORSDOF 3
ENDMDL
MODEL 6
REMARK VINA RESULT:      -7.1      2.645      6.098
REMARK  3 active torsions:
REMARK  status: ('A' for Active; 'I' for Inactive)
REMARK    1  A    between atoms: C5_6  and  O2_7 
REMARK    2  A    between atoms: C7_9  and  C8_10 
REMARK    3  A    between atoms: C22_25  and  O4_26 
ROOT
HETATM    1  O1  UNL     1      17.698   3.880  52.051  1.00  0.00    -0.292 OA
HETATM    2  C1  UNL     1      18.665   3.763  51.232  1.00  0.00     0.167 C 
HETATM    3  C2  UNL     1      19.205   4.729  50.239  1.00  0.00     0.148 C 
HETATM    4  C3  UNL     1      19.766   3.898  49.119  1.00  0.00     0.056 C 
HETATM    5  C4  UNL     1      19.524   2.607  48.966  1.00  0.00     0.070 C 
HETATM    6  C5  UNL     1      19.412   1.694  50.095  1.00  0.00     0.080 C 
HETATM    7  C6  UNL     1      19.639   2.734  50.882  1.00  0.00     0.055 C 
HETATM    8  C7  UNL     1      21.055   2.606  51.293  1.00  0.00     0.200 C 
HETATM    9  O3  UNL     1      21.490   3.757  52.050  1.00  0.00    -0.348 OA
HETATM   10  C14 UNL     1      22.845   3.829  52.362  1.00  0.00     0.132 C 
HETATM   11  C15 UNL     1      23.625   4.639  51.688  1.00  0.00    -0.003 C 
HETATM   12  C16 UNL     1      23.442   5.614  50.554  1.00  0.00     0.029 C 
HETATM   13  C17 UNL     1      23.965   6.949  50.941  1.00  0.00     0.004 C 
HETATM   14  C18 UNL     1      23.924   8.043  49.965  1.00  0.00     0.000 C 
HETATM   15  C19 UNL     1      22.682   8.681  49.549  1.00  0.00     0.000 C 
HETATM   16  C20 UNL     1      21.597   7.928  48.891  1.00  0.00     0.002 C 
HETATM   17  C21 UNL     1      22.083   7.208  47.668  1.00  0.00     0.034 C 
HETATM   18  C22 UNL     1      20.933   6.614  46.872  1.00  0.00     0.142 C 
HETATM   19  C23 UNL     1      19.966   5.879  47.721  1.00  0.00     0.207 C 
HETATM   20  O5  UNL     1      20.565   4.750  48.307  1.00  0.00    -0.352 OA
ENDROOT
BRANCH   8  21
HETATM   21  C8  UNL     1      21.269   1.436  52.192  1.00  0.00    -0.024 A 
HETATM   22  C9  UNL     1      22.192   0.463  51.867  1.00  0.00     0.010 A 
HETATM   23  C10 UNL     1      22.309  -0.584  52.778  1.00  0.00     0.001 A 
HETATM   24  C11 UNL     1      21.563  -0.662  53.934  1.00  0.00     0.000 A 
HETATM   25  C12 UNL     1      20.646   0.321  54.238  1.00  0.00     0.001 A 
HETATM   26  C13 UNL     1      20.518   1.366  53.347  1.00  0.00     0.010 A 
ENDBRANCH   8  21
BRANCH   6  27
HETATM   27  O2  UNL     1      19.156   0.351  49.863  1.00  0.00    -0.360 OA
HETATM   28  H4  UNL     1      19.279   0.048  48.898  1.00  0.00     0.217 HD
ENDBRANCH   6  27
BRANCH  18  29
HETATM   29  O4  UNL     1      21.429   5.846  45.832  1.00  0.00    -0.393 OA
HETATM   30  H26 UNL     1      21.209   4.895  46.074  1.00  0.00     0.210 HD
ENDBRANCH  18  29
TORSDOF 3
ENDMDL
MODEL 7
REMARK VINA RESULT:      -7.1      2.902      4.276
REMARK  3 active torsions:
REMARK  status: ('A' for Active; 'I' for Inactive)
REMARK    1  A    between atoms: C5_6  and  O2_7 
REMARK    2  A    between atoms: C7_9  and  C8_10 
REMARK    3  A    between atoms: C22_25  and  O4_26 
ROOT
HETATM    1  O1  UNL     1      22.383   4.799  46.201  1.00  0.00    -0.292 OA
HETATM    2  C1  UNL     1      22.114   4.939  47.437  1.00  0.00     0.167 C 
HETATM    3  C2  UNL     1      21.200   4.160  48.315  1.00  0.00     0.148 C 
HETATM    4  C3  UNL     1      20.711   5.126  49.358  1.00  0.00     0.056 C 
HETATM    5  C4  UNL     1      20.857   6.438  49.276  1.00  0.00     0.070 C 
HETATM    6  C5  UNL     1      22.050   7.058  48.717  1.00  0.00     0.080 C 
HETATM    7  C6  UNL     1      22.517   5.836  48.515  1.00  0.00     0.055 C 
HETATM    8  C7  UNL     1      23.497   5.613  49.602  1.00  0.00     0.200 C 
HETATM    9  O3  UNL     1      23.993   4.255  49.594  1.00  0.00    -0.348 OA
HETATM   10  C14 UNL     1      24.803   3.876  50.660  1.00  0.00     0.132 C 
HETATM   11  C15 UNL     1      24.310   3.128  51.618  1.00  0.00    -0.003 C 
HETATM   12  C16 UNL     1      22.972   2.502  51.912  1.00  0.00     0.029 C 
HETATM   13  C17 UNL     1      23.132   1.043  52.139  1.00  0.00     0.004 C 
HETATM   14  C18 UNL     1      21.954   0.240  52.484  1.00  0.00     0.000 C 
HETATM   15  C19 UNL     1      20.893  -0.053  51.529  1.00  0.00     0.000 C 
HETATM   16  C20 UNL     1      20.096   1.013  50.893  1.00  0.00     0.002 C 
HETATM   17  C21 UNL     1      19.455   1.910  51.910  1.00  0.00     0.034 C 
HETATM   18  C22 UNL     1      18.466   2.869  51.270  1.00  0.00     0.142 C 
HETATM   19  C23 UNL     1      19.010   3.536  50.063  1.00  0.00     0.207 C 
HETATM   20  O5  UNL     1      20.094   4.368  50.392  1.00  0.00    -0.352 OA
ENDROOT
BRANCH   8  21
HETATM   21  C8  UNL     1      24.702   6.477  49.450  1.00  0.00    -0.024 A 
HETATM   22  C9  UNL     1      25.102   7.308  50.476  1.00  0.00     0.010 A 
HETATM   23  C10 UNL     1      26.240   8.070  50.225  1.00  0.00     0.001 A 
HETATM   24  C11 UNL     1      26.937   8.012  49.037  1.00  0.00     0.000 A 
HETATM   25  C12 UNL     1      26.519   7.175  48.025  1.00  0.00     0.001 A 
HETATM   26  C13 UNL     1      25.393   6.413  48.258  1.00  0.00     0.010 A 
ENDBRANCH   8  21
BRANCH   6  27
HETATM   27  O2  UNL     1      22.136   8.440  48.659  1.00  0.00    -0.360 OA
HETATM   28  H4  UNL     1      22.958   8.803  48.178  1.00  0.00     0.217 HD
ENDBRANCH   6  27
BRANCH  18  29
HETATM   29  O4  UNL     1      18.000   3.766  52.216  1.00  0.00    -0.393 OA
HETATM   30  H26 UNL     1      17.201   3.322  52.635  1.00  0.00     0.210 HD
ENDBRANCH  18  29
TORSDOF 3
ENDMDL
MODEL 8
REMARK VINA RESULT:      -7.1      5.114      8.887
REMARK  3 active torsions:
REMARK  status: ('A' for Active; 'I' for Inactive)
REMARK    1  A    between atoms: C5_6  and  O2_7 
REMARK    2  A    between atoms: C7_9  and  C8_10 
REMARK    3  A    between atoms: C22_25  and  O4_26 
ROOT
HETATM    1  O1  UNL     1      22.960   8.125  50.632  1.00  0.00    -0.292 OA
HETATM    2  C1  UNL     1      23.470   7.598  49.592  1.00  0.00     0.167 C 
HETATM    3  C2  UNL     1      24.526   8.108  48.677  1.00  0.00     0.148 C 
HETATM    4  C3  UNL     1      24.219   7.519  47.328  1.00  0.00     0.056 C 
HETATM    5  C4  UNL     1      23.074   6.935  47.021  1.00  0.00     0.070 C 
HETATM    6  C5  UNL     1      22.339   6.109  47.969  1.00  0.00     0.080 C 
HETATM    7  C6  UNL     1      23.304   6.358  48.841  1.00  0.00     0.055 C 
HETATM    8  C7  UNL     1      24.133   5.133  48.861  1.00  0.00     0.200 C 
HETATM    9  O3  UNL     1      25.316   5.310  49.673  1.00  0.00    -0.348 OA
HETATM   10  C14 UNL     1      26.255   4.283  49.648  1.00  0.00     0.132 C 
HETATM   11  C15 UNL     1      27.356   4.425  48.951  1.00  0.00    -0.003 C 
HETATM   12  C16 UNL     1      27.947   5.505  48.081  1.00  0.00     0.029 C 
HETATM   13  C17 UNL     1      29.314   5.844  48.550  1.00  0.00     0.004 C 
HETATM   14  C18 UNL     1      30.093   6.848  47.816  1.00  0.00     0.000 C 
HETATM   15  C19 UNL     1      29.765   8.267  47.835  1.00  0.00     0.000 C 
HETATM   16  C20 UNL     1      28.469   8.778  47.347  1.00  0.00     0.002 C 
HETATM   17  C21 UNL     1      28.197   8.343  45.937  1.00  0.00     0.034 C 
HETATM   18  C22 UNL     1      26.976   9.042  45.361  1.00  0.00     0.142 C 
HETATM   19  C23 UNL     1      25.817   9.028  46.284  1.00  0.00     0.207 C 
HETATM   20  O5  UNL     1      25.360   7.717  46.502  1.00  0.00    -0.352 OA
ENDROOT
BRANCH   8  21
HETATM   21  C8  UNL     1      23.406   3.979  49.466  1.00  0.00    -0.024 A 
HETATM   22  C9  UNL     1      23.127   2.856  48.715  1.00  0.00     0.010 A 
HETATM   23  C10 UNL     1      22.444   1.841  49.380  1.00  0.00     0.001 A 
HETATM   24  C11 UNL     1      22.064   1.932  50.701  1.00  0.00     0.000 A 
HETATM   25  C12 UNL     1      22.352   3.064  51.433  1.00  0.00     0.001 A 
HETATM   26  C13 UNL     1      23.028   4.079  50.789  1.00  0.00     0.010 A 
ENDBRANCH   8  21
BRANCH   6  27
HETATM   27  O2  UNL     1      21.143   5.526  47.581  1.00  0.00    -0.360 OA
HETATM   28  H4  UNL     1      21.149   4.507  47.548  1.00  0.00     0.217 HD
ENDBRANCH   6  27
BRANCH  18  29
HETATM   29  O4  UNL     1      26.679   8.516  44.115  1.00  0.00    -0.393 OA
HETATM   30  H26 UNL     1      25.922   7.872  44.270  1.00  0.00     0.210 HD
ENDBRANCH  18  29
TORSDOF 3
ENDMDL
MODEL 9
REMARK VINA RESULT:      -7.1      6.019      7.870
REMARK  3 active torsions:
REMARK  status: ('A' for Active; 'I' for Inactive)
REMARK    1  A    between atoms: C5_6  and  O2_7 
REMARK    2  A    between atoms: C7_9  and  C8_10 
REMARK    3  A    between atoms: C22_25  and  O4_26 
ROOT
HETATM    1  O1  UNL     1      25.680   9.028  45.192  1.00  0.00    -0.292 OA
HETATM    2  C1  UNL     1      25.608   8.768  46.436  1.00  0.00     0.167 C 
HETATM    3  C2  UNL     1      24.545   8.076  47.212  1.00  0.00     0.148 C 
HETATM    4  C3  UNL     1      24.588   8.673  48.591  1.00  0.00     0.056 C 
HETATM    5  C4  UNL     1      25.242   9.782  48.895  1.00  0.00     0.070 C 
HETATM    6  C5  UNL     1      26.524  10.121  48.296  1.00  0.00     0.080 C 
HETATM    7  C6  UNL     1      26.439   8.989  47.615  1.00  0.00     0.055 C 
HETATM    8  C7  UNL     1      27.343   8.049  48.314  1.00  0.00     0.200 C 
HETATM    9  O3  UNL     1      27.247   6.717  47.761  1.00  0.00    -0.348 OA
HETATM   10  C14 UNL     1      27.932   5.707  48.431  1.00  0.00     0.132 C 
HETATM   11  C15 UNL     1      27.272   4.867  49.192  1.00  0.00    -0.003 C 
HETATM   12  C16 UNL     1      25.828   4.673  49.579  1.00  0.00     0.029 C 
HETATM   13  C17 UNL     1      25.407   3.279  49.290  1.00  0.00     0.004 C 
HETATM   14  C18 UNL     1      24.044   2.858  49.631  1.00  0.00     0.000 C 
HETATM   15  C19 UNL     1      22.870   3.333  48.910  1.00  0.00     0.000 C 
HETATM   16  C20 UNL     1      22.515   4.764  48.849  1.00  0.00     0.002 C 
HETATM   17  C21 UNL     1      22.389   5.364  50.218  1.00  0.00     0.034 C 
HETATM   18  C22 UNL     1      21.815   6.770  50.164  1.00  0.00     0.142 C 
HETATM   19  C23 UNL     1      22.465   7.618  49.137  1.00  0.00     0.207 C 
HETATM   20  O5  UNL     1      23.818   7.838  49.447  1.00  0.00    -0.352 OA
ENDROOT
BRANCH   8  21
HETATM   21  C8  UNL     1      28.774   8.438  48.163  1.00  0.00    -0.024 A 
HETATM   22  C9  UNL     1      29.515   8.822  49.262  1.00  0.00     0.010 A 
HETATM   23  C10 UNL     1      30.840   9.165  49.005  1.00  0.00     0.001 A 
HETATM   24  C11 UNL     1      31.395   9.129  47.744  1.00  0.00     0.000 A 
HETATM   25  C12 UNL     1      30.636   8.743  46.660  1.00  0.00     0.001 A 
HETATM   26  C13 UNL     1      29.321   8.400  46.897  1.00  0.00     0.010 A 
ENDBRANCH   8  21
BRANCH   6  27
HETATM   27  O2  UNL     1      27.155  11.301  48.659  1.00  0.00    -0.360 OA
HETATM   28  H4  UNL     1      26.778  12.144  48.227  1.00  0.00     0.217 HD
ENDBRANCH   6  27
BRANCH  18  29
HETATM   29  O4  UNL     1      21.841   7.337  51.426  1.00  0.00    -0.393 OA
HETATM   30  H26 UNL     1      22.813   7.373  51.683  1.00  0.00     0.210 HD
ENDBRANCH  18  29
TORSDOF 3
ENDMDL
