MODEL 1
REMARK VINA RESULT:      -8.7      0.000      0.000
REMARK  4 active torsions:
REMARK  status: ('A' for Active; 'I' for Inactive)
REMARK    1  A    between atoms: C2_2  and  C3_3 
REMARK    2  A    between atoms: C3_3  and  N1_4 
REMARK    3  A    between atoms: C3_3  and  C13_19 
REMARK    4  A    between atoms: N1_4  and  C4_5 
ROOT
HETATM    1  C4  UNL     1      23.905  -0.197  53.741  1.00  0.00     0.139 A 
HETATM    2  N2  UNL     1      24.082  -0.869  54.851  1.00  0.00    -0.224 NA
HETATM    3  C5  UNL     1      23.219  -1.481  55.604  1.00  0.00     0.236 A 
HETATM    4  N3  UNL     1      21.979  -1.400  55.164  1.00  0.00    -0.234 NA
HETATM    5  C6  UNL     1      21.702  -0.726  54.027  1.00  0.00     0.114 A 
HETATM    6  S1  UNL     1      20.119  -0.406  53.095  1.00  0.00    -0.072 SA
HETATM    7  C7  UNL     1      20.934   0.591  51.722  1.00  0.00     0.007 A 
HETATM    8  C8  UNL     1      22.297   0.585  52.097  1.00  0.00    -0.026 A 
HETATM    9  C9  UNL     1      22.651  -0.065  53.221  1.00  0.00     0.053 A 
HETATM   10  C10 UNL     1      22.969   1.414  51.087  1.00  0.00     0.057 C 
HETATM   11  C11 UNL     1      22.008   2.299  50.333  1.00  0.00     0.131 C 
HETATM   12  N4  UNL     1      21.006   1.641  49.568  1.00  0.00    -0.149 NA
HETATM   13  F1  UNL     1      21.558   0.538  48.997  1.00  0.00    -0.133 F 
HETATM   14  C12 UNL     1      20.101   1.104  50.622  1.00  0.00     0.172 C 
ENDROOT
BRANCH   1  15
HETATM   15  N1  UNL     1      25.143   0.234  53.208  1.00  0.00    -0.365 N 
HETATM   16  H7  UNL     1      25.089   0.018  52.221  1.00  0.00     0.162 HD
BRANCH  15  17
HETATM   17  C3  UNL     1      26.431   0.783  53.395  1.00  0.00     0.116 C 
BRANCH  17  18
HETATM   18  C2  UNL     1      26.802   1.979  52.583  1.00  0.00     0.025 C 
HETATM   19  C1  UNL     1      26.586   1.863  51.107  1.00  0.00     0.007 C 
ENDBRANCH  17  18
BRANCH  17  20
HETATM   20  C13 UNL     1      27.562  -0.190  53.362  1.00  0.00    -0.036 A 
HETATM   21  C14 UNL     1      28.877   0.015  53.713  1.00  0.00     0.009 A 
HETATM   22  C15 UNL     1      29.866  -0.920  53.665  1.00  0.00     0.001 A 
HETATM   23  C16 UNL     1      29.571  -2.191  53.234  1.00  0.00     0.000 A 
HETATM   24  C17 UNL     1      28.299  -2.515  52.858  1.00  0.00     0.001 A 
HETATM   25  C18 UNL     1      27.358  -1.513  52.936  1.00  0.00     0.009 A 
ENDBRANCH  17  20
ENDBRANCH  15  17
ENDBRANCH   1  15
TORSDOF 4
ENDMDL
MODEL 2
REMARK VINA RESULT:      -8.6      2.427      4.074
REMARK  4 active torsions:
REMARK  status: ('A' for Active; 'I' for Inactive)
REMARK    1  A    between atoms: C2_2  and  C3_3 
REMARK    2  A    between atoms: C3_3  and  N1_4 
REMARK    3  A    between atoms: C3_3  and  C13_19 
REMARK    4  A    between atoms: N1_4  and  C4_5 
ROOT
HETATM    1  C4  UNL     1      23.730   3.468  51.958  1.00  0.00     0.139 A 
HETATM    2  N2  UNL     1      23.695   4.693  51.496  1.00  0.00    -0.224 NA
HETATM    3  C5  UNL     1      22.679   5.461  51.241  1.00  0.00     0.236 A 
HETATM    4  N3  UNL     1      21.514   4.901  51.494  1.00  0.00    -0.234 NA
HETATM    5  C6  UNL     1      21.453   3.640  51.972  1.00  0.00     0.114 A 
HETATM    6  S1  UNL     1      20.032   2.533  52.457  1.00  0.00    -0.072 SA
HETATM    7  C7  UNL     1      21.118   1.083  52.966  1.00  0.00     0.007 A 
HETATM    8  C8  UNL     1      22.424   1.568  52.723  1.00  0.00    -0.026 A 
HETATM    9  C9  UNL     1      22.565   2.818  52.243  1.00  0.00     0.053 A 
HETATM   10  C10 UNL     1      23.311   0.440  53.042  1.00  0.00     0.057 C 
HETATM   11  C11 UNL     1      22.581  -0.880  53.064  1.00  0.00     0.131 C 
HETATM   12  N4  UNL     1      21.551  -1.020  54.034  1.00  0.00    -0.149 NA
HETATM   13  F1  UNL     1      21.954  -0.408  55.179  1.00  0.00    -0.133 F 
HETATM   14  C12 UNL     1      20.482  -0.135  53.493  1.00  0.00     0.172 C 
ENDROOT
BRANCH   1  15
HETATM   15  N1  UNL     1      25.064   3.043  52.163  1.00  0.00    -0.365 N 
HETATM   16  H7  UNL     1      25.164   2.982  53.168  1.00  0.00     0.162 HD
BRANCH  15  17
HETATM   17  C3  UNL     1      26.332   2.700  51.644  1.00  0.00     0.116 C 
BRANCH  17  18
HETATM   18  C2  UNL     1      26.478   2.619  50.161  1.00  0.00     0.025 C 
HETATM   19  C1  UNL     1      26.661   3.921  49.447  1.00  0.00     0.007 C 
ENDBRANCH  17  18
BRANCH  17  20
HETATM   20  C13 UNL     1      26.982   1.504  52.258  1.00  0.00    -0.036 A 
HETATM   21  C14 UNL     1      26.683   0.175  52.062  1.00  0.00     0.009 A 
HETATM   22  C15 UNL     1      27.319  -0.876  52.650  1.00  0.00     0.001 A 
HETATM   23  C16 UNL     1      28.355  -0.635  53.522  1.00  0.00     0.000 A 
HETATM   24  C17 UNL     1      28.743   0.646  53.796  1.00  0.00     0.001 A 
HETATM   25  C18 UNL     1      28.048   1.651  53.160  1.00  0.00     0.009 A 
ENDBRANCH  17  20
ENDBRANCH  15  17
ENDBRANCH   1  15
TORSDOF 4
ENDMDL
MODEL 3
REMARK VINA RESULT:      -8.4      3.111      5.838
REMARK  4 active torsions:
REMARK  status: ('A' for Active; 'I' for Inactive)
REMARK    1  A    between atoms: C2_2  and  C3_3 
REMARK    2  A    between atoms: C3_3  and  N1_4 
REMARK    3  A    between atoms: C3_3  and  C13_19 
REMARK    4  A    between atoms: N1_4  and  C4_5 
ROOT
HETATM    1  C4  UNL     1      26.343   2.025  52.172  1.00  0.00     0.139 A 
HETATM    2  N2  UNL     1      27.584   2.428  52.288  1.00  0.00    -0.224 NA
HETATM    3  C5  UNL     1      28.470   2.151  53.196  1.00  0.00     0.236 A 
HETATM    4  N3  UNL     1      28.032   1.337  54.135  1.00  0.00    -0.234 NA
HETATM    5  C6  UNL     1      26.765   0.871  54.097  1.00  0.00     0.114 A 
HETATM    6  S1  UNL     1      25.802  -0.280  55.204  1.00  0.00    -0.072 SA
HETATM    7  C7  UNL     1      24.219  -0.199  54.189  1.00  0.00     0.007 A 
HETATM    8  C8  UNL     1      24.567   0.675  53.133  1.00  0.00    -0.026 A 
HETATM    9  C9  UNL     1      25.814   1.182  53.105  1.00  0.00     0.053 A 
HETATM   10  C10 UNL     1      23.335   0.826  52.347  1.00  0.00     0.057 C 
HETATM   11  C11 UNL     1      22.104   0.418  53.117  1.00  0.00     0.131 C 
HETATM   12  N4  UNL     1      22.035  -0.940  53.532  1.00  0.00    -0.149 NA
HETATM   13  F1  UNL     1      22.547  -1.717  52.540  1.00  0.00    -0.133 F 
HETATM   14  C12 UNL     1      23.056  -0.995  54.614  1.00  0.00     0.172 C 
ENDROOT
BRANCH   1  15
HETATM   15  N1  UNL     1      25.764   2.511  50.975  1.00  0.00    -0.365 N 
HETATM   16  H7  UNL     1      26.029   1.838  50.268  1.00  0.00     0.162 HD
BRANCH  15  17
HETATM   17  C3  UNL     1      25.028   3.500  50.286  1.00  0.00     0.116 C 
BRANCH  17  18
HETATM   18  C2  UNL     1      23.925   3.047  49.389  1.00  0.00     0.025 C 
HETATM   19  C1  UNL     1      22.543   3.463  49.787  1.00  0.00     0.007 C 
ENDBRANCH  17  18
BRANCH  17  20
HETATM   20  C13 UNL     1      25.839   4.529  49.570  1.00  0.00    -0.036 A 
HETATM   21  C14 UNL     1      25.480   5.813  49.227  1.00  0.00     0.009 A 
HETATM   22  C15 UNL     1      26.270   6.710  48.576  1.00  0.00     0.001 A 
HETATM   23  C16 UNL     1      27.544   6.345  48.209  1.00  0.00     0.000 A 
HETATM   24  C17 UNL     1      28.013   5.094  48.495  1.00  0.00     0.001 A 
HETATM   25  C18 UNL     1      27.151   4.248  49.156  1.00  0.00     0.009 A 
ENDBRANCH  17  20
ENDBRANCH  15  17
ENDBRANCH   1  15
TORSDOF 4
ENDMDL
MODEL 4
REMARK VINA RESULT:      -8.0      2.045      3.632
REMARK  4 active torsions:
REMARK  status: ('A' for Active; 'I' for Inactive)
REMARK    1  A    between atoms: C2_2  and  C3_3 
REMARK    2  A    between atoms: C3_3  and  N1_4 
REMARK    3  A    between atoms: C3_3  and  C13_19 
REMARK    4  A    between atoms: N1_4  and  C4_5 
ROOT
HETATM    1  C4  UNL     1      25.048   1.891  52.076  1.00  0.00     0.139 A 
HETATM    2  N2  UNL     1      25.651   2.701  51.242  1.00  0.00    -0.224 NA
HETATM    3  C5  UNL     1      25.190   3.319  50.197  1.00  0.00     0.236 A 
HETATM    4  N3  UNL     1      23.917   3.079  49.957  1.00  0.00    -0.234 NA
HETATM    5  C6  UNL     1      23.215   2.256  50.764  1.00  0.00     0.114 A 
HETATM    6  S1  UNL     1      21.436   1.692  50.766  1.00  0.00    -0.072 SA
HETATM    7  C7  UNL     1      21.605   0.617  52.301  1.00  0.00     0.007 A 
HETATM    8  C8  UNL     1      22.964   0.785  52.654  1.00  0.00    -0.026 A 
HETATM    9  C9  UNL     1      23.730   1.591  51.895  1.00  0.00     0.053 A 
HETATM   10  C10 UNL     1      23.163  -0.095  53.814  1.00  0.00     0.057 C 
HETATM   11  C11 UNL     1      22.084  -1.142  53.938  1.00  0.00     0.131 C 
HETATM   12  N4  UNL     1      20.759  -0.668  54.141  1.00  0.00    -0.149 NA
HETATM   13  F1  UNL     1      20.811   0.406  54.974  1.00  0.00    -0.133 F 
HETATM   14  C12 UNL     1      20.420  -0.092  52.810  1.00  0.00     0.172 C 
ENDROOT
BRANCH   1  15
HETATM   15  N1  UNL     1      25.915   1.510  53.128  1.00  0.00    -0.365 N 
HETATM   16  H7  UNL     1      25.310   1.385  53.929  1.00  0.00     0.162 HD
BRANCH  15  17
HETATM   17  C3  UNL     1      27.220   1.259  53.607  1.00  0.00     0.116 C 
BRANCH  17  18
HETATM   18  C2  UNL     1      28.289   2.242  53.264  1.00  0.00     0.025 C 
HETATM   19  C1  UNL     1      29.412   2.361  54.246  1.00  0.00     0.007 C 
ENDBRANCH  17  18
BRANCH  17  20
HETATM   20  C13 UNL     1      27.741  -0.120  53.373  1.00  0.00    -0.036 A 
HETATM   21  C14 UNL     1      28.997  -0.615  53.640  1.00  0.00     0.009 A 
HETATM   22  C15 UNL     1      29.413  -1.891  53.407  1.00  0.00     0.001 A 
HETATM   23  C16 UNL     1      28.536  -2.796  52.859  1.00  0.00     0.000 A 
HETATM   24  C17 UNL     1      27.259  -2.421  52.550  1.00  0.00     0.001 A 
HETATM   25  C18 UNL     1      26.919  -1.114  52.816  1.00  0.00     0.009 A 
ENDBRANCH  17  20
ENDBRANCH  15  17
ENDBRANCH   1  15
TORSDOF 4
ENDMDL
MODEL 5
REMARK VINA RESULT:      -7.9      2.817      5.786
REMARK  4 active torsions:
REMARK  status: ('A' for Active; 'I' for Inactive)
REMARK    1  A    between atoms: C2_2  and  C3_3 
REMARK    2  A    between atoms: C3_3  and  N1_4 
REMARK    3  A    between atoms: C3_3  and  C13_19 
REMARK    4  A    between atoms: N1_4  and  C4_5 
ROOT
HETATM    1  C4  UNL     1      22.090   1.757  51.728  1.00  0.00     0.139 A 
HETATM    2  N2  UNL     1      20.792   1.886  51.607  1.00  0.00    -0.224 NA
HETATM    3  C5  UNL     1      19.830   1.284  52.237  1.00  0.00     0.236 A 
HETATM    4  N3  UNL     1      20.245   0.412  53.133  1.00  0.00    -0.234 NA
HETATM    5  C6  UNL     1      21.567   0.212  53.326  1.00  0.00     0.114 A 
HETATM    6  S1  UNL     1      22.528  -0.895  54.481  1.00  0.00    -0.072 SA
HETATM    7  C7  UNL     1      24.219  -0.330  53.880  1.00  0.00     0.007 A 
HETATM    8  C8  UNL     1      23.899   0.621  52.884  1.00  0.00    -0.026 A 
HETATM    9  C9  UNL     1      22.600   0.873  52.633  1.00  0.00     0.053 A 
HETATM   10  C10 UNL     1      25.194   1.043  52.334  1.00  0.00     0.057 C 
HETATM   11  C11 UNL     1      26.302   0.070  52.653  1.00  0.00     0.131 C 
HETATM   12  N4  UNL     1      26.604  -0.121  54.029  1.00  0.00    -0.149 NA
HETATM   13  F1  UNL     1      26.506   1.080  54.659  1.00  0.00    -0.133 F 
HETATM   14  C12 UNL     1      25.425  -0.893  54.510  1.00  0.00     0.172 C 
ENDROOT
BRANCH   1  15
HETATM   15  N1  UNL     1      22.769   2.677  50.896  1.00  0.00    -0.365 N 
HETATM   16  H7  UNL     1      23.350   3.216  51.525  1.00  0.00     0.162 HD
BRANCH  15  17
HETATM   17  C3  UNL     1      23.000   3.231  49.617  1.00  0.00     0.116 C 
BRANCH  17  18
HETATM   18  C2  UNL     1      22.671   2.393  48.426  1.00  0.00     0.025 C 
HETATM   19  C1  UNL     1      21.234   2.387  48.005  1.00  0.00     0.007 C 
ENDBRANCH  17  18
BRANCH  17  20
HETATM   20  C13 UNL     1      24.342   3.850  49.411  1.00  0.00    -0.036 A 
HETATM   21  C14 UNL     1      25.583   3.275  49.568  1.00  0.00     0.009 A 
HETATM   22  C15 UNL     1      26.777   3.894  49.359  1.00  0.00     0.001 A 
HETATM   23  C16 UNL     1      26.793   5.208  48.957  1.00  0.00     0.000 A 
HETATM   24  C17 UNL     1      25.623   5.887  48.767  1.00  0.00     0.001 A 
HETATM   25  C18 UNL     1      24.460   5.189  49.000  1.00  0.00     0.009 A 
ENDBRANCH  17  20
ENDBRANCH  15  17
ENDBRANCH   1  15
TORSDOF 4
ENDMDL
MODEL 6
REMARK VINA RESULT:      -7.8      2.254      3.836
REMARK  4 active torsions:
REMARK  status: ('A' for Active; 'I' for Inactive)
REMARK    1  A    between atoms: C2_2  and  C3_3 
REMARK    2  A    between atoms: C3_3  and  N1_4 
REMARK    3  A    between atoms: C3_3  and  C13_19 
REMARK    4  A    between atoms: N1_4  and  C4_5 
ROOT
HETATM    1  C4  UNL     1      25.184   1.464  51.521  1.00  0.00     0.139 A 
HETATM    2  N2  UNL     1      26.310   2.038  51.178  1.00  0.00    -0.224 NA
HETATM    3  C5  UNL     1      26.527   3.208  50.657  1.00  0.00     0.236 A 
HETATM    4  N3  UNL     1      25.430   3.908  50.450  1.00  0.00    -0.234 NA
HETATM    5  C6  UNL     1      24.223   3.395  50.772  1.00  0.00     0.114 A 
HETATM    6  S1  UNL     1      22.486   4.063  50.649  1.00  0.00    -0.072 SA
HETATM    7  C7  UNL     1      21.668   2.531  51.375  1.00  0.00     0.007 A 
HETATM    8  C8  UNL     1      22.767   1.681  51.633  1.00  0.00    -0.026 A 
HETATM    9  C9  UNL     1      24.004   2.122  51.336  1.00  0.00     0.053 A 
HETATM   10  C10 UNL     1      22.171   0.437  52.140  1.00  0.00     0.057 C 
HETATM   11  C11 UNL     1      20.706   0.319  51.802  1.00  0.00     0.131 C 
HETATM   12  N4  UNL     1      19.846   1.312  52.347  1.00  0.00    -0.149 NA
HETATM   13  F1  UNL     1      20.267   1.598  53.608  1.00  0.00    -0.133 F 
HETATM   14  C12 UNL     1      20.206   2.517  51.550  1.00  0.00     0.172 C 
ENDROOT
BRANCH   1  15
HETATM   15  N1  UNL     1      25.422   0.210  52.132  1.00  0.00    -0.365 N 
HETATM   16  H7  UNL     1      25.109  -0.472  51.454  1.00  0.00     0.162 HD
BRANCH  15  17
HETATM   17  C3  UNL     1      25.849  -0.547  53.246  1.00  0.00     0.116 C 
BRANCH  17  18
HETATM   18  C2  UNL     1      25.314  -0.172  54.588  1.00  0.00     0.025 C 
HETATM   19  C1  UNL     1      24.440  -1.189  55.253  1.00  0.00     0.007 C 
ENDBRANCH  17  18
BRANCH  17  20
HETATM   20  C13 UNL     1      27.322  -0.760  53.358  1.00  0.00    -0.036 A 
HETATM   21  C14 UNL     1      28.042  -1.905  53.104  1.00  0.00     0.009 A 
HETATM   22  C15 UNL     1      29.393  -2.035  53.220  1.00  0.00     0.001 A 
HETATM   23  C16 UNL     1      30.142  -0.955  53.623  1.00  0.00     0.000 A 
HETATM   24  C17 UNL     1      29.539   0.237  53.905  1.00  0.00     0.001 A 
HETATM   25  C18 UNL     1      28.170   0.285  53.763  1.00  0.00     0.009 A 
ENDBRANCH  17  20
ENDBRANCH  15  17
ENDBRANCH   1  15
TORSDOF 4
ENDMDL
MODEL 7
REMARK VINA RESULT:      -7.7      2.670      6.643
REMARK  4 active torsions:
REMARK  status: ('A' for Active; 'I' for Inactive)
REMARK    1  A    between atoms: C2_2  and  C3_3 
REMARK    2  A    between atoms: C3_3  and  N1_4 
REMARK    3  A    between atoms: C3_3  and  C13_19 
REMARK    4  A    between atoms: N1_4  and  C4_5 
ROOT
HETATM    1  C4  UNL     1      24.456   1.720  51.743  1.00  0.00     0.139 A 
HETATM    2  N2  UNL     1      25.552   2.220  51.229  1.00  0.00    -0.224 NA
HETATM    3  C5  UNL     1      26.794   2.023  51.556  1.00  0.00     0.236 A 
HETATM    4  N3  UNL     1      26.952   1.188  52.562  1.00  0.00    -0.234 NA
HETATM    5  C6  UNL     1      25.878   0.625  53.155  1.00  0.00     0.114 A 
HETATM    6  S1  UNL     1      25.694  -0.587  54.562  1.00  0.00    -0.072 SA
HETATM    7  C7  UNL     1      23.814  -0.641  54.488  1.00  0.00     0.007 A 
HETATM    8  C8  UNL     1      23.515   0.246  53.429  1.00  0.00    -0.026 A 
HETATM    9  C9  UNL     1      24.535   0.849  52.790  1.00  0.00     0.053 A 
HETATM   10  C10 UNL     1      22.048   0.291  53.377  1.00  0.00     0.057 C 
HETATM   11  C11 UNL     1      21.409  -0.203  54.651  1.00  0.00     0.131 C 
HETATM   12  N4  UNL     1      21.659  -1.558  55.003  1.00  0.00    -0.149 NA
HETATM   13  F1  UNL     1      21.654  -2.304  53.865  1.00  0.00    -0.133 F 
HETATM   14  C12 UNL     1      23.088  -1.521  55.419  1.00  0.00     0.172 C 
ENDROOT
BRANCH   1  15
HETATM   15  N1  UNL     1      23.318   2.146  51.018  1.00  0.00    -0.365 N 
HETATM   16  H7  UNL     1      22.997   2.973  51.504  1.00  0.00     0.162 HD
BRANCH  15  17
HETATM   17  C3  UNL     1      22.394   1.952  49.968  1.00  0.00     0.116 C 
BRANCH  17  18
HETATM   18  C2  UNL     1      22.488   2.855  48.783  1.00  0.00     0.025 C 
HETATM   19  C1  UNL     1      22.414   2.191  47.444  1.00  0.00     0.007 C 
ENDBRANCH  17  18
BRANCH  17  20
HETATM   20  C13 UNL     1      20.962   1.844  50.377  1.00  0.00    -0.036 A 
HETATM   21  C14 UNL     1      20.057   0.855  50.064  1.00  0.00     0.009 A 
HETATM   22  C15 UNL     1      18.759   0.809  50.474  1.00  0.00     0.001 A 
HETATM   23  C16 UNL     1      18.268   1.816  51.271  1.00  0.00     0.000 A 
HETATM   24  C17 UNL     1      19.073   2.853  51.648  1.00  0.00     0.001 A 
HETATM   25  C18 UNL     1      20.372   2.825  51.191  1.00  0.00     0.009 A 
ENDBRANCH  17  20
ENDBRANCH  15  17
ENDBRANCH   1  15
TORSDOF 4
ENDMDL
MODEL 8
REMARK VINA RESULT:      -7.6      2.830      5.240
REMARK  4 active torsions:
REMARK  status: ('A' for Active; 'I' for Inactive)
REMARK    1  A    between atoms: C2_2  and  C3_3 
REMARK    2  A    between atoms: C3_3  and  N1_4 
REMARK    3  A    between atoms: C3_3  and  C13_19 
REMARK    4  A    between atoms: N1_4  and  C4_5 
ROOT
HETATM    1  C4  UNL     1      24.400   2.175  52.027  1.00  0.00     0.139 A 
HETATM    2  N2  UNL     1      25.697   2.100  52.188  1.00  0.00    -0.224 NA
HETATM    3  C5  UNL     1      26.408   1.237  52.848  1.00  0.00     0.236 A 
HETATM    4  N3  UNL     1      25.694   0.301  53.439  1.00  0.00    -0.234 NA
HETATM    5  C6  UNL     1      24.348   0.299  53.328  1.00  0.00     0.114 A 
HETATM    6  S1  UNL     1      23.021  -0.835  53.986  1.00  0.00    -0.072 SA
HETATM    7  C7  UNL     1      21.593   0.114  53.209  1.00  0.00     0.007 A 
HETATM    8  C8  UNL     1      22.247   1.175  52.542  1.00  0.00    -0.026 A 
HETATM    9  C9  UNL     1      23.590   1.245  52.609  1.00  0.00     0.053 A 
HETATM   10  C10 UNL     1      21.163   1.988  51.973  1.00  0.00     0.057 C 
HETATM   11  C11 UNL     1      19.831   1.713  52.626  1.00  0.00     0.131 C 
HETATM   12  N4  UNL     1      19.320   0.393  52.497  1.00  0.00    -0.149 NA
HETATM   13  F1  UNL     1      19.608  -0.057  51.246  1.00  0.00    -0.133 F 
HETATM   14  C12 UNL     1      20.221  -0.386  53.391  1.00  0.00     0.172 C 
ENDROOT
BRANCH   1  15
HETATM   15  N1  UNL     1      24.060   3.238  51.156  1.00  0.00    -0.365 N 
HETATM   16  H7  UNL     1      23.645   3.940  51.755  1.00  0.00     0.162 HD
BRANCH  15  17
HETATM   17  C3  UNL     1      23.985   3.774  49.851  1.00  0.00     0.116 C 
BRANCH  17  18
HETATM   18  C2  UNL     1      23.477   2.888  48.763  1.00  0.00     0.025 C 
HETATM   19  C1  UNL     1      22.004   2.618  48.770  1.00  0.00     0.007 C 
ENDBRANCH  17  18
BRANCH  17  20
HETATM   20  C13 UNL     1      25.211   4.474  49.368  1.00  0.00    -0.036 A 
HETATM   21  C14 UNL     1      26.486   3.974  49.239  1.00  0.00     0.009 A 
HETATM   22  C15 UNL     1      27.568   4.665  48.784  1.00  0.00     0.001 A 
HETATM   23  C16 UNL     1      27.419   5.980  48.411  1.00  0.00     0.000 A 
HETATM   24  C17 UNL     1      26.199   6.588  48.495  1.00  0.00     0.001 A 
HETATM   25  C18 UNL     1      25.157   5.819  48.964  1.00  0.00     0.009 A 
ENDBRANCH  17  20
ENDBRANCH  15  17
ENDBRANCH   1  15
TORSDOF 4
ENDMDL
MODEL 9
REMARK VINA RESULT:      -7.5      3.488      6.031
REMARK  4 active torsions:
REMARK  status: ('A' for Active; 'I' for Inactive)
REMARK    1  A    between atoms: C2_2  and  C3_3 
REMARK    2  A    between atoms: C3_3  and  N1_4 
REMARK    3  A    between atoms: C3_3  and  C13_19 
REMARK    4  A    between atoms: N1_4  and  C4_5 
ROOT
HETATM    1  C4  UNL     1      22.848   2.191  50.003  1.00  0.00     0.139 A 
HETATM    2  N2  UNL     1      21.914   1.308  49.747  1.00  0.00    -0.224 NA
HETATM    3  C5  UNL     1      20.996   1.305  48.829  1.00  0.00     0.236 A 
HETATM    4  N3  UNL     1      21.026   2.362  48.044  1.00  0.00    -0.234 NA
HETATM    5  C6  UNL     1      21.954   3.324  48.233  1.00  0.00     0.114 A 
HETATM    6  S1  UNL     1      22.324   4.924  47.346  1.00  0.00    -0.072 SA
HETATM    7  C7  UNL     1      23.777   5.390  48.447  1.00  0.00     0.007 A 
HETATM    8  C8  UNL     1      23.839   4.313  49.360  1.00  0.00    -0.026 A 
HETATM    9  C9  UNL     1      22.944   3.315  49.236  1.00  0.00     0.053 A 
HETATM   10  C10 UNL     1      24.922   4.667  50.288  1.00  0.00     0.057 C 
HETATM   11  C11 UNL     1      25.258   6.137  50.250  1.00  0.00     0.131 C 
HETATM   12  N4  UNL     1      25.740   6.646  49.013  1.00  0.00    -0.149 NA
HETATM   13  F1  UNL     1      26.555   5.713  48.454  1.00  0.00    -0.133 F 
HETATM   14  C12 UNL     1      24.517   6.632  48.164  1.00  0.00     0.172 C 
ENDROOT
BRANCH   1  15
HETATM   15  N1  UNL     1      23.689   1.748  51.051  1.00  0.00    -0.365 N 
HETATM   16  H7  UNL     1      24.386   1.172  50.597  1.00  0.00     0.162 HD
BRANCH  15  17
HETATM   17  C3  UNL     1      24.002   1.691  52.427  1.00  0.00     0.116 C 
BRANCH  17  18
HETATM   18  C2  UNL     1      25.438   1.546  52.808  1.00  0.00     0.025 C 
HETATM   19  C1  UNL     1      26.391   1.278  51.686  1.00  0.00     0.007 C 
ENDBRANCH  17  18
BRANCH  17  20
HETATM   20  C13 UNL     1      23.191   0.735  53.237  1.00  0.00    -0.036 A 
HETATM   21  C14 UNL     1      23.620  -0.368  53.939  1.00  0.00     0.009 A 
HETATM   22  C15 UNL     1      22.827  -1.202  54.667  1.00  0.00     0.001 A 
HETATM   23  C16 UNL     1      21.475  -0.959  54.734  1.00  0.00     0.000 A 
HETATM   24  C17 UNL     1      20.932   0.108  54.078  1.00  0.00     0.001 A 
HETATM   25  C18 UNL     1      21.802   0.902  53.364  1.00  0.00     0.009 A 
ENDBRANCH  17  20
ENDBRANCH  15  17
ENDBRANCH   1  15
TORSDOF 4
ENDMDL
