MODEL 1
REMARK VINA RESULT:      -9.0      0.000      0.000
REMARK  6 active torsions:
REMARK  status: ('A' for Active; 'I' for Inactive)
REMARK    1  A    between atoms: C2_2  and  C3_3 
REMARK    2  A    between atoms: C3_3  and  C4_4 
REMARK    3  A    between atoms: C4_4  and  C5_5 
REMARK    4  A    between atoms: C5_5  and  C6_6 
REMARK    5  A    between atoms: C12_15  and  C13_16 
REMARK    6  A    between atoms: C23_27  and  O3_28 
ROOT
HETATM    1  C3  UNL     1      25.947   0.535  52.828  1.00  0.00     0.079 A 
HETATM    2  N1  UNL     1      24.771  -0.252  53.308  1.00  0.00    -0.374 N 
HETATM    3  C7  UNL     1      23.523   0.177  52.774  1.00  0.00     0.040 A 
HETATM    4  C8  UNL     1      22.426  -0.447  53.139  1.00  0.00     0.003 A 
HETATM    5  C9  UNL     1      21.075  -0.167  52.710  1.00  0.00     0.001 A 
HETATM    6  C10 UNL     1      20.454   0.672  51.836  1.00  0.00     0.015 A 
HETATM    7  C11 UNL     1      19.103   0.765  51.593  1.00  0.00     0.013 A 
HETATM    8  C12 UNL     1      18.281  -0.069  52.298  1.00  0.00    -0.027 A 
HETATM    9  C18 UNL     1      18.811  -0.958  53.209  1.00  0.00     0.042 A 
HETATM   10  C19 UNL     1      20.174  -0.978  53.383  1.00  0.00     0.040 A 
HETATM   11  N2  UNL     1      20.913  -1.809  54.250  1.00  0.00    -0.381 N 
HETATM   12  C20 UNL     1      22.323  -1.575  54.097  1.00  0.00     0.114 A 
HETATM   13  C21 UNL     1      22.923  -1.056  55.413  1.00  0.00     0.037 C 
HETATM   14  C22 UNL     1      23.950   1.275  51.930  1.00  0.00     0.064 A 
HETATM   15  C23 UNL     1      25.258   1.484  51.949  1.00  0.00     0.073 A 
HETATM   16  H11 UNL     1      25.026  -1.016  53.974  1.00  0.00     0.161 HD
HETATM   17  H20 UNL     1      20.707  -2.537  54.962  1.00  0.00     0.160 HD
ENDROOT
BRANCH   1  18
HETATM   18  C2  UNL     1      26.489   1.163  54.073  1.00  0.00     0.033 C 
HETATM   19  C1  UNL     1      26.551   0.310  55.293  1.00  0.00     0.008 C 
ENDBRANCH   1  18
BRANCH   1  20
HETATM   20  C4  UNL     1      26.790  -0.449  52.134  1.00  0.00     0.045 C 
BRANCH  20  21
HETATM   21  C5  UNL     1      26.618  -1.893  52.313  1.00  0.00     0.073 C 
BRANCH  21  22
HETATM   22  C6  UNL     1      27.733  -2.658  52.888  1.00  0.00     0.117 A 
HETATM   23  O1  UNL     1      28.603  -1.884  53.419  1.00  0.00    -0.194 OA
HETATM   24  O2  UNL     1      28.775  -3.372  53.427  1.00  0.00     0.000 OA
HETATM   25  H10 UNL     1      28.568  -4.308  53.810  1.00  0.00     0.000 HD
ENDBRANCH  21  22
ENDBRANCH  20  21
ENDBRANCH   1  20
BRANCH  15  26
HETATM   26  O3  UNL     1      25.813   2.507  51.191  1.00  0.00    -0.362 OA
HETATM   27  H26 UNL     1      26.681   2.959  51.365  1.00  0.00     0.217 HD
ENDBRANCH  15  26
BRANCH   8  28
HETATM   28  C13 UNL     1      16.835  -0.053  52.121  1.00  0.00    -0.044 A 
HETATM   29  C14 UNL     1      16.036   0.969  51.801  1.00  0.00     0.008 A 
HETATM   30  C15 UNL     1      14.658   0.504  51.739  1.00  0.00    -0.003 A 
HETATM   31  C16 UNL     1      14.592  -0.771  52.012  1.00  0.00    -0.022 A 
HETATM   32  C17 UNL     1      15.956  -1.261  52.283  1.00  0.00     0.066 A 
ENDBRANCH   8  28
TORSDOF 6
ENDMDL
MODEL 2
REMARK VINA RESULT:      -8.6      1.523      2.074
REMARK  6 active torsions:
REMARK  status: ('A' for Active; 'I' for Inactive)
REMARK    1  A    between atoms: C2_2  and  C3_3 
REMARK    2  A    between atoms: C3_3  and  C4_4 
REMARK    3  A    between atoms: C4_4  and  C5_5 
REMARK    4  A    between atoms: C5_5  and  C6_6 
REMARK    5  A    between atoms: C12_15  and  C13_16 
REMARK    6  A    between atoms: C23_27  and  O3_28 
ROOT
HETATM    1  C3  UNL     1      26.333   0.455  53.251  1.00  0.00     0.079 A 
HETATM    2  N1  UNL     1      24.938  -0.079  53.282  1.00  0.00    -0.374 N 
HETATM    3  C7  UNL     1      23.951   0.838  52.822  1.00  0.00     0.040 A 
HETATM    4  C8  UNL     1      22.691   0.467  52.817  1.00  0.00     0.003 A 
HETATM    5  C9  UNL     1      21.550   1.244  52.388  1.00  0.00     0.001 A 
HETATM    6  C10 UNL     1      21.321   2.465  51.830  1.00  0.00     0.015 A 
HETATM    7  C11 UNL     1      20.102   3.011  51.504  1.00  0.00     0.013 A 
HETATM    8  C12 UNL     1      18.989   2.261  51.762  1.00  0.00    -0.027 A 
HETATM    9  C18 UNL     1      19.113   1.009  52.326  1.00  0.00     0.042 A 
HETATM   10  C19 UNL     1      20.373   0.547  52.617  1.00  0.00     0.040 A 
HETATM   11  N2  UNL     1      20.719  -0.697  53.183  1.00  0.00    -0.381 N 
HETATM   12  C20 UNL     1      22.146  -0.836  53.271  1.00  0.00     0.114 A 
HETATM   13  C21 UNL     1      22.578  -0.975  54.739  1.00  0.00     0.037 C 
HETATM   14  C22 UNL     1      24.774   1.985  52.495  1.00  0.00     0.064 A 
HETATM   15  C23 UNL     1      26.065   1.796  52.722  1.00  0.00     0.073 A 
HETATM   16  H11 UNL     1      24.876  -1.059  53.639  1.00  0.00     0.161 HD
HETATM   17  H20 UNL     1      20.217  -1.530  53.549  1.00  0.00     0.160 HD
ENDROOT
BRANCH   1  18
HETATM   18  C2  UNL     1      26.749   0.456  54.688  1.00  0.00     0.033 C 
HETATM   19  C1  UNL     1      28.212   0.502  54.970  1.00  0.00     0.008 C 
ENDBRANCH   1  18
BRANCH   1  20
HETATM   20  C4  UNL     1      27.049  -0.439  52.330  1.00  0.00     0.045 C 
BRANCH  20  21
HETATM   21  C5  UNL     1      26.794  -1.881  52.282  1.00  0.00     0.073 C 
BRANCH  21  22
HETATM   22  C6  UNL     1      27.790  -2.781  52.878  1.00  0.00     0.117 A 
HETATM   23  O1  UNL     1      28.857  -2.150  53.197  1.00  0.00    -0.194 OA
HETATM   24  O2  UNL     1      28.721  -3.623  53.436  1.00  0.00     0.000 OA
HETATM   25  H10 UNL     1      28.376  -4.425  53.986  1.00  0.00     0.000 HD
ENDBRANCH  21  22
ENDBRANCH  20  21
ENDBRANCH   1  20
BRANCH  15  26
HETATM   26  O3  UNL     1      26.977   2.810  52.458  1.00  0.00    -0.362 OA
HETATM   27  H26 UNL     1      27.331   3.061  51.565  1.00  0.00     0.217 HD
ENDBRANCH  15  26
BRANCH   8  28
HETATM   28  C13 UNL     1      17.648   2.743  51.458  1.00  0.00    -0.044 A 
HETATM   29  C14 UNL     1      16.491   2.075  51.459  1.00  0.00     0.008 A 
HETATM   30  C15 UNL     1      15.411   2.978  51.089  1.00  0.00    -0.003 A 
HETATM   31  C16 UNL     1      15.875   4.177  50.862  1.00  0.00    -0.022 A 
HETATM   32  C17 UNL     1      17.334   4.160  51.069  1.00  0.00     0.066 A 
ENDBRANCH   8  28
TORSDOF 6
ENDMDL
MODEL 3
REMARK VINA RESULT:      -8.5      4.743      8.528
REMARK  6 active torsions:
REMARK  status: ('A' for Active; 'I' for Inactive)
REMARK    1  A    between atoms: C2_2  and  C3_3 
REMARK    2  A    between atoms: C3_3  and  C4_4 
REMARK    3  A    between atoms: C4_4  and  C5_5 
REMARK    4  A    between atoms: C5_5  and  C6_6 
REMARK    5  A    between atoms: C12_15  and  C13_16 
REMARK    6  A    between atoms: C23_27  and  O3_28 
ROOT
HETATM    1  C3  UNL     1      24.871  -0.228  53.274  1.00  0.00     0.079 A 
HETATM    2  N1  UNL     1      24.460   1.155  52.886  1.00  0.00    -0.374 N 
HETATM    3  C7  UNL     1      25.297   1.760  51.906  1.00  0.00     0.040 A 
HETATM    4  C8  UNL     1      25.024   2.980  51.502  1.00  0.00     0.003 A 
HETATM    5  C9  UNL     1      25.745   3.760  50.521  1.00  0.00     0.001 A 
HETATM    6  C10 UNL     1      26.799   3.583  49.676  1.00  0.00     0.015 A 
HETATM    7  C11 UNL     1      27.328   4.507  48.807  1.00  0.00     0.013 A 
HETATM    8  C12 UNL     1      26.745   5.743  48.775  1.00  0.00    -0.027 A 
HETATM    9  C18 UNL     1      25.671   6.025  49.592  1.00  0.00     0.042 A 
HETATM   10  C19 UNL     1      25.212   5.036  50.428  1.00  0.00     0.040 A 
HETATM   11  N2  UNL     1      24.129   5.112  51.329  1.00  0.00    -0.381 N 
HETATM   12  C20 UNL     1      23.920   3.847  51.977  1.00  0.00     0.114 A 
HETATM   13  C21 UNL     1      24.126   3.985  53.494  1.00  0.00     0.037 C 
HETATM   14  C22 UNL     1      26.265   0.705  51.683  1.00  0.00     0.064 A 
HETATM   15  C23 UNL     1      26.051  -0.378  52.416  1.00  0.00     0.073 A 
HETATM   16  H11 UNL     1      23.608   1.492  53.389  1.00  0.00     0.161 HD
HETATM   17  H20 UNL     1      23.452   5.835  51.642  1.00  0.00     0.160 HD
ENDROOT
BRANCH   1  18
HETATM   18  C2  UNL     1      25.205  -0.108  54.727  1.00  0.00     0.033 C 
HETATM   19  C1  UNL     1      26.602   0.279  55.072  1.00  0.00     0.008 C 
ENDBRANCH   1  18
BRANCH   1  20
HETATM   20  C4  UNL     1      23.726  -1.071  52.901  1.00  0.00     0.045 C 
BRANCH  20  21
HETATM   21  C5  UNL     1      22.341  -0.613  53.032  1.00  0.00     0.073 C 
BRANCH  21  22
HETATM   22  C6  UNL     1      21.466  -1.314  53.981  1.00  0.00     0.117 A 
HETATM   23  O1  UNL     1      21.927  -1.252  55.173  1.00  0.00    -0.194 OA
HETATM   24  O2  UNL     1      20.648  -1.970  54.868  1.00  0.00     0.000 OA
HETATM   25  H10 UNL     1      19.634  -1.976  54.674  1.00  0.00     0.000 HD
ENDBRANCH  21  22
ENDBRANCH  20  21
ENDBRANCH   1  20
BRANCH  15  26
HETATM   26  O3  UNL     1      26.899  -1.472  52.312  1.00  0.00    -0.362 OA
HETATM   27  H26 UNL     1      27.242  -2.021  53.066  1.00  0.00     0.217 HD
ENDBRANCH  15  26
BRANCH   8  28
HETATM   28  C13 UNL     1      27.227   6.798  47.893  1.00  0.00    -0.044 A 
HETATM   29  C14 UNL     1      26.536   7.755  47.267  1.00  0.00     0.008 A 
HETATM   30  C15 UNL     1      27.449   8.582  46.492  1.00  0.00    -0.003 A 
HETATM   31  C16 UNL     1      28.676   8.158  46.626  1.00  0.00    -0.022 A 
HETATM   32  C17 UNL     1      28.671   6.988  47.522  1.00  0.00     0.066 A 
ENDBRANCH   8  28
TORSDOF 6
ENDMDL
MODEL 4
REMARK VINA RESULT:      -8.5      6.473      9.583
REMARK  6 active torsions:
REMARK  status: ('A' for Active; 'I' for Inactive)
REMARK    1  A    between atoms: C2_2  and  C3_3 
REMARK    2  A    between atoms: C3_3  and  C4_4 
REMARK    3  A    between atoms: C4_4  and  C5_5 
REMARK    4  A    between atoms: C5_5  and  C6_6 
REMARK    5  A    between atoms: C12_15  and  C13_16 
REMARK    6  A    between atoms: C23_27  and  O3_28 
ROOT
HETATM    1  C3  UNL     1      28.605   8.002  47.098  1.00  0.00     0.079 A 
HETATM    2  N1  UNL     1      27.296   7.676  47.740  1.00  0.00    -0.374 N 
HETATM    3  C7  UNL     1      27.267   6.416  48.402  1.00  0.00     0.040 A 
HETATM    4  C8  UNL     1      26.158   6.033  48.993  1.00  0.00     0.003 A 
HETATM    5  C9  UNL     1      25.930   4.802  49.715  1.00  0.00     0.001 A 
HETATM    6  C10 UNL     1      26.656   3.715  50.098  1.00  0.00     0.015 A 
HETATM    7  C11 UNL     1      26.204   2.623  50.800  1.00  0.00     0.013 A 
HETATM    8  C12 UNL     1      24.886   2.611  51.161  1.00  0.00    -0.027 A 
HETATM    9  C18 UNL     1      24.065   3.664  50.822  1.00  0.00     0.042 A 
HETATM   10  C19 UNL     1      24.607   4.713  50.118  1.00  0.00     0.040 A 
HETATM   11  N2  UNL     1      23.950   5.883  49.684  1.00  0.00    -0.381 N 
HETATM   12  C20 UNL     1      24.874   6.773  49.038  1.00  0.00     0.114 A 
HETATM   13  C21 UNL     1      24.470   6.987  47.571  1.00  0.00     0.037 C 
HETATM   14  C22 UNL     1      28.616   5.947  48.155  1.00  0.00     0.064 A 
HETATM   15  C23 UNL     1      29.353   6.791  47.450  1.00  0.00     0.073 A 
HETATM   16  H11 UNL     1      26.575   8.423  47.616  1.00  0.00     0.161 HD
HETATM   17  H20 UNL     1      22.984   6.264  49.709  1.00  0.00     0.160 HD
ENDROOT
BRANCH   1  18
HETATM   18  C2  UNL     1      28.277   8.095  45.641  1.00  0.00     0.033 C 
HETATM   19  C1  UNL     1      26.978   8.728  45.278  1.00  0.00     0.008 C 
ENDBRANCH   1  18
BRANCH   1  20
HETATM   20  C4  UNL     1      29.055   9.225  47.778  1.00  0.00     0.045 C 
BRANCH  20  21
HETATM   21  C5  UNL     1      28.137  10.088  48.527  1.00  0.00     0.073 C 
BRANCH  21  22
HETATM   22  C6  UNL     1      27.903   9.785  49.945  1.00  0.00     0.117 A 
HETATM   23  O1  UNL     1      26.658   9.609  50.184  1.00  0.00    -0.194 OA
HETATM   24  O2  UNL     1      27.684   9.503  51.271  1.00  0.00     0.000 OA
HETATM   25  H10 UNL     1      28.417   8.984  51.780  1.00  0.00     0.000 HD
ENDBRANCH  21  22
ENDBRANCH  20  21
ENDBRANCH   1  20
BRANCH  15  26
HETATM   26  O3  UNL     1      30.668   6.475  47.133  1.00  0.00    -0.362 OA
HETATM   27  H26 UNL     1      30.982   6.058  46.288  1.00  0.00     0.217 HD
ENDBRANCH  15  26
BRANCH   8  28
HETATM   28  C13 UNL     1      24.302   1.502  51.905  1.00  0.00    -0.044 A 
HETATM   29  C14 UNL     1      24.905   0.599  52.683  1.00  0.00     0.008 A 
HETATM   30  C15 UNL     1      23.911  -0.320  53.217  1.00  0.00    -0.003 A 
HETATM   31  C16 UNL     1      22.719  -0.004  52.788  1.00  0.00    -0.022 A 
HETATM   32  C17 UNL     1      22.835   1.177  51.914  1.00  0.00     0.066 A 
ENDBRANCH   8  28
TORSDOF 6
ENDMDL
MODEL 5
REMARK VINA RESULT:      -8.2      4.722      6.308
REMARK  6 active torsions:
REMARK  status: ('A' for Active; 'I' for Inactive)
REMARK    1  A    between atoms: C2_2  and  C3_3 
REMARK    2  A    between atoms: C3_3  and  C4_4 
REMARK    3  A    between atoms: C4_4  and  C5_5 
REMARK    4  A    between atoms: C5_5  and  C6_6 
REMARK    5  A    between atoms: C12_15  and  C13_16 
REMARK    6  A    between atoms: C23_27  and  O3_28 
ROOT
HETATM    1  C3  UNL     1      25.277   0.483  52.937  1.00  0.00     0.079 A 
HETATM    2  N1  UNL     1      24.315   0.978  51.907  1.00  0.00    -0.374 N 
HETATM    3  C7  UNL     1      24.138   2.391  51.904  1.00  0.00     0.040 A 
HETATM    4  C8  UNL     1      23.306   2.926  51.039  1.00  0.00     0.003 A 
HETATM    5  C9  UNL     1      22.994   4.328  50.876  1.00  0.00     0.001 A 
HETATM    6  C10 UNL     1      23.403   5.515  51.404  1.00  0.00     0.015 A 
HETATM    7  C11 UNL     1      22.938   6.768  51.083  1.00  0.00     0.013 A 
HETATM    8  C12 UNL     1      21.959   6.850  50.133  1.00  0.00    -0.027 A 
HETATM    9  C18 UNL     1      21.475   5.706  49.537  1.00  0.00     0.042 A 
HETATM   10  C19 UNL     1      22.002   4.497  49.923  1.00  0.00     0.040 A 
HETATM   11  N2  UNL     1      21.658   3.219  49.435  1.00  0.00    -0.381 N 
HETATM   12  C20 UNL     1      22.479   2.207  50.040  1.00  0.00     0.114 A 
HETATM   13  C21 UNL     1      21.611   1.230  50.849  1.00  0.00     0.037 C 
HETATM   14  C22 UNL     1      25.028   2.781  52.979  1.00  0.00     0.064 A 
HETATM   15  C23 UNL     1      25.651   1.761  53.550  1.00  0.00     0.073 A 
HETATM   16  H11 UNL     1      23.901   0.216  51.325  1.00  0.00     0.161 HD
HETATM   17  H20 UNL     1      20.973   2.823  48.761  1.00  0.00     0.160 HD
ENDROOT
BRANCH   1  18
HETATM   18  C2  UNL     1      24.438  -0.379  53.827  1.00  0.00     0.033 C 
HETATM   19  C1  UNL     1      23.116  -0.818  53.296  1.00  0.00     0.008 C 
ENDBRANCH   1  18
BRANCH   1  20
HETATM   20  C4  UNL     1      26.344  -0.166  52.163  1.00  0.00     0.045 C 
BRANCH  20  21
HETATM   21  C5  UNL     1      27.194  -1.217  52.728  1.00  0.00     0.073 C 
BRANCH  21  22
HETATM   22  C6  UNL     1      28.408  -0.812  53.450  1.00  0.00     0.117 A 
HETATM   23  O1  UNL     1      28.148  -0.514  54.667  1.00  0.00    -0.194 OA
HETATM   24  O2  UNL     1      29.542  -0.435  54.126  1.00  0.00     0.000 OA
HETATM   25  H10 UNL     1      30.435  -0.873  53.850  1.00  0.00     0.000 HD
ENDBRANCH  21  22
ENDBRANCH  20  21
ENDBRANCH   1  20
BRANCH  15  26
HETATM   26  O3  UNL     1      26.535   1.981  54.599  1.00  0.00    -0.362 OA
HETATM   27  H26 UNL     1      27.360   2.534  54.564  1.00  0.00     0.217 HD
ENDBRANCH  15  26
BRANCH   8  28
HETATM   28  C13 UNL     1      21.394   8.128  49.720  1.00  0.00    -0.044 A 
HETATM   29  C14 UNL     1      20.170   8.617  49.935  1.00  0.00     0.008 A 
HETATM   30  C15 UNL     1      20.062   9.936  49.330  1.00  0.00    -0.003 A 
HETATM   31  C16 UNL     1      21.185  10.266  48.751  1.00  0.00    -0.022 A 
HETATM   32  C17 UNL     1      22.146   9.163  48.932  1.00  0.00     0.066 A 
ENDBRANCH   8  28
TORSDOF 6
ENDMDL
MODEL 6
REMARK VINA RESULT:      -8.1      7.440     10.260
REMARK  6 active torsions:
REMARK  status: ('A' for Active; 'I' for Inactive)
REMARK    1  A    between atoms: C2_2  and  C3_3 
REMARK    2  A    between atoms: C3_3  and  C4_4 
REMARK    3  A    between atoms: C4_4  and  C5_5 
REMARK    4  A    between atoms: C5_5  and  C6_6 
REMARK    5  A    between atoms: C12_15  and  C13_16 
REMARK    6  A    between atoms: C23_27  and  O3_28 
ROOT
HETATM    1  C3  UNL     1      30.599   7.693  47.488  1.00  0.00     0.079 A 
HETATM    2  N1  UNL     1      29.130   7.739  47.758  1.00  0.00    -0.374 N 
HETATM    3  C7  UNL     1      28.577   6.502  48.196  1.00  0.00     0.040 A 
HETATM    4  C8  UNL     1      27.290   6.437  48.454  1.00  0.00     0.003 A 
HETATM    5  C9  UNL     1      26.545   5.285  48.909  1.00  0.00     0.001 A 
HETATM    6  C10 UNL     1      26.811   4.000  49.277  1.00  0.00     0.015 A 
HETATM    7  C11 UNL     1      25.903   3.050  49.683  1.00  0.00     0.013 A 
HETATM    8  C12 UNL     1      24.588   3.419  49.728  1.00  0.00    -0.027 A 
HETATM    9  C18 UNL     1      24.214   4.698  49.376  1.00  0.00     0.042 A 
HETATM   10  C19 UNL     1      25.193   5.579  48.982  1.00  0.00     0.040 A 
HETATM   11  N2  UNL     1      25.028   6.924  48.594  1.00  0.00    -0.381 N 
HETATM   12  C20 UNL     1      26.300   7.532  48.318  1.00  0.00     0.114 A 
HETATM   13  C21 UNL     1      26.371   7.973  46.848  1.00  0.00     0.037 C 
HETATM   14  C22 UNL     1      29.755   5.659  48.194  1.00  0.00     0.064 A 
HETATM   15  C23 UNL     1      30.858   6.286  47.812  1.00  0.00     0.073 A 
HETATM   16  H11 UNL     1      28.706   8.679  47.589  1.00  0.00     0.161 HD
HETATM   17  H20 UNL     1      24.235   7.582  48.456  1.00  0.00     0.160 HD
ENDROOT
BRANCH   1  18
HETATM   18  C2  UNL     1      30.704   7.994  46.026  1.00  0.00     0.033 C 
HETATM   19  C1  UNL     1      29.473   8.483  45.344  1.00  0.00     0.008 C 
ENDBRANCH   1  18
BRANCH   1  20
HETATM   20  C4  UNL     1      31.177   8.660  48.431  1.00  0.00     0.045 C 
BRANCH  20  21
HETATM   21  C5  UNL     1      31.297  10.086  48.116  1.00  0.00     0.073 C 
BRANCH  21  22
HETATM   22  C6  UNL     1      30.402  11.025  48.805  1.00  0.00     0.117 A 
HETATM   23  O1  UNL     1      29.292  10.469  49.115  1.00  0.00    -0.194 OA
HETATM   24  O2  UNL     1      29.566  11.903  49.449  1.00  0.00     0.000 OA
HETATM   25  H10 UNL     1      29.996  12.632  50.041  1.00  0.00     0.000 HD
ENDBRANCH  21  22
ENDBRANCH  20  21
ENDBRANCH   1  20
BRANCH  15  26
HETATM   26  O3  UNL     1      32.067   5.605  47.757  1.00  0.00    -0.362 OA
HETATM   27  H26 UNL     1      32.256   4.791  47.219  1.00  0.00     0.217 HD
ENDBRANCH  15  26
BRANCH   8  28
HETATM   28  C13 UNL     1      23.543   2.492  50.142  1.00  0.00    -0.044 A 
HETATM   29  C14 UNL     1      23.390   1.860  51.309  1.00  0.00     0.008 A 
HETATM   30  C15 UNL     1      22.194   1.032  51.258  1.00  0.00    -0.003 A 
HETATM   31  C16 UNL     1      21.612   1.140  50.094  1.00  0.00    -0.022 A 
HETATM   32  C17 UNL     1      22.399   2.070  49.264  1.00  0.00     0.066 A 
ENDBRANCH   8  28
TORSDOF 6
ENDMDL
MODEL 7
REMARK VINA RESULT:      -8.1      5.441      8.130
REMARK  6 active torsions:
REMARK  status: ('A' for Active; 'I' for Inactive)
REMARK    1  A    between atoms: C2_2  and  C3_3 
REMARK    2  A    between atoms: C3_3  and  C4_4 
REMARK    3  A    between atoms: C4_4  and  C5_5 
REMARK    4  A    between atoms: C5_5  and  C6_6 
REMARK    5  A    between atoms: C12_15  and  C13_16 
REMARK    6  A    between atoms: C23_27  and  O3_28 
ROOT
HETATM    1  C3  UNL     1      26.318   7.040  48.801  1.00  0.00     0.079 A 
HETATM    2  N1  UNL     1      25.115   6.712  49.622  1.00  0.00    -0.374 N 
HETATM    3  C7  UNL     1      25.067   5.364  50.077  1.00  0.00     0.040 A 
HETATM    4  C8  UNL     1      24.043   4.973  50.803  1.00  0.00     0.003 A 
HETATM    5  C9  UNL     1      23.814   3.659  51.358  1.00  0.00     0.001 A 
HETATM    6  C10 UNL     1      24.475   2.469  51.425  1.00  0.00     0.015 A 
HETATM    7  C11 UNL     1      24.038   1.312  52.025  1.00  0.00     0.013 A 
HETATM    8  C12 UNL     1      22.809   1.341  52.623  1.00  0.00    -0.027 A 
HETATM    9  C18 UNL     1      22.059   2.497  52.611  1.00  0.00     0.042 A 
HETATM   10  C19 UNL     1      22.580   3.605  51.986  1.00  0.00     0.040 A 
HETATM   11  N2  UNL     1      21.987   4.879  51.869  1.00  0.00    -0.381 N 
HETATM   12  C20 UNL     1      22.874   5.792  51.203  1.00  0.00     0.114 A 
HETATM   13  C21 UNL     1      22.244   6.283  49.890  1.00  0.00     0.037 C 
HETATM   14  C22 UNL     1      26.293   4.840  49.510  1.00  0.00     0.064 A 
HETATM   15  C23 UNL     1      26.982   5.733  48.815  1.00  0.00     0.073 A 
HETATM   16  H11 UNL     1      24.468   7.523  49.753  1.00  0.00     0.161 HD
HETATM   17  H20 UNL     1      21.086   5.324  52.136  1.00  0.00     0.160 HD
ENDROOT
BRANCH   1  18
HETATM   18  C2  UNL     1      25.752   7.405  47.465  1.00  0.00     0.033 C 
HETATM   19  C1  UNL     1      24.496   8.205  47.456  1.00  0.00     0.008 C 
ENDBRANCH   1  18
BRANCH   1  20
HETATM   20  C4  UNL     1      27.009   8.091  49.562  1.00  0.00     0.045 C 
BRANCH  20  21
HETATM   21  C5  UNL     1      28.160   8.821  49.024  1.00  0.00     0.073 C 
BRANCH  21  22
HETATM   22  C6  UNL     1      28.242  10.266  49.273  1.00  0.00     0.117 A 
HETATM   23  O1  UNL     1      27.077  10.787  49.379  1.00  0.00    -0.194 OA
HETATM   24  O2  UNL     1      28.318  11.618  49.505  1.00  0.00     0.000 OA
HETATM   25  H10 UNL     1      29.125  11.968  50.045  1.00  0.00     0.000 HD
ENDBRANCH  21  22
ENDBRANCH  20  21
ENDBRANCH   1  20
BRANCH  15  26
HETATM   26  O3  UNL     1      28.179   5.375  48.209  1.00  0.00    -0.362 OA
HETATM   27  H26 UNL     1      28.291   5.068  47.271  1.00  0.00     0.217 HD
ENDBRANCH  15  26
BRANCH   8  28
HETATM   28  C13 UNL     1      22.248   0.171  53.286  1.00  0.00    -0.044 A 
HETATM   29  C14 UNL     1      22.873  -0.787  53.977  1.00  0.00     0.008 A 
HETATM   30  C15 UNL     1      21.897  -1.755  54.454  1.00  0.00    -0.003 A 
HETATM   31  C16 UNL     1      20.694  -1.417  54.074  1.00  0.00    -0.022 A 
HETATM   32  C17 UNL     1      20.785  -0.168  53.296  1.00  0.00     0.066 A 
ENDBRANCH   8  28
TORSDOF 6
ENDMDL
MODEL 8
REMARK VINA RESULT:      -8.0      4.212      9.139
REMARK  6 active torsions:
REMARK  status: ('A' for Active; 'I' for Inactive)
REMARK    1  A    between atoms: C2_2  and  C3_3 
REMARK    2  A    between atoms: C3_3  and  C4_4 
REMARK    3  A    between atoms: C4_4  and  C5_5 
REMARK    4  A    between atoms: C5_5  and  C6_6 
REMARK    5  A    between atoms: C12_15  and  C13_16 
REMARK    6  A    between atoms: C23_27  and  O3_28 
ROOT
HETATM    1  C3  UNL     1      17.261   0.291  51.413  1.00  0.00     0.079 A 
HETATM    2  N1  UNL     1      18.606   0.766  50.969  1.00  0.00    -0.374 N 
HETATM    3  C7  UNL     1      19.680   0.341  51.802  1.00  0.00     0.040 A 
HETATM    4  C8  UNL     1      20.904   0.712  51.500  1.00  0.00     0.003 A 
HETATM    5  C9  UNL     1      22.118   0.386  52.212  1.00  0.00     0.001 A 
HETATM    6  C10 UNL     1      22.481  -0.377  53.281  1.00  0.00     0.015 A 
HETATM    7  C11 UNL     1      23.746  -0.534  53.796  1.00  0.00     0.013 A 
HETATM    8  C12 UNL     1      24.762   0.141  53.179  1.00  0.00    -0.027 A 
HETATM    9  C18 UNL     1      24.501   0.940  52.087  1.00  0.00     0.042 A 
HETATM   10  C19 UNL     1      23.204   1.035  51.644  1.00  0.00     0.040 A 
HETATM   11  N2  UNL     1      22.726   1.783  50.548  1.00  0.00    -0.381 N 
HETATM   12  C20 UNL     1      21.317   1.572  50.365  1.00  0.00     0.114 A 
HETATM   13  C21 UNL     1      20.553   2.893  50.548  1.00  0.00     0.037 C 
HETATM   14  C22 UNL     1      18.964  -0.426  52.801  1.00  0.00     0.064 A 
HETATM   15  C23 UNL     1      17.655  -0.463  52.607  1.00  0.00     0.073 A 
HETATM   16  H11 UNL     1      18.575   1.348  50.101  1.00  0.00     0.161 HD
HETATM   17  H20 UNL     1      23.123   2.440  49.847  1.00  0.00     0.160 HD
ENDROOT
BRANCH   1  18
HETATM   18  C2  UNL     1      16.520   1.553  51.724  1.00  0.00     0.033 C 
HETATM   19  C1  UNL     1      16.802   2.735  50.862  1.00  0.00     0.008 C 
ENDBRANCH   1  18
BRANCH   1  20
HETATM   20  C4  UNL     1      16.774  -0.532  50.297  1.00  0.00     0.045 C 
BRANCH  20  21
HETATM   21  C5  UNL     1      15.354  -0.848  50.117  1.00  0.00     0.073 C 
BRANCH  21  22
HETATM   22  C6  UNL     1      14.846  -2.103  50.686  1.00  0.00     0.117 A 
HETATM   23  O1  UNL     1      14.483  -1.950  51.903  1.00  0.00    -0.194 OA
HETATM   24  O2  UNL     1      14.371  -3.277  51.217  1.00  0.00     0.000 OA
HETATM   25  H10 UNL     1      13.890  -3.933  50.582  1.00  0.00     0.000 HD
ENDBRANCH  21  22
ENDBRANCH  20  21
ENDBRANCH   1  20
BRANCH  15  26
HETATM   26  O3  UNL     1      16.837  -1.159  53.488  1.00  0.00    -0.362 OA
HETATM   27  H26 UNL     1      16.910  -1.161  54.478  1.00  0.00     0.217 HD
ENDBRANCH  15  26
BRANCH   8  28
HETATM   28  C13 UNL     1      26.140   0.047  53.643  1.00  0.00    -0.044 A 
HETATM   29  C14 UNL     1      26.675   0.478  54.789  1.00  0.00     0.008 A 
HETATM   30  C15 UNL     1      28.095   0.162  54.810  1.00  0.00    -0.003 A 
HETATM   31  C16 UNL     1      28.443  -0.451  53.710  1.00  0.00    -0.022 A 
HETATM   32  C17 UNL     1      27.250  -0.589  52.856  1.00  0.00     0.066 A 
ENDBRANCH   8  28
TORSDOF 6
ENDMDL
MODEL 9
REMARK VINA RESULT:      -8.0      2.391      3.101
REMARK  6 active torsions:
REMARK  status: ('A' for Active; 'I' for Inactive)
REMARK    1  A    between atoms: C2_2  and  C3_3 
REMARK    2  A    between atoms: C3_3  and  C4_4 
REMARK    3  A    between atoms: C4_4  and  C5_5 
REMARK    4  A    between atoms: C5_5  and  C6_6 
REMARK    5  A    between atoms: C12_15  and  C13_16 
REMARK    6  A    between atoms: C23_27  and  O3_28 
ROOT
HETATM    1  C3  UNL     1      26.242   1.023  52.701  1.00  0.00     0.079 A 
HETATM    2  N1  UNL     1      24.812   0.596  52.640  1.00  0.00    -0.374 N 
HETATM    3  C7  UNL     1      23.996   1.407  51.801  1.00  0.00     0.040 A 
HETATM    4  C8  UNL     1      22.719   1.119  51.684  1.00  0.00     0.003 A 
HETATM    5  C9  UNL     1      21.734   1.813  50.886  1.00  0.00     0.001 A 
HETATM    6  C10 UNL     1      21.709   2.847  50.000  1.00  0.00     0.015 A 
HETATM    7  C11 UNL     1      20.609   3.351  49.346  1.00  0.00     0.013 A 
HETATM    8  C12 UNL     1      19.403   2.762  49.603  1.00  0.00    -0.027 A 
HETATM    9  C18 UNL     1      19.320   1.707  50.485  1.00  0.00     0.042 A 
HETATM   10  C19 UNL     1      20.474   1.271  51.091  1.00  0.00     0.040 A 
HETATM   11  N2  UNL     1      20.611   0.211  52.010  1.00  0.00    -0.381 N 
HETATM   12  C20 UNL     1      21.990   0.022  52.365  1.00  0.00     0.114 A 
HETATM   13  C21 UNL     1      22.191   0.264  53.869  1.00  0.00     0.037 C 
HETATM   14  C22 UNL     1      24.966   2.374  51.327  1.00  0.00     0.064 A 
HETATM   15  C23 UNL     1      26.186   2.182  51.805  1.00  0.00     0.073 A 
HETATM   16  H11 UNL     1      24.604  -0.245  53.224  1.00  0.00     0.161 HD
HETATM   17  H20 UNL     1      19.982  -0.462  52.491  1.00  0.00     0.160 HD
ENDROOT
BRANCH   1  18
HETATM   18  C2  UNL     1      26.446   1.391  54.137  1.00  0.00     0.033 C 
HETATM   19  C1  UNL     1      26.419   0.282  55.132  1.00  0.00     0.008 C 
ENDBRANCH   1  18
BRANCH   1  20
HETATM   20  C4  UNL     1      26.992  -0.127  52.176  1.00  0.00     0.045 C 
BRANCH  20  21
HETATM   21  C5  UNL     1      26.559  -1.510  52.391  1.00  0.00     0.073 C 
BRANCH  21  22
HETATM   22  C6  UNL     1      27.580  -2.513  52.721  1.00  0.00     0.117 A 
HETATM   23  O1  UNL     1      28.531  -2.001  53.407  1.00  0.00    -0.194 OA
HETATM   24  O2  UNL     1      28.535  -3.451  53.029  1.00  0.00     0.000 OA
HETATM   25  H10 UNL     1      28.225  -4.426  53.166  1.00  0.00     0.000 HD
ENDBRANCH  21  22
ENDBRANCH  20  21
ENDBRANCH   1  20
BRANCH  15  26
HETATM   26  O3  UNL     1      27.222   3.033  51.442  1.00  0.00    -0.362 OA
HETATM   27  H26 UNL     1      27.347   3.968  51.751  1.00  0.00     0.217 HD
ENDBRANCH  15  26
BRANCH   8  28
HETATM   28  C13 UNL     1      18.173   3.218  48.967  1.00  0.00    -0.044 A 
HETATM   29  C14 UNL     1      17.242   2.507  48.325  1.00  0.00     0.008 A 
HETATM   30  C15 UNL     1      16.191   3.398  47.856  1.00  0.00    -0.003 A 
HETATM   31  C16 UNL     1      16.453   4.632  48.193  1.00  0.00    -0.022 A 
HETATM   32  C17 UNL     1      17.730   4.653  48.929  1.00  0.00     0.066 A 
ENDBRANCH   8  28
TORSDOF 6
ENDMDL
