MODEL 1
REMARK VINA RESULT:      -6.7      0.000      0.000
REMARK  6 active torsions:
REMARK  status: ('A' for Active; 'I' for Inactive)
REMARK    1  A    between atoms: C2_2  and  P1_3 
REMARK    2  A    between atoms: P1_3  and  C3_5 
REMARK    3  A    between atoms: C3_5  and  C4_6 
REMARK    4  A    between atoms: C4_6  and  C5_7 
REMARK    5  A    between atoms: C6_8  and  N1_9 
REMARK    6  A    between atoms: N1_9  and  C7_10 
ROOT
HETATM    1  C7  UNL     1      23.543  -0.443  53.620  1.00  0.00     0.159 A 
HETATM    2  N2  UNL     1      22.859  -1.027  54.609  1.00  0.00    -0.222 NA
HETATM    3  C8  UNL     1      23.593  -1.401  55.696  1.00  0.00     0.238 A 
HETATM    4  N3  UNL     1      24.919  -1.192  55.759  1.00  0.00    -0.215 NA
HETATM    5  C9  UNL     1      25.604  -0.603  54.758  1.00  0.00     0.201 A 
HETATM    6  C10 UNL     1      24.896  -0.211  53.645  1.00  0.00     0.129 A 
HETATM    7  N4  UNL     1      25.411   0.414  52.499  1.00  0.00    -0.379 N 
HETATM    8  C11 UNL     1      26.751   0.571  51.973  1.00  0.00     0.157 C 
HETATM    9  C12 UNL     1      27.760   0.861  53.006  1.00  0.00    -0.026 A 
HETATM   10  C13 UNL     1      27.815   0.407  54.247  1.00  0.00     0.064 A 
HETATM   11  C14 UNL     1      28.865   1.289  53.858  1.00  0.00     0.103 A 
HETATM   12  O1  UNL     1      26.986  -0.457  54.980  1.00  0.00    -0.294 OA
HETATM   13  H10 UNL     1      24.663   0.855  51.907  1.00  0.00     0.160 HD
ENDROOT
BRANCH   1  14
HETATM   14  N1  UNL     1      22.776  -0.059  52.499  1.00  0.00    -0.349 N 
HETATM   15  H8  UNL     1      22.606  -0.099  51.493  1.00  0.00     0.167 HD
BRANCH  14  16
HETATM   16  C6  UNL     1      21.650   0.807  52.668  1.00  0.00     0.090 C 
HETATM   17  C5  UNL     1      21.503   1.781  51.752  1.00  0.00     0.025 C 
BRANCH  17  18
HETATM   18  C4  UNL     1      22.554   1.740  50.753  1.00  0.00     0.058 C 
BRANCH  18  19
HETATM   19  C3  UNL     1      23.348   2.683  50.249  1.00  0.00    -0.109 C 
BRANCH  19  20
HETATM   20  P1  UNL     1      24.278   4.028  50.077  1.00  0.00     0.048 P 
HETATM   21 BR1  UNL     1      26.391   3.476  49.668  1.00  0.00    -0.042 Br
BRANCH  20  22
HETATM   22  C2  UNL     1      23.790   5.046  51.274  1.00  0.00    -0.001 C 
HETATM   23  C1  UNL     1      23.478   4.706  52.693  1.00  0.00     0.038 C 
ENDBRANCH  20  22
ENDBRANCH  19  20
ENDBRANCH  18  19
ENDBRANCH  17  18
ENDBRANCH  14  16
ENDBRANCH   1  14
TORSDOF 6
ENDMDL
MODEL 2
REMARK VINA RESULT:      -6.5      2.304      4.565
REMARK  6 active torsions:
REMARK  status: ('A' for Active; 'I' for Inactive)
REMARK    1  A    between atoms: C2_2  and  P1_3 
REMARK    2  A    between atoms: P1_3  and  C3_5 
REMARK    3  A    between atoms: C3_5  and  C4_6 
REMARK    4  A    between atoms: C4_6  and  C5_7 
REMARK    5  A    between atoms: C6_8  and  N1_9 
REMARK    6  A    between atoms: N1_9  and  C7_10 
ROOT
HETATM    1  C7  UNL     1      24.777  -0.384  54.016  1.00  0.00     0.159 A 
HETATM    2  N2  UNL     1      25.055  -1.082  55.122  1.00  0.00    -0.222 NA
HETATM    3  C8  UNL     1      23.977  -1.532  55.826  1.00  0.00     0.238 A 
HETATM    4  N3  UNL     1      22.718  -1.285  55.423  1.00  0.00    -0.215 NA
HETATM    5  C9  UNL     1      22.443  -0.581  54.308  1.00  0.00     0.201 A 
HETATM    6  C10 UNL     1      23.507  -0.110  53.572  1.00  0.00     0.129 A 
HETATM    7  N4  UNL     1      23.443   0.639  52.388  1.00  0.00    -0.379 N 
HETATM    8  C11 UNL     1      22.384   1.388  51.744  1.00  0.00     0.157 C 
HETATM    9  C12 UNL     1      21.072   0.722  51.801  1.00  0.00    -0.026 A 
HETATM   10  C13 UNL     1      20.571  -0.019  52.776  1.00  0.00     0.064 A 
HETATM   11  C14 UNL     1      19.736   0.157  51.633  1.00  0.00     0.103 A 
HETATM   12  O1  UNL     1      21.075  -0.411  54.026  1.00  0.00    -0.294 OA
HETATM   13  H10 UNL     1      24.357   0.655  51.868  1.00  0.00     0.160 HD
ENDROOT
BRANCH   1  14
HETATM   14  N1  UNL     1      25.898   0.077  53.295  1.00  0.00    -0.349 N 
HETATM   15  H8  UNL     1      26.477   0.048  52.454  1.00  0.00     0.167 HD
BRANCH  14  16
HETATM   16  C6  UNL     1      26.756   1.069  53.867  1.00  0.00     0.090 C 
HETATM   17  C5  UNL     1      27.224   2.009  53.027  1.00  0.00     0.025 C 
BRANCH  17  18
HETATM   18  C4  UNL     1      26.741   1.808  51.674  1.00  0.00     0.058 C 
BRANCH  18  19
HETATM   19  C3  UNL     1      26.369   2.659  50.719  1.00  0.00    -0.109 C 
BRANCH  19  20
HETATM   20  P1  UNL     1      25.926   4.022  49.914  1.00  0.00     0.048 P 
HETATM   21 BR1  UNL     1      23.826   3.871  49.207  1.00  0.00    -0.042 Br
BRANCH  20  22
HETATM   22  C2  UNL     1      27.213   4.396  48.959  1.00  0.00    -0.001 C 
HETATM   23  C1  UNL     1      27.639   5.745  48.485  1.00  0.00     0.038 C 
ENDBRANCH  20  22
ENDBRANCH  19  20
ENDBRANCH  18  19
ENDBRANCH  17  18
ENDBRANCH  14  16
ENDBRANCH   1  14
TORSDOF 6
ENDMDL
MODEL 3
REMARK VINA RESULT:      -6.4      1.542      2.019
REMARK  6 active torsions:
REMARK  status: ('A' for Active; 'I' for Inactive)
REMARK    1  A    between atoms: C2_2  and  P1_3 
REMARK    2  A    between atoms: P1_3  and  C3_5 
REMARK    3  A    between atoms: C3_5  and  C4_6 
REMARK    4  A    between atoms: C4_6  and  C5_7 
REMARK    5  A    between atoms: C6_8  and  N1_9 
REMARK    6  A    between atoms: N1_9  and  C7_10 
ROOT
HETATM    1  C7  UNL     1      23.573   1.108  52.751  1.00  0.00     0.159 A 
HETATM    2  N2  UNL     1      22.477   0.465  53.166  1.00  0.00    -0.222 NA
HETATM    3  C8  UNL     1      22.690  -0.574  54.025  1.00  0.00     0.238 A 
HETATM    4  N3  UNL     1      23.926  -0.919  54.422  1.00  0.00    -0.215 NA
HETATM    5  C9  UNL     1      25.027  -0.267  54.000  1.00  0.00     0.201 A 
HETATM    6  C10 UNL     1      24.852   0.787  53.133  1.00  0.00     0.129 A 
HETATM    7  N4  UNL     1      25.856   1.593  52.577  1.00  0.00    -0.379 N 
HETATM    8  C11 UNL     1      27.291   1.446  52.454  1.00  0.00     0.157 C 
HETATM    9  C12 UNL     1      27.930   0.879  53.652  1.00  0.00    -0.026 A 
HETATM   10  C13 UNL     1      27.454  -0.038  54.479  1.00  0.00     0.064 A 
HETATM   11  C14 UNL     1      28.752   0.466  54.787  1.00  0.00     0.103 A 
HETATM   12  O1  UNL     1      26.246  -0.753  54.510  1.00  0.00    -0.294 OA
HETATM   13  H10 UNL     1      25.479   2.485  52.167  1.00  0.00     0.160 HD
ENDROOT
BRANCH   1  14
HETATM   14  N1  UNL     1      23.343   2.181  51.863  1.00  0.00    -0.349 N 
HETATM   15  H8  UNL     1      23.415   3.178  51.649  1.00  0.00     0.167 HD
BRANCH  14  16
HETATM   16  C6  UNL     1      22.712   1.942  50.603  1.00  0.00     0.090 C 
HETATM   17  C5  UNL     1      23.223   2.597  49.545  1.00  0.00     0.025 C 
BRANCH  17  18
HETATM   18  C4  UNL     1      24.345   3.434  49.924  1.00  0.00     0.058 C 
BRANCH  18  19
HETATM   19  C3  UNL     1      24.861   4.538  49.387  1.00  0.00    -0.109 C 
BRANCH  19  20
HETATM   20  P1  UNL     1      25.804   5.854  49.100  1.00  0.00     0.048 P 
HETATM   21 BR1  UNL     1      27.868   5.238  48.553  1.00  0.00    -0.042 Br
BRANCH  20  22
HETATM   22  C2  UNL     1      25.430   6.921  50.295  1.00  0.00    -0.001 C 
HETATM   23  C1  UNL     1      24.200   6.954  51.140  1.00  0.00     0.038 C 
ENDBRANCH  20  22
ENDBRANCH  19  20
ENDBRANCH  18  19
ENDBRANCH  17  18
ENDBRANCH  14  16
ENDBRANCH   1  14
TORSDOF 6
ENDMDL
MODEL 4
REMARK VINA RESULT:      -6.4      2.253      4.316
REMARK  6 active torsions:
REMARK  status: ('A' for Active; 'I' for Inactive)
REMARK    1  A    between atoms: C2_2  and  P1_3 
REMARK    2  A    between atoms: P1_3  and  C3_5 
REMARK    3  A    between atoms: C3_5  and  C4_6 
REMARK    4  A    between atoms: C4_6  and  C5_7 
REMARK    5  A    between atoms: C6_8  and  N1_9 
REMARK    6  A    between atoms: N1_9  and  C7_10 
ROOT
HETATM    1  C7  UNL     1      26.374   1.701  52.963  1.00  0.00     0.159 A 
HETATM    2  N2  UNL     1      27.619   1.424  53.362  1.00  0.00    -0.222 NA
HETATM    3  C8  UNL     1      27.746   0.372  54.221  1.00  0.00     0.238 A 
HETATM    4  N3  UNL     1      26.680  -0.334  54.634  1.00  0.00    -0.215 NA
HETATM    5  C9  UNL     1      25.426  -0.050  54.229  1.00  0.00     0.201 A 
HETATM    6  C10 UNL     1      25.260   1.005  53.361  1.00  0.00     0.129 A 
HETATM    7  N4  UNL     1      24.050   1.466  52.822  1.00  0.00    -0.379 N 
HETATM    8  C11 UNL     1      22.661   1.252  53.174  1.00  0.00     0.157 C 
HETATM    9  C12 UNL     1      22.359  -0.135  53.562  1.00  0.00    -0.026 A 
HETATM   10  C13 UNL     1      23.126  -0.988  54.221  1.00  0.00     0.064 A 
HETATM   11  C14 UNL     1      21.842  -1.473  53.836  1.00  0.00     0.103 A 
HETATM   12  O1  UNL     1      24.421  -0.885  54.754  1.00  0.00    -0.294 OA
HETATM   13  H10 UNL     1      24.190   2.096  51.991  1.00  0.00     0.160 HD
ENDROOT
BRANCH   1  14
HETATM   14  N1  UNL     1      26.253   2.790  52.074  1.00  0.00    -0.349 N 
HETATM   15  H8  UNL     1      25.969   3.756  51.898  1.00  0.00     0.167 HD
BRANCH  14  16
HETATM   16  C6  UNL     1      26.686   2.656  50.717  1.00  0.00     0.090 C 
HETATM   17  C5  UNL     1      25.974   3.328  49.794  1.00  0.00     0.025 C 
BRANCH  17  18
HETATM   18  C4  UNL     1      24.883   4.071  50.395  1.00  0.00     0.058 C 
BRANCH  18  19
HETATM   19  C3  UNL     1      23.567   4.051  50.193  1.00  0.00    -0.109 C 
BRANCH  19  20
HETATM   20  P1  UNL     1      22.033   3.553  49.873  1.00  0.00     0.048 P 
HETATM   21 BR1  UNL     1      20.659   4.129  51.520  1.00  0.00    -0.042 Br
BRANCH  20  22
HETATM   22  C2  UNL     1      22.192   2.029  49.274  1.00  0.00    -0.001 C 
HETATM   23  C1  UNL     1      21.468   0.797  49.704  1.00  0.00     0.038 C 
ENDBRANCH  20  22
ENDBRANCH  19  20
ENDBRANCH  18  19
ENDBRANCH  17  18
ENDBRANCH  14  16
ENDBRANCH   1  14
TORSDOF 6
ENDMDL
MODEL 5
REMARK VINA RESULT:      -6.3      2.089      4.070
REMARK  6 active torsions:
REMARK  status: ('A' for Active; 'I' for Inactive)
REMARK    1  A    between atoms: C2_2  and  P1_3 
REMARK    2  A    between atoms: P1_3  and  C3_5 
REMARK    3  A    between atoms: C3_5  and  C4_6 
REMARK    4  A    between atoms: C4_6  and  C5_7 
REMARK    5  A    between atoms: C6_8  and  N1_9 
REMARK    6  A    between atoms: N1_9  and  C7_10 
ROOT
HETATM    1  C7  UNL     1      25.794   0.914  52.430  1.00  0.00     0.159 A 
HETATM    2  N2  UNL     1      27.060   0.586  52.709  1.00  0.00    -0.222 NA
HETATM    3  C8  UNL     1      27.231  -0.296  53.735  1.00  0.00     0.238 A 
HETATM    4  N3  UNL     1      26.186  -0.799  54.415  1.00  0.00    -0.215 NA
HETATM    5  C9  UNL     1      24.912  -0.465  54.129  1.00  0.00     0.201 A 
HETATM    6  C10 UNL     1      24.701   0.423  53.099  1.00  0.00     0.129 A 
HETATM    7  N4  UNL     1      23.464   0.900  52.643  1.00  0.00    -0.379 N 
HETATM    8  C11 UNL     1      22.131   0.901  53.209  1.00  0.00     0.157 C 
HETATM    9  C12 UNL     1      21.783  -0.352  53.899  1.00  0.00    -0.026 A 
HETATM   10  C13 UNL     1      22.571  -1.143  54.607  1.00  0.00     0.064 A 
HETATM   11  C14 UNL     1      21.210  -1.555  54.497  1.00  0.00     0.103 A 
HETATM   12  O1  UNL     1      23.935  -1.079  54.935  1.00  0.00    -0.294 OA
HETATM   13  H10 UNL     1      23.528   1.348  51.693  1.00  0.00     0.160 HD
ENDROOT
BRANCH   1  14
HETATM   14  N1  UNL     1      25.627   1.827  51.367  1.00  0.00    -0.349 N 
HETATM   15  H8  UNL     1      25.054   2.199  50.608  1.00  0.00     0.167 HD
BRANCH  14  16
HETATM   16  C6  UNL     1      26.667   2.760  51.057  1.00  0.00     0.090 C 
HETATM   17  C5  UNL     1      26.421   3.613  50.047  1.00  0.00     0.025 C 
BRANCH  17  18
HETATM   18  C4  UNL     1      25.109   3.396  49.469  1.00  0.00     0.058 C 
BRANCH  18  19
HETATM   19  C3  UNL     1      23.984   4.108  49.506  1.00  0.00    -0.109 C 
BRANCH  19  20
HETATM   20  P1  UNL     1      22.827   5.198  49.925  1.00  0.00     0.048 P 
HETATM   21 BR1  UNL     1      22.518   6.681  48.301  1.00  0.00    -0.042 Br
BRANCH  20  22
HETATM   22  C2  UNL     1      23.142   5.578  51.495  1.00  0.00    -0.001 C 
HETATM   23  C1  UNL     1      23.403   4.642  52.628  1.00  0.00     0.038 C 
ENDBRANCH  20  22
ENDBRANCH  19  20
ENDBRANCH  18  19
ENDBRANCH  17  18
ENDBRANCH  14  16
ENDBRANCH   1  14
TORSDOF 6
ENDMDL
MODEL 6
REMARK VINA RESULT:      -6.0      3.205      4.715
REMARK  6 active torsions:
REMARK  status: ('A' for Active; 'I' for Inactive)
REMARK    1  A    between atoms: C2_2  and  P1_3 
REMARK    2  A    between atoms: P1_3  and  C3_5 
REMARK    3  A    between atoms: C3_5  and  C4_6 
REMARK    4  A    between atoms: C4_6  and  C5_7 
REMARK    5  A    between atoms: C6_8  and  N1_9 
REMARK    6  A    between atoms: N1_9  and  C7_10 
ROOT
HETATM    1  C7  UNL     1      24.913   0.623  53.075  1.00  0.00     0.159 A 
HETATM    2  N2  UNL     1      25.808   0.033  53.873  1.00  0.00    -0.222 NA
HETATM    3  C8  UNL     1      27.113   0.356  53.640  1.00  0.00     0.238 A 
HETATM    4  N3  UNL     1      27.466   1.214  52.667  1.00  0.00    -0.215 NA
HETATM    5  C9  UNL     1      26.558   1.805  51.865  1.00  0.00     0.201 A 
HETATM    6  C10 UNL     1      25.231   1.504  52.071  1.00  0.00     0.129 A 
HETATM    7  N4  UNL     1      24.136   2.005  51.353  1.00  0.00    -0.379 N 
HETATM    8  C11 UNL     1      24.010   2.684  50.080  1.00  0.00     0.157 C 
HETATM    9  C12 UNL     1      25.065   3.682  49.838  1.00  0.00    -0.026 A 
HETATM   10  C13 UNL     1      26.337   3.634  50.199  1.00  0.00     0.064 A 
HETATM   11  C14 UNL     1      25.934   4.801  49.485  1.00  0.00     0.103 A 
HETATM   12  O1  UNL     1      27.091   2.677  50.896  1.00  0.00    -0.294 OA
HETATM   13  H10 UNL     1      23.221   1.850  51.849  1.00  0.00     0.160 HD
ENDROOT
BRANCH   1  14
HETATM   14  N1  UNL     1      23.566   0.284  53.323  1.00  0.00    -0.349 N 
HETATM   15  H8  UNL     1      22.571   0.457  53.168  1.00  0.00     0.167 HD
BRANCH  14  16
HETATM   16  C6  UNL     1      23.254  -0.807  54.194  1.00  0.00     0.090 C 
HETATM   17  C5  UNL     1      22.007  -0.830  54.698  1.00  0.00     0.025 C 
BRANCH  17  18
HETATM   18  C4  UNL     1      21.219   0.296  54.232  1.00  0.00     0.058 C 
BRANCH  18  19
HETATM   19  C3  UNL     1      20.319   0.418  53.259  1.00  0.00    -0.109 C 
BRANCH  19  20
HETATM   20  P1  UNL     1      19.503   0.933  51.928  1.00  0.00     0.048 P 
HETATM   21 BR1  UNL     1      17.731  -0.351  51.545  1.00  0.00    -0.042 Br
BRANCH  20  22
HETATM   22  C2  UNL     1      20.667   1.281  50.818  1.00  0.00    -0.001 C 
HETATM   23  C1  UNL     1      20.564   1.207  49.331  1.00  0.00     0.038 C 
ENDBRANCH  20  22
ENDBRANCH  19  20
ENDBRANCH  18  19
ENDBRANCH  17  18
ENDBRANCH  14  16
ENDBRANCH   1  14
TORSDOF 6
ENDMDL
MODEL 7
REMARK VINA RESULT:      -5.9      3.011      3.767
REMARK  6 active torsions:
REMARK  status: ('A' for Active; 'I' for Inactive)
REMARK    1  A    between atoms: C2_2  and  P1_3 
REMARK    2  A    between atoms: P1_3  and  C3_5 
REMARK    3  A    between atoms: C3_5  and  C4_6 
REMARK    4  A    between atoms: C4_6  and  C5_7 
REMARK    5  A    between atoms: C6_8  and  N1_9 
REMARK    6  A    between atoms: N1_9  and  C7_10 
ROOT
HETATM    1  C7  UNL     1      23.962   2.327  52.228  1.00  0.00     0.159 A 
HETATM    2  N2  UNL     1      22.720   1.837  52.307  1.00  0.00    -0.222 NA
HETATM    3  C8  UNL     1      22.595   0.637  52.944  1.00  0.00     0.238 A 
HETATM    4  N3  UNL     1      23.660  -0.003  53.458  1.00  0.00    -0.215 NA
HETATM    5  C9  UNL     1      24.909   0.495  53.376  1.00  0.00     0.201 A 
HETATM    6  C10 UNL     1      25.074   1.705  52.739  1.00  0.00     0.129 A 
HETATM    7  N4  UNL     1      26.279   2.394  52.544  1.00  0.00    -0.379 N 
HETATM    8  C11 UNL     1      27.671   2.003  52.633  1.00  0.00     0.157 C 
HETATM    9  C12 UNL     1      27.962   1.115  53.770  1.00  0.00    -0.026 A 
HETATM   10  C13 UNL     1      27.196   0.169  54.289  1.00  0.00     0.064 A 
HETATM   11  C14 UNL     1      28.467   0.353  54.909  1.00  0.00     0.103 A 
HETATM   12  O1  UNL     1      25.913  -0.298  53.964  1.00  0.00    -0.294 OA
HETATM   13  H10 UNL     1      26.133   3.401  52.280  1.00  0.00     0.160 HD
ENDROOT
BRANCH   1  14
HETATM   14  N1  UNL     1      24.081   3.568  51.567  1.00  0.00    -0.349 N 
HETATM   15  H8  UNL     1      24.523   4.486  51.491  1.00  0.00     0.167 HD
BRANCH  14  16
HETATM   16  C6  UNL     1      23.260   3.853  50.431  1.00  0.00     0.090 C 
HETATM   17  C5  UNL     1      23.873   4.428  49.381  1.00  0.00     0.025 C 
BRANCH  17  18
HETATM   18  C4  UNL     1      25.285   4.642  49.636  1.00  0.00     0.058 C 
BRANCH  18  19
HETATM   19  C3  UNL     1      26.213   5.353  48.999  1.00  0.00    -0.109 C 
BRANCH  19  20
HETATM   20  P1  UNL     1      27.233   6.561  48.548  1.00  0.00     0.048 P 
HETATM   21 BR1  UNL     1      26.214   7.978  47.172  1.00  0.00    -0.042 Br
BRANCH  20  22
HETATM   22  C2  UNL     1      28.668   5.820  48.236  1.00  0.00    -0.001 C 
HETATM   23  C1  UNL     1      29.903   6.425  47.657  1.00  0.00     0.038 C 
ENDBRANCH  20  22
ENDBRANCH  19  20
ENDBRANCH  18  19
ENDBRANCH  17  18
ENDBRANCH  14  16
ENDBRANCH   1  14
TORSDOF 6
ENDMDL
MODEL 8
REMARK VINA RESULT:      -5.8      5.282      7.395
REMARK  6 active torsions:
REMARK  status: ('A' for Active; 'I' for Inactive)
REMARK    1  A    between atoms: C2_2  and  P1_3 
REMARK    2  A    between atoms: P1_3  and  C3_5 
REMARK    3  A    between atoms: C3_5  and  C4_6 
REMARK    4  A    between atoms: C4_6  and  C5_7 
REMARK    5  A    between atoms: C6_8  and  N1_9 
REMARK    6  A    between atoms: N1_9  and  C7_10 
ROOT
HETATM    1  C7  UNL     1      25.406   5.636  49.744  1.00  0.00     0.159 A 
HETATM    2  N2  UNL     1      24.420   6.414  49.287  1.00  0.00    -0.222 NA
HETATM    3  C8  UNL     1      23.162   5.896  49.388  1.00  0.00     0.238 A 
HETATM    4  N3  UNL     1      22.939   4.680  49.914  1.00  0.00    -0.215 NA
HETATM    5  C9  UNL     1      23.938   3.899  50.373  1.00  0.00     0.201 A 
HETATM    6  C10 UNL     1      25.221   4.389  50.288  1.00  0.00     0.129 A 
HETATM    7  N4  UNL     1      26.395   3.744  50.703  1.00  0.00    -0.379 N 
HETATM    8  C11 UNL     1      26.707   2.369  51.034  1.00  0.00     0.157 C 
HETATM    9  C12 UNL     1      25.653   1.694  51.807  1.00  0.00    -0.026 A 
HETATM   10  C13 UNL     1      24.342   1.847  51.712  1.00  0.00     0.064 A 
HETATM   11  C14 UNL     1      24.792   0.910  52.689  1.00  0.00     0.103 A 
HETATM   12  O1  UNL     1      23.537   2.654  50.893  1.00  0.00    -0.294 OA
HETATM   13  H10 UNL     1      27.211   4.402  50.789  1.00  0.00     0.160 HD
ENDROOT
BRANCH   1  14
HETATM   14  N1  UNL     1      26.704   6.180  49.636  1.00  0.00    -0.349 N 
HETATM   15  H8  UNL     1      27.679   6.200  49.942  1.00  0.00     0.167 HD
BRANCH  14  16
HETATM   16  C6  UNL     1      26.965   7.221  48.691  1.00  0.00     0.090 C 
HETATM   17  C5  UNL     1      28.040   7.053  47.900  1.00  0.00     0.025 C 
BRANCH  17  18
HETATM   18  C4  UNL     1      28.726   5.807  48.185  1.00  0.00     0.058 C 
BRANCH  18  19
HETATM   19  C3  UNL     1      30.017   5.500  48.295  1.00  0.00    -0.109 C 
BRANCH  19  20
HETATM   20  P1  UNL     1      31.658   5.591  48.311  1.00  0.00     0.048 P 
HETATM   21 BR1  UNL     1      32.328   7.625  48.902  1.00  0.00    -0.042 Br
BRANCH  20  22
HETATM   22  C2  UNL     1      32.147   4.800  46.954  1.00  0.00    -0.001 C 
HETATM   23  C1  UNL     1      32.004   3.348  46.640  1.00  0.00     0.038 C 
ENDBRANCH  20  22
ENDBRANCH  19  20
ENDBRANCH  18  19
ENDBRANCH  17  18
ENDBRANCH  14  16
ENDBRANCH   1  14
TORSDOF 6
ENDMDL
MODEL 9
REMARK VINA RESULT:      -5.7      4.902      7.149
REMARK  6 active torsions:
REMARK  status: ('A' for Active; 'I' for Inactive)
REMARK    1  A    between atoms: C2_2  and  P1_3 
REMARK    2  A    between atoms: P1_3  and  C3_5 
REMARK    3  A    between atoms: C3_5  and  C4_6 
REMARK    4  A    between atoms: C4_6  and  C5_7 
REMARK    5  A    between atoms: C6_8  and  N1_9 
REMARK    6  A    between atoms: N1_9  and  C7_10 
ROOT
HETATM    1  C7  UNL     1      24.997   5.271  50.318  1.00  0.00     0.159 A 
HETATM    2  N2  UNL     1      23.998   5.886  50.960  1.00  0.00    -0.222 NA
HETATM    3  C8  UNL     1      24.025   7.249  50.930  1.00  0.00     0.238 A 
HETATM    4  N3  UNL     1      24.999   7.922  50.293  1.00  0.00    -0.215 NA
HETATM    5  C9  UNL     1      26.003   7.297  49.648  1.00  0.00     0.201 A 
HETATM    6  C10 UNL     1      26.009   5.921  49.657  1.00  0.00     0.129 A 
HETATM    7  N4  UNL     1      26.956   5.081  49.052  1.00  0.00    -0.379 N 
HETATM    8  C11 UNL     1      28.291   5.302  48.535  1.00  0.00     0.157 C 
HETATM    9  C12 UNL     1      28.437   6.569  47.801  1.00  0.00    -0.026 A 
HETATM   10  C13 UNL     1      27.852   7.730  48.047  1.00  0.00     0.064 A 
HETATM   11  C14 UNL     1      28.736   7.701  46.928  1.00  0.00     0.103 A 
HETATM   12  O1  UNL     1      26.942   8.146  49.032  1.00  0.00    -0.294 OA
HETATM   13  H10 UNL     1      26.618   4.090  48.959  1.00  0.00     0.160 HD
ENDROOT
BRANCH   1  14
HETATM   14  N1  UNL     1      24.960   3.861  50.354  1.00  0.00    -0.349 N 
HETATM   15  H8  UNL     1      25.389   2.975  50.631  1.00  0.00     0.167 HD
BRANCH  14  16
HETATM   16  C6  UNL     1      23.864   3.160  49.761  1.00  0.00     0.090 C 
HETATM   17  C5  UNL     1      23.247   2.250  50.537  1.00  0.00     0.025 C 
BRANCH  17  18
HETATM   18  C4  UNL     1      23.848   2.174  51.855  1.00  0.00     0.058 C 
BRANCH  18  19
HETATM   19  C3  UNL     1      24.471   1.190  52.500  1.00  0.00    -0.109 C 
BRANCH  19  20
HETATM   20  P1  UNL     1      24.782  -0.139  53.417  1.00  0.00     0.048 P 
HETATM   21 BR1  UNL     1      26.568  -1.219  52.657  1.00  0.00    -0.042 Br
BRANCH  20  22
HETATM   22  C2  UNL     1      23.313  -0.829  53.688  1.00  0.00    -0.001 C 
HETATM   23  C1  UNL     1      22.023  -0.144  53.996  1.00  0.00     0.038 C 
ENDBRANCH  20  22
ENDBRANCH  19  20
ENDBRANCH  18  19
ENDBRANCH  17  18
ENDBRANCH  14  16
ENDBRANCH   1  14
TORSDOF 6
ENDMDL
