MODEL 1
REMARK VINA RESULT:      -7.4      0.000      0.000
REMARK  5 active torsions:
REMARK  status: ('A' for Active; 'I' for Inactive)
REMARK    1  A    between atoms: N1_2  and  C3_4 
REMARK    2  A    between atoms: C3_4  and  C4_5 
REMARK    3  A    between atoms: C4_5  and  C5_6 
REMARK    4  A    between atoms: C5_6  and  C6_7 
REMARK    5  A    between atoms: C6_7  and  C7_9 
ROOT
HETATM    1  C7  UNL     1      23.503  -0.072  53.146  1.00  0.00     0.021 C 
HETATM    2  C8  UNL     1      22.366  -0.557  53.397  1.00  0.00    -0.011 C 
HETATM    3  C9  UNL     1      21.372  -0.114  52.739  1.00  0.00     0.010 C 
HETATM    4  C10 UNL     1      21.364   0.245  51.413  1.00  0.00     0.002 C 
HETATM    5  C11 UNL     1      21.321   0.538  50.069  1.00  0.00     0.004 C 
HETATM    6  C12 UNL     1      21.517   1.274  48.781  1.00  0.00     0.030 C 
HETATM    7  C13 UNL     1      22.145   2.411  48.761  1.00  0.00     0.001 C 
HETATM    8  C14 UNL     1      22.572   3.466  47.905  1.00  0.00    -0.002 C 
HETATM    9  C15 UNL     1      23.192   4.110  48.952  1.00  0.00     0.131 C 
HETATM   10  O2  UNL     1      23.237   3.622  50.300  1.00  0.00    -0.360 OA
HETATM   11  C16 UNL     1      24.446   3.114  50.779  1.00  0.00     0.202 C 
HETATM   12  C17 UNL     1      24.519   1.975  51.650  1.00  0.00     0.000 C 
HETATM   13  C18 UNL     1      23.992   0.996  52.363  1.00  0.00     0.014 C 
ENDROOT
BRANCH   1  14
HETATM   14  C6  UNL     1      24.802  -0.448  53.550  1.00  0.00     0.160 C 
HETATM   15  O1  UNL     1      25.717  -0.975  52.880  1.00  0.00    -0.292 OA
BRANCH  14  16
HETATM   16  C5  UNL     1      25.772  -0.517  54.624  1.00  0.00     0.085 C 
BRANCH  16  17
HETATM   17  C4  UNL     1      26.762   0.600  54.657  1.00  0.00     0.038 C 
BRANCH  17  18
HETATM   18  C3  UNL     1      28.149   0.178  55.069  1.00  0.00     0.271 C 
BRANCH  18  19
HETATM   19  N1  UNL     1      29.166   0.758  54.206  1.00  0.00     0.080 N 
HETATM   20  C1  UNL     1      29.853  -0.188  53.394  1.00  0.00     0.309 C 
HETATM   21  C2  UNL     1      28.511   1.710  53.338  1.00  0.00     0.309 C 
ENDBRANCH  18  19
ENDBRANCH  17  18
ENDBRANCH  16  17
ENDBRANCH  14  16
ENDBRANCH   1  14
TORSDOF 5
ENDMDL
MODEL 2
REMARK VINA RESULT:      -7.1      2.389      2.739
REMARK  5 active torsions:
REMARK  status: ('A' for Active; 'I' for Inactive)
REMARK    1  A    between atoms: N1_2  and  C3_4 
REMARK    2  A    between atoms: C3_4  and  C4_5 
REMARK    3  A    between atoms: C4_5  and  C5_6 
REMARK    4  A    between atoms: C5_6  and  C6_7 
REMARK    5  A    between atoms: C6_7  and  C7_9 
ROOT
HETATM    1  C7  UNL     1      23.000  -0.285  53.912  1.00  0.00     0.021 C 
HETATM    2  C8  UNL     1      22.414  -1.166  54.600  1.00  0.00    -0.011 C 
HETATM    3  C9  UNL     1      21.146  -1.112  54.679  1.00  0.00     0.010 C 
HETATM    4  C10 UNL     1      20.279  -0.753  53.675  1.00  0.00     0.002 C 
HETATM    5  C11 UNL     1      19.394  -0.468  52.660  1.00  0.00     0.004 C 
HETATM    6  C12 UNL     1      18.594   0.317  51.669  1.00  0.00     0.030 C 
HETATM    7  C13 UNL     1      18.728   1.606  51.587  1.00  0.00     0.001 C 
HETATM    8  C14 UNL     1      18.255   2.763  50.903  1.00  0.00    -0.002 C 
HETATM    9  C15 UNL     1      19.136   3.569  51.589  1.00  0.00     0.131 C 
HETATM   10  O2  UNL     1      20.082   3.104  52.561  1.00  0.00    -0.360 OA
HETATM   11  C16 UNL     1      21.433   3.074  52.208  1.00  0.00     0.202 C 
HETATM   12  C17 UNL     1      22.322   2.026  52.624  1.00  0.00     0.000 C 
HETATM   13  C18 UNL     1      22.614   0.906  53.260  1.00  0.00     0.014 C 
ENDROOT
BRANCH   1  14
HETATM   14  C6  UNL     1      24.338  -0.156  53.482  1.00  0.00     0.160 C 
HETATM   15  O1  UNL     1      25.034  -0.954  52.817  1.00  0.00    -0.292 OA
BRANCH  14  16
HETATM   16  C5  UNL     1      25.536   0.658  53.452  1.00  0.00     0.085 C 
BRANCH  16  17
HETATM   17  C4  UNL     1      26.817  -0.094  53.600  1.00  0.00     0.038 C 
BRANCH  17  18
HETATM   18  C3  UNL     1      27.599   0.262  54.838  1.00  0.00     0.271 C 
BRANCH  18  19
HETATM   19  N1  UNL     1      28.971   0.625  54.520  1.00  0.00     0.080 N 
HETATM   20  C1  UNL     1      29.624  -0.275  53.631  1.00  0.00     0.309 C 
HETATM   21  C2  UNL     1      28.947   1.933  53.906  1.00  0.00     0.309 C 
ENDBRANCH  18  19
ENDBRANCH  17  18
ENDBRANCH  16  17
ENDBRANCH  14  16
ENDBRANCH   1  14
TORSDOF 5
ENDMDL
MODEL 3
REMARK VINA RESULT:      -7.0      3.860      6.632
REMARK  5 active torsions:
REMARK  status: ('A' for Active; 'I' for Inactive)
REMARK    1  A    between atoms: N1_2  and  C3_4 
REMARK    2  A    between atoms: C3_4  and  C4_5 
REMARK    3  A    between atoms: C4_5  and  C5_6 
REMARK    4  A    between atoms: C5_6  and  C6_7 
REMARK    5  A    between atoms: C6_7  and  C7_9 
ROOT
HETATM    1  C7  UNL     1      24.849   3.635  49.476  1.00  0.00     0.021 C 
HETATM    2  C8  UNL     1      23.708   3.477  48.961  1.00  0.00    -0.011 C 
HETATM    3  C9  UNL     1      23.018   2.479  49.341  1.00  0.00     0.010 C 
HETATM    4  C10 UNL     1      22.950   1.970  50.615  1.00  0.00     0.002 C 
HETATM    5  C11 UNL     1      22.814   1.493  51.899  1.00  0.00     0.004 C 
HETATM    6  C12 UNL     1      23.128   0.783  53.178  1.00  0.00     0.030 C 
HETATM    7  C13 UNL     1      24.260   0.165  53.328  1.00  0.00     0.001 C 
HETATM    8  C14 UNL     1      25.021  -0.623  54.239  1.00  0.00    -0.002 C 
HETATM    9  C15 UNL     1      26.083  -0.668  53.365  1.00  0.00     0.131 C 
HETATM   10  O2  UNL     1      26.114  -0.028  52.082  1.00  0.00    -0.360 OA
HETATM   11  C16 UNL     1      26.908   1.111  51.930  1.00  0.00     0.202 C 
HETATM   12  C17 UNL     1      26.509   2.234  51.131  1.00  0.00     0.000 C 
HETATM   13  C18 UNL     1      25.682   2.882  50.331  1.00  0.00     0.014 C 
ENDROOT
BRANCH   1  14
HETATM   14  C6  UNL     1      25.774   4.700  49.416  1.00  0.00     0.160 C 
HETATM   15  O1  UNL     1      25.752   5.802  50.007  1.00  0.00    -0.292 OA
BRANCH  14  16
HETATM   16  C5  UNL     1      27.010   5.211  48.858  1.00  0.00     0.085 C 
BRANCH  16  17
HETATM   17  C4  UNL     1      26.942   6.610  48.343  1.00  0.00     0.038 C 
BRANCH  17  18
HETATM   18  C3  UNL     1      28.282   7.197  47.981  1.00  0.00     0.271 C 
BRANCH  18  19
HETATM   19  N1  UNL     1      28.440   8.543  48.509  1.00  0.00     0.080 N 
HETATM   20  C1  UNL     1      27.546   8.864  49.570  1.00  0.00     0.309 C 
HETATM   21  C2  UNL     1      29.792   8.664  49.003  1.00  0.00     0.309 C 
ENDBRANCH  18  19
ENDBRANCH  17  18
ENDBRANCH  16  17
ENDBRANCH  14  16
ENDBRANCH   1  14
TORSDOF 5
ENDMDL
MODEL 4
REMARK VINA RESULT:      -6.8      3.210      6.753
REMARK  5 active torsions:
REMARK  status: ('A' for Active; 'I' for Inactive)
REMARK    1  A    between atoms: N1_2  and  C3_4 
REMARK    2  A    between atoms: C3_4  and  C4_5 
REMARK    3  A    between atoms: C4_5  and  C5_6 
REMARK    4  A    between atoms: C5_6  and  C6_7 
REMARK    5  A    between atoms: C6_7  and  C7_9 
ROOT
HETATM    1  C7  UNL     1      24.674   3.803  49.462  1.00  0.00     0.021 C 
HETATM    2  C8  UNL     1      23.563   3.569  48.911  1.00  0.00    -0.011 C 
HETATM    3  C9  UNL     1      22.950   2.504  49.240  1.00  0.00     0.010 C 
HETATM    4  C10 UNL     1      22.894   1.947  50.494  1.00  0.00     0.002 C 
HETATM    5  C11 UNL     1      22.767   1.417  51.758  1.00  0.00     0.004 C 
HETATM    6  C12 UNL     1      23.108   0.691  53.021  1.00  0.00     0.030 C 
HETATM    7  C13 UNL     1      24.284   0.165  53.182  1.00  0.00     0.001 C 
HETATM    8  C14 UNL     1      25.086  -0.588  54.088  1.00  0.00    -0.002 C 
HETATM    9  C15 UNL     1      26.169  -0.515  53.242  1.00  0.00     0.131 C 
HETATM   10  O2  UNL     1      26.178   0.170  51.982  1.00  0.00    -0.360 OA
HETATM   11  C16 UNL     1      26.877   1.375  51.888  1.00  0.00     0.202 C 
HETATM   12  C17 UNL     1      26.405   2.489  51.115  1.00  0.00     0.000 C 
HETATM   13  C18 UNL     1      25.546   3.093  50.315  1.00  0.00     0.014 C 
ENDROOT
BRANCH   1  14
HETATM   14  C6  UNL     1      25.507   4.943  49.462  1.00  0.00     0.160 C 
HETATM   15  O1  UNL     1      26.627   5.103  48.928  1.00  0.00    -0.292 OA
BRANCH  14  16
HETATM   16  C5  UNL     1      25.700   6.312  49.893  1.00  0.00     0.085 C 
BRANCH  16  17
HETATM   17  C4  UNL     1      24.611   6.865  50.752  1.00  0.00     0.038 C 
BRANCH  17  18
HETATM   18  C3  UNL     1      23.381   7.286  49.989  1.00  0.00     0.271 C 
BRANCH  18  19
HETATM   19  N1  UNL     1      22.198   7.288  50.835  1.00  0.00     0.080 N 
HETATM   20  C1  UNL     1      21.039   7.839  50.219  1.00  0.00     0.309 C 
HETATM   21  C2  UNL     1      21.914   5.918  51.193  1.00  0.00     0.309 C 
ENDBRANCH  18  19
ENDBRANCH  17  18
ENDBRANCH  16  17
ENDBRANCH  14  16
ENDBRANCH   1  14
TORSDOF 5
ENDMDL
MODEL 5
REMARK VINA RESULT:      -6.6      2.425      5.909
REMARK  5 active torsions:
REMARK  status: ('A' for Active; 'I' for Inactive)
REMARK    1  A    between atoms: N1_2  and  C3_4 
REMARK    2  A    between atoms: C3_4  and  C4_5 
REMARK    3  A    between atoms: C4_5  and  C5_6 
REMARK    4  A    between atoms: C5_6  and  C6_7 
REMARK    5  A    between atoms: C6_7  and  C7_9 
ROOT
HETATM    1  C7  UNL     1      22.267   0.903  52.251  1.00  0.00     0.021 C 
HETATM    2  C8  UNL     1      21.747  -0.180  52.634  1.00  0.00    -0.011 C 
HETATM    3  C9  UNL     1      22.515  -1.070  53.119  1.00  0.00     0.010 C 
HETATM    4  C10 UNL     1      23.613  -0.856  53.916  1.00  0.00     0.002 C 
HETATM    5  C11 UNL     1      24.671  -0.663  54.775  1.00  0.00     0.004 C 
HETATM    6  C12 UNL     1      26.041  -0.313  55.265  1.00  0.00     0.030 C 
HETATM    7  C13 UNL     1      26.940   0.136  54.444  1.00  0.00     0.001 C 
HETATM    8  C14 UNL     1      28.293   0.575  54.357  1.00  0.00    -0.002 C 
HETATM    9  C15 UNL     1      28.148   0.868  53.020  1.00  0.00     0.131 C 
HETATM   10  O2  UNL     1      26.934   0.704  52.274  1.00  0.00    -0.360 OA
HETATM   11  C16 UNL     1      26.221   1.848  51.911  1.00  0.00     0.202 C 
HETATM   12  C17 UNL     1      24.786   1.902  51.911  1.00  0.00     0.000 C 
HETATM   13  C18 UNL     1      23.583   1.385  52.085  1.00  0.00     0.014 C 
ENDROOT
BRANCH   1  14
HETATM   14  C6  UNL     1      21.703   2.131  51.843  1.00  0.00     0.160 C 
HETATM   15  O1  UNL     1      21.366   2.505  50.698  1.00  0.00    -0.292 OA
BRANCH  14  16
HETATM   16  C5  UNL     1      21.234   3.446  52.231  1.00  0.00     0.085 C 
BRANCH  16  17
HETATM   17  C4  UNL     1      21.860   4.584  51.496  1.00  0.00     0.038 C 
BRANCH  17  18
HETATM   18  C3  UNL     1      23.094   5.139  52.160  1.00  0.00     0.271 C 
BRANCH  18  19
HETATM   19  N1  UNL     1      24.128   5.460  51.189  1.00  0.00     0.080 N 
HETATM   20  C1  UNL     1      23.903   4.917  49.893  1.00  0.00     0.309 C 
HETATM   21  C2  UNL     1      24.189   6.899  51.074  1.00  0.00     0.309 C 
ENDBRANCH  18  19
ENDBRANCH  17  18
ENDBRANCH  16  17
ENDBRANCH  14  16
ENDBRANCH   1  14
TORSDOF 5
ENDMDL
MODEL 6
REMARK VINA RESULT:      -6.6      3.005      6.639
REMARK  5 active torsions:
REMARK  status: ('A' for Active; 'I' for Inactive)
REMARK    1  A    between atoms: N1_2  and  C3_4 
REMARK    2  A    between atoms: C3_4  and  C4_5 
REMARK    3  A    between atoms: C4_5  and  C5_6 
REMARK    4  A    between atoms: C5_6  and  C6_7 
REMARK    5  A    between atoms: C6_7  and  C7_9 
ROOT
HETATM    1  C7  UNL     1      21.700   2.861  52.294  1.00  0.00     0.021 C 
HETATM    2  C8  UNL     1      22.120   4.049  52.218  1.00  0.00    -0.011 C 
HETATM    3  C9  UNL     1      23.365   4.250  52.383  1.00  0.00     0.010 C 
HETATM    4  C10 UNL     1      24.388   3.441  51.953  1.00  0.00     0.002 C 
HETATM    5  C11 UNL     1      25.426   2.680  51.465  1.00  0.00     0.004 C 
HETATM    6  C12 UNL     1      26.411   1.561  51.333  1.00  0.00     0.030 C 
HETATM    7  C13 UNL     1      26.379   0.555  52.153  1.00  0.00     0.001 C 
HETATM    8  C14 UNL     1      27.023  -0.673  52.482  1.00  0.00    -0.002 C 
HETATM    9  C15 UNL     1      26.110  -0.921  53.483  1.00  0.00     0.131 C 
HETATM   10  O2  UNL     1      25.006  -0.068  53.813  1.00  0.00    -0.360 OA
HETATM   11  C16 UNL     1      23.720  -0.484  53.461  1.00  0.00     0.202 C 
HETATM   12  C17 UNL     1      22.712   0.422  52.991  1.00  0.00     0.000 C 
HETATM   13  C18 UNL     1      22.256   1.618  52.663  1.00  0.00     0.014 C 
ENDROOT
BRANCH   1  14
HETATM   14  C6  UNL     1      20.449   2.280  51.996  1.00  0.00     0.160 C 
HETATM   15  O1  UNL     1      19.301   2.677  52.294  1.00  0.00    -0.292 OA
BRANCH  14  16
HETATM   16  C5  UNL     1      19.730   1.193  51.362  1.00  0.00     0.085 C 
BRANCH  16  17
HETATM   17  C4  UNL     1      19.628   1.284  49.875  1.00  0.00     0.038 C 
BRANCH  17  18
HETATM   18  C3  UNL     1      20.950   1.168  49.161  1.00  0.00     0.271 C 
BRANCH  18  19
HETATM   19  N1  UNL     1      21.090   2.179  48.125  1.00  0.00     0.080 N 
HETATM   20  C1  UNL     1      20.829   3.508  48.563  1.00  0.00     0.309 C 
HETATM   21  C2  UNL     1      22.449   2.121  47.638  1.00  0.00     0.309 C 
ENDBRANCH  18  19
ENDBRANCH  17  18
ENDBRANCH  16  17
ENDBRANCH  14  16
ENDBRANCH   1  14
TORSDOF 5
ENDMDL
MODEL 7
REMARK VINA RESULT:      -6.5      2.655      5.900
REMARK  5 active torsions:
REMARK  status: ('A' for Active; 'I' for Inactive)
REMARK    1  A    between atoms: N1_2  and  C3_4 
REMARK    2  A    between atoms: C3_4  and  C4_5 
REMARK    3  A    between atoms: C4_5  and  C5_6 
REMARK    4  A    between atoms: C5_6  and  C6_7 
REMARK    5  A    between atoms: C6_7  and  C7_9 
ROOT
HETATM    1  C7  UNL     1      22.812   2.199  50.234  1.00  0.00     0.021 C 
HETATM    2  C8  UNL     1      21.832   1.675  49.637  1.00  0.00    -0.011 C 
HETATM    3  C9  UNL     1      21.377   0.578  50.091  1.00  0.00     0.010 C 
HETATM    4  C10 UNL     1      21.269   0.223  51.414  1.00  0.00     0.002 C 
HETATM    5  C11 UNL     1      21.086  -0.118  52.734  1.00  0.00     0.004 C 
HETATM    6  C12 UNL     1      21.394  -0.560  54.130  1.00  0.00     0.030 C 
HETATM    7  C13 UNL     1      22.616  -0.823  54.484  1.00  0.00     0.001 C 
HETATM    8  C14 UNL     1      23.422  -1.259  55.574  1.00  0.00    -0.002 C 
HETATM    9  C15 UNL     1      24.570  -1.115  54.827  1.00  0.00     0.131 C 
HETATM   10  O2  UNL     1      24.610  -0.646  53.473  1.00  0.00    -0.360 OA
HETATM   11  C16 UNL     1      25.096   0.641  53.232  1.00  0.00     0.202 C 
HETATM   12  C17 UNL     1      24.535   1.511  52.238  1.00  0.00     0.000 C 
HETATM   13  C18 UNL     1      23.686   1.809  51.271  1.00  0.00     0.014 C 
ENDROOT
BRANCH   1  14
HETATM   14  C6  UNL     1      23.431   3.462  50.108  1.00  0.00     0.160 C 
HETATM   15  O1  UNL     1      23.437   4.423  50.908  1.00  0.00    -0.292 OA
BRANCH  14  16
HETATM   16  C5  UNL     1      24.241   4.346  49.295  1.00  0.00     0.085 C 
BRANCH  16  17
HETATM   17  C4  UNL     1      25.472   4.868  49.960  1.00  0.00     0.038 C 
BRANCH  17  18
HETATM   18  C3  UNL     1      25.856   6.262  49.534  1.00  0.00     0.271 C 
BRANCH  18  19
HETATM   19  N1  UNL     1      27.201   6.303  48.981  1.00  0.00     0.080 N 
HETATM   20  C1  UNL     1      27.686   5.044  48.528  1.00  0.00     0.309 C 
HETATM   21  C2  UNL     1      27.185   7.214  47.860  1.00  0.00     0.309 C 
ENDBRANCH  18  19
ENDBRANCH  17  18
ENDBRANCH  16  17
ENDBRANCH  14  16
ENDBRANCH   1  14
TORSDOF 5
ENDMDL
MODEL 8
REMARK VINA RESULT:      -6.5      2.535      6.355
REMARK  5 active torsions:
REMARK  status: ('A' for Active; 'I' for Inactive)
REMARK    1  A    between atoms: N1_2  and  C3_4 
REMARK    2  A    between atoms: C3_4  and  C4_5 
REMARK    3  A    between atoms: C4_5  and  C5_6 
REMARK    4  A    between atoms: C5_6  and  C6_7 
REMARK    5  A    between atoms: C6_7  and  C7_9 
ROOT
HETATM    1  C7  UNL     1      21.009   0.075  53.206  1.00  0.00     0.021 C 
HETATM    2  C8  UNL     1      20.561  -0.943  53.801  1.00  0.00    -0.011 C 
HETATM    3  C9  UNL     1      21.401  -1.757  54.301  1.00  0.00     0.010 C 
HETATM    4  C10 UNL     1      22.589  -1.433  54.910  1.00  0.00     0.002 C 
HETATM    5  C11 UNL     1      23.746  -1.124  55.588  1.00  0.00     0.004 C 
HETATM    6  C12 UNL     1      25.161  -0.710  55.842  1.00  0.00     0.030 C 
HETATM    7  C13 UNL     1      25.939  -0.381  54.855  1.00  0.00     0.001 C 
HETATM    8  C14 UNL     1      27.261   0.040  54.533  1.00  0.00    -0.002 C 
HETATM    9  C15 UNL     1      26.939   0.142  53.198  1.00  0.00     0.131 C 
HETATM   10  O2  UNL     1      25.642  -0.124  52.648  1.00  0.00    -0.360 OA
HETATM   11  C16 UNL     1      24.868   0.959  52.225  1.00  0.00     0.202 C 
HETATM   12  C17 UNL     1      23.445   1.014  52.404  1.00  0.00     0.000 C 
HETATM   13  C18 UNL     1      22.284   0.528  52.804  1.00  0.00     0.014 C 
ENDROOT
BRANCH   1  14
HETATM   14  C6  UNL     1      20.376   1.235  52.708  1.00  0.00     0.160 C 
HETATM   15  O1  UNL     1      20.289   2.371  53.223  1.00  0.00    -0.292 OA
BRANCH  14  16
HETATM   16  C5  UNL     1      19.612   1.842  51.637  1.00  0.00     0.085 C 
BRANCH  16  17
HETATM   17  C4  UNL     1      20.070   1.496  50.258  1.00  0.00     0.038 C 
BRANCH  17  18
HETATM   18  C3  UNL     1      20.809   2.609  49.561  1.00  0.00     0.271 C 
BRANCH  18  19
HETATM   19  N1  UNL     1      22.153   2.203  49.178  1.00  0.00     0.080 N 
HETATM   20  C1  UNL     1      22.314   1.947  47.787  1.00  0.00     0.309 C 
HETATM   21  C2  UNL     1      23.054   3.269  49.551  1.00  0.00     0.309 C 
ENDBRANCH  18  19
ENDBRANCH  17  18
ENDBRANCH  16  17
ENDBRANCH  14  16
ENDBRANCH   1  14
TORSDOF 5
ENDMDL
MODEL 9
REMARK VINA RESULT:      -6.5      3.264      6.422
REMARK  5 active torsions:
REMARK  status: ('A' for Active; 'I' for Inactive)
REMARK    1  A    between atoms: N1_2  and  C3_4 
REMARK    2  A    between atoms: C3_4  and  C4_5 
REMARK    3  A    between atoms: C4_5  and  C5_6 
REMARK    4  A    between atoms: C5_6  and  C6_7 
REMARK    5  A    between atoms: C6_7  and  C7_9 
ROOT
HETATM    1  C7  UNL     1      23.193   2.569  49.572  1.00  0.00     0.021 C 
HETATM    2  C8  UNL     1      22.424   2.219  48.635  1.00  0.00    -0.011 C 
HETATM    3  C9  UNL     1      21.669   1.214  48.830  1.00  0.00     0.010 C 
HETATM    4  C10 UNL     1      21.039   0.881  50.004  1.00  0.00     0.002 C 
HETATM    5  C11 UNL     1      20.342   0.574  51.150  1.00  0.00     0.004 C 
HETATM    6  C12 UNL     1      20.054   0.084  52.535  1.00  0.00     0.030 C 
HETATM    7  C13 UNL     1      21.009  -0.382  53.281  1.00  0.00     0.001 C 
HETATM    8  C14 UNL     1      21.289  -0.949  54.557  1.00  0.00    -0.002 C 
HETATM    9  C15 UNL     1      22.636  -1.000  54.276  1.00  0.00     0.131 C 
HETATM   10  O2  UNL     1      23.234  -0.543  53.056  1.00  0.00    -0.360 OA
HETATM   11  C16 UNL     1      23.970   0.643  53.083  1.00  0.00     0.202 C 
HETATM   12  C17 UNL     1      23.948   1.597  52.010  1.00  0.00     0.000 C 
HETATM   13  C18 UNL     1      23.562   2.035  50.826  1.00  0.00     0.014 C 
ENDROOT
BRANCH   1  14
HETATM   14  C6  UNL     1      24.006   3.709  49.752  1.00  0.00     0.160 C 
HETATM   15  O1  UNL     1      25.253   3.801  49.735  1.00  0.00    -0.292 OA
BRANCH  14  16
HETATM   16  C5  UNL     1      24.068   5.134  50.004  1.00  0.00     0.085 C 
BRANCH  16  17
HETATM   17  C4  UNL     1      23.550   5.566  51.336  1.00  0.00     0.038 C 
BRANCH  17  18
HETATM   18  C3  UNL     1      22.046   5.589  51.431  1.00  0.00     0.271 C 
BRANCH  18  19
HETATM   19  N1  UNL     1      21.442   6.162  50.239  1.00  0.00     0.080 N 
HETATM   20  C1  UNL     1      20.219   5.546  49.848  1.00  0.00     0.309 C 
HETATM   21  C2  UNL     1      21.180   7.558  50.508  1.00  0.00     0.309 C 
ENDBRANCH  18  19
ENDBRANCH  17  18
ENDBRANCH  16  17
ENDBRANCH  14  16
ENDBRANCH   1  14
TORSDOF 5
ENDMDL
