MODEL 1
REMARK VINA RESULT:      -8.1      0.000      0.000
REMARK  5 active torsions:
REMARK  status: ('A' for Active; 'I' for Inactive)
REMARK    1  A    between atoms: C5_6  and  C6_7 
REMARK    2  A    between atoms: C6_7  and  O1_8 
REMARK    3  A    between atoms: O1_8  and  C7_9 
REMARK    4  A    between atoms: C10_12  and  N1_13 
REMARK    5  A    between atoms: N1_13  and  C11_14 
ROOT
HETATM    1  C7  UNL     1      21.917   0.510  53.131  1.00  0.00     0.091 A 
HETATM    2  C8  UNL     1      22.563   1.439  52.344  1.00  0.00     0.041 A 
HETATM    3  C9  UNL     1      23.910   1.355  52.090  1.00  0.00     0.032 A 
HETATM    4  C10 UNL     1      24.702   0.326  52.612  1.00  0.00     0.035 A 
HETATM    5  C15 UNL     1      23.995  -0.567  53.388  1.00  0.00     0.056 A 
HETATM    6  C16 UNL     1      22.648  -0.527  53.671  1.00  0.00     0.069 A 
HETATM    7 CL1  UNL     1      21.849  -1.711  54.668  1.00  0.00    -0.081 Cl
ENDROOT
BRANCH   1   8
HETATM    8  O1  UNL     1      20.556   0.594  53.387  1.00  0.00    -0.345 OA
BRANCH   8   9
HETATM    9  C6  UNL     1      19.668   0.663  52.287  1.00  0.00     0.214 C 
BRANCH   9  10
HETATM   10  C5  UNL     1      18.579  -0.332  52.433  1.00  0.00    -0.031 A 
HETATM   11  C4  UNL     1      17.497  -0.132  51.585  1.00  0.00     0.009 A 
HETATM   12  C3  UNL     1      16.418  -0.995  51.628  1.00  0.00     0.004 A 
HETATM   13  C2  UNL     1      16.442  -2.059  52.533  1.00  0.00     0.042 A 
HETATM   14  C1  UNL     1      17.536  -2.237  53.369  1.00  0.00     0.117 A 
HETATM   15  F1  UNL     1      17.568  -3.260  54.244  1.00  0.00    -0.206 F 
HETATM   16  C17 UNL     1      18.630  -1.373  53.334  1.00  0.00     0.051 A 
ENDBRANCH   9  10
ENDBRANCH   8   9
ENDBRANCH   1   8
BRANCH   4  17
HETATM   17  N1  UNL     1      26.078   0.260  52.340  1.00  0.00    -0.341 N 
HETATM   18  H8  UNL     1      26.336  -0.185  51.431  1.00  0.00     0.167 HD
BRANCH  17  19
HETATM   19  C11 UNL     1      27.160   0.716  53.137  1.00  0.00     0.130 A 
HETATM   20  C12 UNL     1      27.687   1.973  52.944  1.00  0.00     0.070 A 
HETATM   21  C13 UNL     1      28.731   2.488  53.673  1.00  0.00     0.122 A 
HETATM   22  N2  UNL     1      29.265   1.724  54.623  1.00  0.00    -0.254 NA
HETATM   23  C14 UNL     1      28.794   0.489  54.859  1.00  0.00     0.234 A 
HETATM   24  N3  UNL     1      27.773   0.047  54.113  1.00  0.00    -0.225 NA
ENDBRANCH  17  19
ENDBRANCH   4  17
TORSDOF 5
ENDMDL
MODEL 2
REMARK VINA RESULT:      -8.0      4.294      8.852
REMARK  5 active torsions:
REMARK  status: ('A' for Active; 'I' for Inactive)
REMARK    1  A    between atoms: C5_6  and  C6_7 
REMARK    2  A    between atoms: C6_7  and  O1_8 
REMARK    3  A    between atoms: O1_8  and  C7_9 
REMARK    4  A    between atoms: C10_12  and  N1_13 
REMARK    5  A    between atoms: N1_13  and  C11_14 
ROOT
HETATM    1  C7  UNL     1      23.828   0.577  53.368  1.00  0.00     0.091 A 
HETATM    2  C8  UNL     1      23.577  -0.676  53.881  1.00  0.00     0.041 A 
HETATM    3  C9  UNL     1      22.295  -1.126  54.087  1.00  0.00     0.032 A 
HETATM    4  C10 UNL     1      21.175  -0.343  53.788  1.00  0.00     0.035 A 
HETATM    5  C15 UNL     1      21.496   0.897  53.279  1.00  0.00     0.056 A 
HETATM    6  C16 UNL     1      22.762   1.393  53.054  1.00  0.00     0.069 A 
HETATM    7 CL1  UNL     1      23.059   2.981  52.403  1.00  0.00    -0.081 Cl
ENDROOT
BRANCH   1   8
HETATM    8  O1  UNL     1      25.122   1.033  53.159  1.00  0.00    -0.345 OA
BRANCH   8   9
HETATM    9  C6  UNL     1      25.901   0.405  52.158  1.00  0.00     0.214 C 
BRANCH   9  10
HETATM   10  C5  UNL     1      27.210  -0.021  52.708  1.00  0.00    -0.031 A 
HETATM   11  C4  UNL     1      28.017   1.021  53.148  1.00  0.00     0.009 A 
HETATM   12  C3  UNL     1      29.264   0.750  53.681  1.00  0.00     0.004 A 
HETATM   13  C2  UNL     1      29.685  -0.579  53.766  1.00  0.00     0.042 A 
HETATM   14  C1  UNL     1      28.860  -1.601  53.319  1.00  0.00     0.117 A 
HETATM   15  F1  UNL     1      29.258  -2.885  53.397  1.00  0.00    -0.206 F 
HETATM   16  C17 UNL     1      27.601  -1.340  52.780  1.00  0.00     0.051 A 
ENDBRANCH   9  10
ENDBRANCH   8   9
ENDBRANCH   1   8
BRANCH   4  17
HETATM   17  N1  UNL     1      19.874  -0.823  54.007  1.00  0.00    -0.341 N 
HETATM   18  H8  UNL     1      19.723  -1.317  54.915  1.00  0.00     0.167 HD
BRANCH  17  19
HETATM   19  C11 UNL     1      18.741  -0.727  53.157  1.00  0.00     0.130 A 
HETATM   20  C12 UNL     1      18.872  -0.254  51.871  1.00  0.00     0.070 A 
HETATM   21  C13 UNL     1      17.828  -0.131  50.988  1.00  0.00     0.122 A 
HETATM   22  N2  UNL     1      16.616  -0.492  51.402  1.00  0.00    -0.254 NA
HETATM   23  C14 UNL     1      16.424  -0.962  52.645  1.00  0.00     0.234 A 
HETATM   24  N3  UNL     1      17.486  -1.056  53.457  1.00  0.00    -0.225 NA
ENDBRANCH  17  19
ENDBRANCH   4  17
TORSDOF 5
ENDMDL
MODEL 3
REMARK VINA RESULT:      -7.8      6.320      8.169
REMARK  5 active torsions:
REMARK  status: ('A' for Active; 'I' for Inactive)
REMARK    1  A    between atoms: C5_6  and  C6_7 
REMARK    2  A    between atoms: C6_7  and  O1_8 
REMARK    3  A    between atoms: O1_8  and  C7_9 
REMARK    4  A    between atoms: C10_12  and  N1_13 
REMARK    5  A    between atoms: N1_13  and  C11_14 
ROOT
HETATM    1  C7  UNL     1      25.499   2.302  51.438  1.00  0.00     0.091 A 
HETATM    2  C8  UNL     1      26.567   2.473  50.586  1.00  0.00     0.041 A 
HETATM    3  C9  UNL     1      26.673   3.579  49.778  1.00  0.00     0.032 A 
HETATM    4  C10 UNL     1      25.707   4.592  49.773  1.00  0.00     0.035 A 
HETATM    5  C15 UNL     1      24.668   4.358  50.647  1.00  0.00     0.056 A 
HETATM    6  C16 UNL     1      24.517   3.268  51.477  1.00  0.00     0.069 A 
HETATM    7 CL1  UNL     1      23.158   3.069  52.549  1.00  0.00    -0.081 Cl
ENDROOT
BRANCH   1   8
HETATM    8  O1  UNL     1      25.391   1.185  52.255  1.00  0.00    -0.345 OA
BRANCH   8   9
HETATM    9  C6  UNL     1      26.240   1.096  53.385  1.00  0.00     0.214 C 
BRANCH   9  10
HETATM   10  C5  UNL     1      27.148  -0.070  53.263  1.00  0.00    -0.031 A 
HETATM   11  C4  UNL     1      26.563  -1.200  52.703  1.00  0.00     0.009 A 
HETATM   12  C3  UNL     1      27.309  -2.352  52.537  1.00  0.00     0.004 A 
HETATM   13  C2  UNL     1      28.646  -2.352  52.941  1.00  0.00     0.042 A 
HETATM   14  C1  UNL     1      29.206  -1.211  53.498  1.00  0.00     0.117 A 
HETATM   15  F1  UNL     1      30.494  -1.202  53.890  1.00  0.00    -0.206 F 
HETATM   16  C17 UNL     1      28.463  -0.043  53.670  1.00  0.00     0.051 A 
ENDBRANCH   9  10
ENDBRANCH   8   9
ENDBRANCH   1   8
BRANCH   4  17
HETATM   17  N1  UNL     1      25.835   5.713  48.939  1.00  0.00    -0.341 N 
HETATM   18  H8  UNL     1      25.285   5.679  48.051  1.00  0.00     0.167 HD
BRANCH  17  19
HETATM   19  C11 UNL     1      26.613   6.883  49.143  1.00  0.00     0.130 A 
HETATM   20  C12 UNL     1      27.749   7.104  48.398  1.00  0.00     0.070 A 
HETATM   21  C13 UNL     1      28.553   8.208  48.533  1.00  0.00     0.122 A 
HETATM   22  N2  UNL     1      28.213   9.120  49.440  1.00  0.00    -0.254 NA
HETATM   23  C14 UNL     1      27.116   8.962  50.198  1.00  0.00     0.234 A 
HETATM   24  N3  UNL     1      26.374   7.861  50.015  1.00  0.00    -0.225 NA
ENDBRANCH  17  19
ENDBRANCH   4  17
TORSDOF 5
ENDMDL
MODEL 4
REMARK VINA RESULT:      -7.8      4.391      9.029
REMARK  5 active torsions:
REMARK  status: ('A' for Active; 'I' for Inactive)
REMARK    1  A    between atoms: C5_6  and  C6_7 
REMARK    2  A    between atoms: C6_7  and  O1_8 
REMARK    3  A    between atoms: O1_8  and  C7_9 
REMARK    4  A    between atoms: C10_12  and  N1_13 
REMARK    5  A    between atoms: N1_13  and  C11_14 
ROOT
HETATM    1  C7  UNL     1      23.630   0.957  53.037  1.00  0.00     0.091 A 
HETATM    2  C8  UNL     1      23.536  -0.333  53.510  1.00  0.00     0.041 A 
HETATM    3  C9  UNL     1      22.320  -0.919  53.766  1.00  0.00     0.032 A 
HETATM    4  C10 UNL     1      21.112  -0.243  53.563  1.00  0.00     0.035 A 
HETATM    5  C15 UNL     1      21.277   1.040  53.091  1.00  0.00     0.056 A 
HETATM    6  C16 UNL     1      22.471   1.671  52.817  1.00  0.00     0.069 A 
HETATM    7 CL1  UNL     1      22.570   3.304  52.219  1.00  0.00    -0.081 Cl
ENDROOT
BRANCH   1   8
HETATM    8  O1  UNL     1      24.857   1.550  52.777  1.00  0.00    -0.345 OA
BRANCH   8   9
HETATM    9  C6  UNL     1      25.795   0.836  51.991  1.00  0.00     0.214 C 
BRANCH   9  10
HETATM   10  C5  UNL     1      27.069   0.664  52.730  1.00  0.00    -0.031 A 
HETATM   11  C4  UNL     1      27.526  -0.646  52.794  1.00  0.00     0.009 A 
HETATM   12  C3  UNL     1      28.704  -0.934  53.457  1.00  0.00     0.004 A 
HETATM   13  C2  UNL     1      29.415   0.111  54.052  1.00  0.00     0.042 A 
HETATM   14  C1  UNL     1      28.936   1.411  53.973  1.00  0.00     0.117 A 
HETATM   15  F1  UNL     1      29.615   2.425  54.543  1.00  0.00    -0.206 F 
HETATM   16  C17 UNL     1      27.749   1.714  53.307  1.00  0.00     0.051 A 
ENDBRANCH   9  10
ENDBRANCH   8   9
ENDBRANCH   1   8
BRANCH   4  17
HETATM   17  N1  UNL     1      19.881  -0.862  53.833  1.00  0.00    -0.341 N 
HETATM   18  H8  UNL     1      19.818  -1.361  54.749  1.00  0.00     0.167 HD
BRANCH  17  19
HETATM   19  C11 UNL     1      18.714  -0.898  53.025  1.00  0.00     0.130 A 
HETATM   20  C12 UNL     1      17.648  -1.696  53.375  1.00  0.00     0.070 A 
HETATM   21  C13 UNL     1      16.486  -1.787  52.650  1.00  0.00     0.122 A 
HETATM   22  N2  UNL     1      16.385  -1.059  51.541  1.00  0.00    -0.254 NA
HETATM   23  C14 UNL     1      17.390  -0.261  51.147  1.00  0.00     0.234 A 
HETATM   24  N3  UNL     1      18.497  -0.218  51.901  1.00  0.00    -0.225 NA
ENDBRANCH  17  19
ENDBRANCH   4  17
TORSDOF 5
ENDMDL
MODEL 5
REMARK VINA RESULT:      -7.8      5.988      8.207
REMARK  5 active torsions:
REMARK  status: ('A' for Active; 'I' for Inactive)
REMARK    1  A    between atoms: C5_6  and  C6_7 
REMARK    2  A    between atoms: C6_7  and  O1_8 
REMARK    3  A    between atoms: O1_8  and  C7_9 
REMARK    4  A    between atoms: C10_12  and  N1_13 
REMARK    5  A    between atoms: N1_13  and  C11_14 
ROOT
HETATM    1  C7  UNL     1      25.423   2.197  51.398  1.00  0.00     0.091 A 
HETATM    2  C8  UNL     1      26.543   2.523  50.665  1.00  0.00     0.041 A 
HETATM    3  C9  UNL     1      26.594   3.661  49.897  1.00  0.00     0.032 A 
HETATM    4  C10 UNL     1      25.518   4.552  49.815  1.00  0.00     0.035 A 
HETATM    5  C15 UNL     1      24.432   4.167  50.571  1.00  0.00     0.056 A 
HETATM    6  C16 UNL     1      24.332   3.039  51.356  1.00  0.00     0.069 A 
HETATM    7 CL1  UNL     1      22.907   2.644  52.276  1.00  0.00    -0.081 Cl
ENDROOT
BRANCH   1   8
HETATM    8  O1  UNL     1      25.370   1.048  52.174  1.00  0.00    -0.345 OA
BRANCH   8   9
HETATM    9  C6  UNL     1      26.019   1.057  53.432  1.00  0.00     0.214 C 
BRANCH   9  10
HETATM   10  C5  UNL     1      27.240   0.218  53.393  1.00  0.00    -0.031 A 
HETATM   11  C4  UNL     1      28.417   0.897  53.686  1.00  0.00     0.009 A 
HETATM   12  C3  UNL     1      29.623   0.222  53.682  1.00  0.00     0.004 A 
HETATM   13  C2  UNL     1      29.630  -1.142  53.379  1.00  0.00     0.042 A 
HETATM   14  C1  UNL     1      28.441  -1.797  53.089  1.00  0.00     0.117 A 
HETATM   15  F1  UNL     1      28.438  -3.111  52.796  1.00  0.00    -0.206 F 
HETATM   16  C17 UNL     1      27.219  -1.126  53.091  1.00  0.00     0.051 A 
ENDBRANCH   9  10
ENDBRANCH   8   9
ENDBRANCH   1   8
BRANCH   4  17
HETATM   17  N1  UNL     1      25.593   5.709  49.024  1.00  0.00    -0.341 N 
HETATM   18  H8  UNL     1      24.922   5.752  48.224  1.00  0.00     0.167 HD
BRANCH  17  19
HETATM   19  C11 UNL     1      26.459   6.825  49.168  1.00  0.00     0.130 A 
HETATM   20  C12 UNL     1      27.610   6.916  48.419  1.00  0.00     0.070 A 
HETATM   21  C13 UNL     1      28.497   7.960  48.498  1.00  0.00     0.122 A 
HETATM   22  N2  UNL     1      28.227   8.944  49.352  1.00  0.00    -0.254 NA
HETATM   23  C14 UNL     1      27.120   8.914  50.110  1.00  0.00     0.234 A 
HETATM   24  N3  UNL     1      26.295   7.865  49.983  1.00  0.00    -0.225 NA
ENDBRANCH  17  19
ENDBRANCH   4  17
TORSDOF 5
ENDMDL
MODEL 6
REMARK VINA RESULT:      -7.7      1.535      2.091
REMARK  5 active torsions:
REMARK  status: ('A' for Active; 'I' for Inactive)
REMARK    1  A    between atoms: C5_6  and  C6_7 
REMARK    2  A    between atoms: C6_7  and  O1_8 
REMARK    3  A    between atoms: O1_8  and  C7_9 
REMARK    4  A    between atoms: C10_12  and  N1_13 
REMARK    5  A    between atoms: N1_13  and  C11_14 
ROOT
HETATM    1  C7  UNL     1      21.954   0.756  53.035  1.00  0.00     0.091 A 
HETATM    2  C8  UNL     1      22.745  -0.296  53.442  1.00  0.00     0.041 A 
HETATM    3  C9  UNL     1      24.089  -0.337  53.158  1.00  0.00     0.032 A 
HETATM    4  C10 UNL     1      24.729   0.682  52.444  1.00  0.00     0.035 A 
HETATM    5  C15 UNL     1      23.882   1.701  52.069  1.00  0.00     0.056 A 
HETATM    6  C16 UNL     1      22.532   1.789  52.328  1.00  0.00     0.069 A 
HETATM    7 CL1  UNL     1      21.547   3.128  51.806  1.00  0.00    -0.081 Cl
ENDROOT
BRANCH   1   8
HETATM    8  O1  UNL     1      20.597   0.799  53.321  1.00  0.00    -0.345 OA
BRANCH   8   9
HETATM    9  C6  UNL     1      19.933  -0.418  53.612  1.00  0.00     0.214 C 
BRANCH   9  10
HETATM   10  C5  UNL     1      18.711  -0.555  52.785  1.00  0.00    -0.031 A 
HETATM   11  C4  UNL     1      18.770   0.094  51.557  1.00  0.00     0.009 A 
HETATM   12  C3  UNL     1      17.690   0.039  50.696  1.00  0.00     0.004 A 
HETATM   13  C2  UNL     1      16.554  -0.676  51.084  1.00  0.00     0.042 A 
HETATM   14  C1  UNL     1      16.521  -1.315  52.315  1.00  0.00     0.117 A 
HETATM   15  F1  UNL     1      15.431  -2.006  52.698  1.00  0.00    -0.206 F 
HETATM   16  C17 UNL     1      17.604  -1.267  53.193  1.00  0.00     0.051 A 
ENDBRANCH   9  10
ENDBRANCH   8   9
ENDBRANCH   1   8
BRANCH   4  17
HETATM   17  N1  UNL     1      26.104   0.618  52.166  1.00  0.00    -0.341 N 
HETATM   18  H8  UNL     1      26.356   0.242  51.224  1.00  0.00     0.167 HD
BRANCH  17  19
HETATM   19  C11 UNL     1      27.193   0.997  52.994  1.00  0.00     0.130 A 
HETATM   20  C12 UNL     1      27.619   0.168  54.007  1.00  0.00     0.070 A 
HETATM   21  C13 UNL     1      28.663   0.460  54.850  1.00  0.00     0.122 A 
HETATM   22  N2  UNL     1      29.301   1.615  54.676  1.00  0.00    -0.254 NA
HETATM   23  C14 UNL     1      28.932   2.465  53.705  1.00  0.00     0.234 A 
HETATM   24  N3  UNL     1      27.905   2.120  52.917  1.00  0.00    -0.225 NA
ENDBRANCH  17  19
ENDBRANCH   4  17
TORSDOF 5
ENDMDL
MODEL 7
REMARK VINA RESULT:      -7.6      4.275      8.978
REMARK  5 active torsions:
REMARK  status: ('A' for Active; 'I' for Inactive)
REMARK    1  A    between atoms: C5_6  and  C6_7 
REMARK    2  A    between atoms: C6_7  and  O1_8 
REMARK    3  A    between atoms: O1_8  and  C7_9 
REMARK    4  A    between atoms: C10_12  and  N1_13 
REMARK    5  A    between atoms: N1_13  and  C11_14 
ROOT
HETATM    1  C7  UNL     1      23.721   0.322  53.120  1.00  0.00     0.091 A 
HETATM    2  C8  UNL     1      23.525   1.063  51.975  1.00  0.00     0.041 A 
HETATM    3  C9  UNL     1      22.296   1.131  51.363  1.00  0.00     0.032 A 
HETATM    4  C10 UNL     1      21.178   0.456  51.865  1.00  0.00     0.035 A 
HETATM    5  C15 UNL     1      21.443  -0.264  53.010  1.00  0.00     0.056 A 
HETATM    6  C16 UNL     1      22.654  -0.363  53.660  1.00  0.00     0.069 A 
HETATM    7 CL1  UNL     1      22.882  -1.304  55.108  1.00  0.00    -0.081 Cl
ENDROOT
BRANCH   1   8
HETATM    8  O1  UNL     1      24.961   0.253  53.739  1.00  0.00    -0.345 OA
BRANCH   8   9
HETATM    9  C6  UNL     1      25.845  -0.785  53.357  1.00  0.00     0.214 C 
BRANCH   9  10
HETATM   10  C5  UNL     1      27.254  -0.345  53.492  1.00  0.00    -0.031 A 
HETATM   11  C4  UNL     1      28.195  -1.329  53.212  1.00  0.00     0.009 A 
HETATM   12  C3  UNL     1      29.543  -1.039  53.305  1.00  0.00     0.004 A 
HETATM   13  C2  UNL     1      29.932   0.249  53.681  1.00  0.00     0.042 A 
HETATM   14  C1  UNL     1      28.972   1.213  53.955  1.00  0.00     0.117 A 
HETATM   15  F1  UNL     1      29.337   2.457  54.319  1.00  0.00    -0.206 F 
HETATM   16  C17 UNL     1      27.609   0.933  53.865  1.00  0.00     0.051 A 
ENDBRANCH   9  10
ENDBRANCH   8   9
ENDBRANCH   1   8
BRANCH   4  17
HETATM   17  N1  UNL     1      19.932   0.539  51.224  1.00  0.00    -0.341 N 
HETATM   18  H8  UNL     1      19.904   1.141  50.370  1.00  0.00     0.167 HD
BRANCH  17  19
HETATM   19  C11 UNL     1      18.709  -0.085  51.583  1.00  0.00     0.130 A 
HETATM   20  C12 UNL     1      17.640  -0.075  50.716  1.00  0.00     0.070 A 
HETATM   21  C13 UNL     1      16.425  -0.655  50.988  1.00  0.00     0.122 A 
HETATM   22  N2  UNL     1      16.274  -1.265  52.161  1.00  0.00    -0.254 NA
HETATM   23  C14 UNL     1      17.280  -1.309  53.049  1.00  0.00     0.234 A 
HETATM   24  N3  UNL     1      18.439  -0.723  52.721  1.00  0.00    -0.225 NA
ENDBRANCH  17  19
ENDBRANCH   4  17
TORSDOF 5
ENDMDL
MODEL 8
REMARK VINA RESULT:      -7.5      4.721      8.846
REMARK  5 active torsions:
REMARK  status: ('A' for Active; 'I' for Inactive)
REMARK    1  A    between atoms: C5_6  and  C6_7 
REMARK    2  A    between atoms: C6_7  and  O1_8 
REMARK    3  A    between atoms: O1_8  and  C7_9 
REMARK    4  A    between atoms: C10_12  and  N1_13 
REMARK    5  A    between atoms: N1_13  and  C11_14 
ROOT
HETATM    1  C7  UNL     1      23.687   0.034  53.616  1.00  0.00     0.091 A 
HETATM    2  C8  UNL     1      22.714  -0.921  53.815  1.00  0.00     0.041 A 
HETATM    3  C9  UNL     1      21.407  -0.703  53.451  1.00  0.00     0.032 A 
HETATM    4  C10 UNL     1      20.990   0.494  52.859  1.00  0.00     0.035 A 
HETATM    5  C15 UNL     1      22.011   1.404  52.689  1.00  0.00     0.056 A 
HETATM    6  C16 UNL     1      23.333   1.233  53.036  1.00  0.00     0.069 A 
HETATM    7 CL1  UNL     1      24.550   2.453  52.775  1.00  0.00    -0.081 Cl
ENDROOT
BRANCH   1   8
HETATM    8  O1  UNL     1      25.007  -0.184  53.983  1.00  0.00    -0.345 OA
BRANCH   8   9
HETATM    9  C6  UNL     1      25.859  -0.846  53.065  1.00  0.00     0.214 C 
BRANCH   9  10
HETATM   10  C5  UNL     1      27.276  -0.501  53.328  1.00  0.00    -0.031 A 
HETATM   11  C4  UNL     1      28.179  -1.521  53.051  1.00  0.00     0.009 A 
HETATM   12  C3  UNL     1      29.531  -1.320  53.257  1.00  0.00     0.004 A 
HETATM   13  C2  UNL     1      29.962  -0.083  53.743  1.00  0.00     0.042 A 
HETATM   14  C1  UNL     1      29.040   0.919  54.011  1.00  0.00     0.117 A 
HETATM   15  F1  UNL     1      29.446   2.114  54.480  1.00  0.00    -0.206 F 
HETATM   16  C17 UNL     1      27.673   0.727  53.807  1.00  0.00     0.051 A 
ENDBRANCH   9  10
ENDBRANCH   8   9
ENDBRANCH   1   8
BRANCH   4  17
HETATM   17  N1  UNL     1      19.649   0.695  52.496  1.00  0.00    -0.341 N 
HETATM   18  H8  UNL     1      18.967   0.013  52.897  1.00  0.00     0.167 HD
BRANCH  17  19
HETATM   19  C11 UNL     1      19.101   1.700  51.656  1.00  0.00     0.130 A 
HETATM   20  C12 UNL     1      18.783   1.418  50.347  1.00  0.00     0.070 A 
HETATM   21  C13 UNL     1      18.250   2.332  49.473  1.00  0.00     0.122 A 
HETATM   22  N2  UNL     1      18.027   3.566  49.919  1.00  0.00    -0.254 NA
HETATM   23  C14 UNL     1      18.316   3.902  51.186  1.00  0.00     0.234 A 
HETATM   24  N3  UNL     1      18.834   2.962  51.988  1.00  0.00    -0.225 NA
ENDBRANCH  17  19
ENDBRANCH   4  17
TORSDOF 5
ENDMDL
MODEL 9
REMARK VINA RESULT:      -7.4      4.647      6.541
REMARK  5 active torsions:
REMARK  status: ('A' for Active; 'I' for Inactive)
REMARK    1  A    between atoms: C5_6  and  C6_7 
REMARK    2  A    between atoms: C6_7  and  O1_8 
REMARK    3  A    between atoms: O1_8  and  C7_9 
REMARK    4  A    between atoms: C10_12  and  N1_13 
REMARK    5  A    between atoms: N1_13  and  C11_14 
ROOT
HETATM    1  C7  UNL     1      23.119   2.824  51.810  1.00  0.00     0.091 A 
HETATM    2  C8  UNL     1      24.079   3.318  52.666  1.00  0.00     0.041 A 
HETATM    3  C9  UNL     1      24.880   2.484  53.408  1.00  0.00     0.032 A 
HETATM    4  C10 UNL     1      24.769   1.091  53.338  1.00  0.00     0.035 A 
HETATM    5  C15 UNL     1      23.792   0.665  52.466  1.00  0.00     0.056 A 
HETATM    6  C16 UNL     1      22.966   1.459  51.700  1.00  0.00     0.069 A 
HETATM    7 CL1  UNL     1      21.757   0.815  50.623  1.00  0.00    -0.081 Cl
ENDROOT
BRANCH   1   8
HETATM    8  O1  UNL     1      22.310   3.666  51.060  1.00  0.00    -0.345 OA
BRANCH   8   9
HETATM    9  C6  UNL     1      22.620   3.849  49.691  1.00  0.00     0.214 C 
BRANCH   9  10
HETATM   10  C5  UNL     1      23.928   4.531  49.540  1.00  0.00    -0.031 A 
HETATM   11  C4  UNL     1      23.886   5.907  49.732  1.00  0.00     0.009 A 
HETATM   12  C3  UNL     1      25.043   6.655  49.618  1.00  0.00     0.004 A 
HETATM   13  C2  UNL     1      26.239   6.002  49.308  1.00  0.00     0.042 A 
HETATM   14  C1  UNL     1      26.253   4.627  49.120  1.00  0.00     0.117 A 
HETATM   15  F1  UNL     1      27.401   3.989  48.822  1.00  0.00    -0.206 F 
HETATM   16  C17 UNL     1      25.092   3.863  49.234  1.00  0.00     0.051 A 
ENDBRANCH   9  10
ENDBRANCH   8   9
ENDBRANCH   1   8
BRANCH   4  17
HETATM   17  N1  UNL     1      25.597   0.258  54.106  1.00  0.00    -0.341 N 
HETATM   18  H8  UNL     1      25.107  -0.347  54.802  1.00  0.00     0.167 HD
BRANCH  17  19
HETATM   19  C11 UNL     1      27.011   0.132  54.062  1.00  0.00     0.130 A 
HETATM   20  C12 UNL     1      27.596  -0.932  53.414  1.00  0.00     0.070 A 
HETATM   21  C13 UNL     1      28.952  -1.126  53.325  1.00  0.00     0.122 A 
HETATM   22  N2  UNL     1      29.749  -0.229  53.900  1.00  0.00    -0.254 NA
HETATM   23  C14 UNL     1      29.238   0.832  54.546  1.00  0.00     0.234 A 
HETATM   24  N3  UNL     1      27.906   0.961  54.596  1.00  0.00    -0.225 NA
ENDBRANCH  17  19
ENDBRANCH   4  17
TORSDOF 5
ENDMDL
