MODEL 1
REMARK VINA RESULT:      -9.5      0.000      0.000
REMARK  3 active torsions:
REMARK  status: ('A' for Active; 'I' for Inactive)
REMARK    1  A    between atoms: O1_2  and  C2_3 
REMARK    2  A    between atoms: C4_5  and  N1_6 
REMARK    3  A    between atoms: C7_9  and  N2_10 
ROOT
HETATM    1  C2  UNL     1      21.982   0.800  51.931  1.00  0.00     0.079 A 
HETATM    2  C3  UNL     1      22.264   1.683  50.914  1.00  0.00     0.069 A 
HETATM    3  C4  UNL     1      23.355   2.493  51.029  1.00  0.00     0.060 A 
HETATM    4  C12 UNL     1      24.144   2.414  52.143  1.00  0.00     0.062 A 
HETATM    5  C13 UNL     1      23.787   1.480  53.152  1.00  0.00     0.044 A 
HETATM    6  C14 UNL     1      22.700   0.636  53.094  1.00  0.00     0.002 A 
HETATM    7  C15 UNL     1      22.429  -0.313  54.175  1.00  0.00     0.139 C 
HETATM    8  C16 UNL     1      21.524  -1.454  53.712  1.00  0.00     0.039 C 
HETATM    9  N3  UNL     1      23.599  -0.793  54.808  1.00  0.00    -0.290 NA
HETATM   10  C17 UNL     1      24.803  -0.900  54.529  1.00  0.00     0.142 C 
HETATM   11  C18 UNL     1      26.078  -0.845  53.828  1.00  0.00     0.075 A 
HETATM   12  C19 UNL     1      26.377  -1.914  53.021  1.00  0.00     0.034 A 
HETATM   13  C20 UNL     1      27.595  -1.677  52.419  1.00  0.00     0.022 A 
HETATM   14  C21 UNL     1      27.915  -0.446  52.944  1.00  0.00     0.119 A 
HETATM   15  N4  UNL     1      27.034   0.102  53.802  1.00  0.00    -0.243 N 
HETATM   16  N5  UNL     1      27.112   1.305  54.501  1.00  0.00    -0.165 NA
HETATM   17  C22 UNL     1      27.819   2.234  54.001  1.00  0.00     0.113 C 
HETATM   18  C23 UNL     1      27.915   2.324  52.679  1.00  0.00     0.110 C 
HETATM   19  C24 UNL     1      26.500   2.154  52.350  1.00  0.00     0.248 C 
HETATM   20  O2  UNL     1      25.562   1.485  51.875  1.00  0.00    -0.268 OA
HETATM   21  N6  UNL     1      25.376   3.059  52.572  1.00  0.00    -0.322 N 
HETATM   22  H30 UNL     1      24.793   3.877  52.825  1.00  0.00     0.169 HD
ENDROOT
BRANCH   3  23
HETATM   23  N1  UNL     1      23.992   3.519  50.287  1.00  0.00    -0.379 N 
HETATM   24  C5  UNL     1      24.959   3.478  49.216  1.00  0.00     0.125 C 
HETATM   25  C6  UNL     1      26.029   4.546  49.499  1.00  0.00     0.055 C 
HETATM   26  C7  UNL     1      25.369   5.876  49.204  1.00  0.00     0.225 C 
HETATM   27  C10 UNL     1      23.953   5.922  49.702  1.00  0.00     0.055 C 
HETATM   28  C11 UNL     1      23.602   4.839  50.673  1.00  0.00     0.125 C 
BRANCH  26  29
HETATM   29  N2  UNL     1      26.085   7.003  49.706  1.00  0.00     0.084 N 
HETATM   30  C8  UNL     1      27.182   7.404  48.866  1.00  0.00     0.309 C 
HETATM   31  C9  UNL     1      25.299   8.135  50.074  1.00  0.00     0.309 C 
ENDBRANCH  26  29
ENDBRANCH   3  23
BRANCH   1  32
HETATM   32  O1  UNL     1      20.854   0.026  51.714  1.00  0.00    -0.355 OA
HETATM   33  C1  UNL     1      19.617   0.472  51.258  1.00  0.00     0.210 C 
ENDBRANCH   1  32
TORSDOF 3
ENDMDL
MODEL 2
REMARK VINA RESULT:      -9.0      2.010      6.911
REMARK  3 active torsions:
REMARK  status: ('A' for Active; 'I' for Inactive)
REMARK    1  A    between atoms: O1_2  and  C2_3 
REMARK    2  A    between atoms: C4_5  and  N1_6 
REMARK    3  A    between atoms: C7_9  and  N2_10 
ROOT
HETATM    1  C2  UNL     1      25.727   4.391  49.884  1.00  0.00     0.079 A 
HETATM    2  C3  UNL     1      26.543   3.454  50.475  1.00  0.00     0.069 A 
HETATM    3  C4  UNL     1      26.060   2.729  51.524  1.00  0.00     0.060 A 
HETATM    4  C12 UNL     1      24.784   2.943  51.967  1.00  0.00     0.062 A 
HETATM    5  C13 UNL     1      24.004   3.930  51.308  1.00  0.00     0.044 A 
HETATM    6  C14 UNL     1      24.433   4.692  50.245  1.00  0.00     0.002 A 
HETATM    7  C15 UNL     1      23.543   5.668  49.614  1.00  0.00     0.139 C 
HETATM    8  C16 UNL     1      24.007   6.028  48.204  1.00  0.00     0.039 C 
HETATM    9  N3  UNL     1      22.181   5.287  49.639  1.00  0.00    -0.290 NA
HETATM   10  C17 UNL     1      21.537   4.234  49.753  1.00  0.00     0.142 C 
HETATM   11  C18 UNL     1      21.183   2.830  49.911  1.00  0.00     0.075 A 
HETATM   12  C19 UNL     1      21.113   2.084  48.761  1.00  0.00     0.034 A 
HETATM   13  C20 UNL     1      20.801   0.785  49.103  1.00  0.00     0.022 A 
HETATM   14  C21 UNL     1      20.713   0.886  50.473  1.00  0.00     0.119 A 
HETATM   15  N4  UNL     1      20.933   2.098  51.014  1.00  0.00    -0.243 N 
HETATM   16  N5  UNL     1      20.878   2.494  52.348  1.00  0.00    -0.165 NA
HETATM   17  C22 UNL     1      21.095   1.612  53.236  1.00  0.00     0.113 C 
HETATM   18  C23 UNL     1      21.933   0.619  52.959  1.00  0.00     0.110 C 
HETATM   19  C24 UNL     1      23.010   1.407  52.361  1.00  0.00     0.248 C 
HETATM   20  O2  UNL     1      23.682   1.768  51.376  1.00  0.00    -0.268 OA
HETATM   21  N6  UNL     1      23.941   2.341  52.989  1.00  0.00    -0.322 N 
HETATM   22  H30 UNL     1      24.465   2.910  53.677  1.00  0.00     0.169 HD
ENDROOT
BRANCH   3  23
HETATM   23  N1  UNL     1      26.518   1.725  52.414  1.00  0.00    -0.379 N 
HETATM   24  C5  UNL     1      26.751   1.730  53.839  1.00  0.00     0.125 C 
HETATM   25  C6  UNL     1      28.086   1.014  54.106  1.00  0.00     0.055 C 
HETATM   26  C7  UNL     1      27.811  -0.459  53.891  1.00  0.00     0.225 C 
HETATM   27  C10 UNL     1      26.930  -0.698  52.699  1.00  0.00     0.055 C 
HETATM   28  C11 UNL     1      26.801   0.476  51.779  1.00  0.00     0.125 C 
BRANCH  26  29
HETATM   29  N2  UNL     1      28.988  -1.257  53.779  1.00  0.00     0.084 N 
HETATM   30  C8  UNL     1      28.792  -2.461  53.017  1.00  0.00     0.309 C 
HETATM   31  C9  UNL     1      30.169  -0.581  53.350  1.00  0.00     0.309 C 
ENDBRANCH  26  29
ENDBRANCH   3  23
BRANCH   1  32
HETATM   32  O1  UNL     1      26.314   5.071  48.830  1.00  0.00    -0.355 OA
HETATM   33  C1  UNL     1      27.677   5.186  48.574  1.00  0.00     0.210 C 
ENDBRANCH   1  32
TORSDOF 3
ENDMDL
MODEL 3
REMARK VINA RESULT:      -8.5      1.860      6.122
REMARK  3 active torsions:
REMARK  status: ('A' for Active; 'I' for Inactive)
REMARK    1  A    between atoms: O1_2  and  C2_3 
REMARK    2  A    between atoms: C4_5  and  N1_6 
REMARK    3  A    between atoms: C7_9  and  N2_10 
ROOT
HETATM    1  C2  UNL     1      20.862   0.388  51.962  1.00  0.00     0.079 A 
HETATM    2  C3  UNL     1      21.834   0.240  52.924  1.00  0.00     0.069 A 
HETATM    3  C4  UNL     1      23.083   0.728  52.679  1.00  0.00     0.060 A 
HETATM    4  C12 UNL     1      23.347   1.351  51.491  1.00  0.00     0.062 A 
HETATM    5  C13 UNL     1      22.293   1.463  50.545  1.00  0.00     0.044 A 
HETATM    6  C14 UNL     1      21.013   0.992  50.734  1.00  0.00     0.002 A 
HETATM    7  C15 UNL     1      19.986   1.179  49.708  1.00  0.00     0.139 C 
HETATM    8  C16 UNL     1      18.578   1.049  50.286  1.00  0.00     0.039 C 
HETATM    9  N3  UNL     1      20.143   2.373  48.966  1.00  0.00    -0.290 NA
HETATM   10  C17 UNL     1      20.700   3.470  49.120  1.00  0.00     0.142 C 
HETATM   11  C18 UNL     1      21.464   4.575  49.683  1.00  0.00     0.075 A 
HETATM   12  C19 UNL     1      20.770   5.454  50.477  1.00  0.00     0.034 A 
HETATM   13  C20 UNL     1      21.652   6.406  50.944  1.00  0.00     0.022 A 
HETATM   14  C21 UNL     1      22.827   5.988  50.362  1.00  0.00     0.119 A 
HETATM   15  N4  UNL     1      22.770   4.887  49.589  1.00  0.00    -0.243 N 
HETATM   16  N5  UNL     1      23.782   4.266  48.860  1.00  0.00    -0.165 NA
HETATM   17  C22 UNL     1      24.977   4.413  49.264  1.00  0.00     0.113 C 
HETATM   18  C23 UNL     1      25.200   4.550  50.566  1.00  0.00     0.110 C 
HETATM   19  C24 UNL     1      24.341   3.467  51.045  1.00  0.00     0.248 C 
HETATM   20  O2  UNL     1      23.317   3.062  51.629  1.00  0.00    -0.268 OA
HETATM   21  N6  UNL     1      24.506   2.021  50.922  1.00  0.00    -0.322 N 
HETATM   22  H30 UNL     1      24.879   1.078  50.713  1.00  0.00     0.169 HD
ENDROOT
BRANCH   3  23
HETATM   23  N1  UNL     1      24.342   0.785  53.329  1.00  0.00    -0.379 N 
HETATM   24  C5  UNL     1      24.941   1.777  54.190  1.00  0.00     0.125 C 
HETATM   25  C6  UNL     1      26.403   1.967  53.753  1.00  0.00     0.055 C 
HETATM   26  C7  UNL     1      27.137   0.732  54.228  1.00  0.00     0.225 C 
HETATM   27  C10 UNL     1      26.330  -0.517  54.014  1.00  0.00     0.055 C 
HETATM   28  C11 UNL     1      25.170  -0.354  53.083  1.00  0.00     0.125 C 
BRANCH  26  29
HETATM   29  N2  UNL     1      28.430   0.566  53.647  1.00  0.00     0.084 N 
HETATM   30  C8  UNL     1      29.425   1.441  54.207  1.00  0.00     0.309 C 
HETATM   31  C9  UNL     1      28.922  -0.771  53.578  1.00  0.00     0.309 C 
ENDBRANCH  26  29
ENDBRANCH   3  23
BRANCH   1  32
HETATM   32  O1  UNL     1      19.631  -0.143  52.311  1.00  0.00    -0.355 OA
HETATM   33  C1  UNL     1      19.340  -0.875  53.457  1.00  0.00     0.210 C 
ENDBRANCH   1  32
TORSDOF 3
ENDMDL
MODEL 4
REMARK VINA RESULT:      -8.0      2.163      6.654
REMARK  3 active torsions:
REMARK  status: ('A' for Active; 'I' for Inactive)
REMARK    1  A    between atoms: O1_2  and  C2_3 
REMARK    2  A    between atoms: C4_5  and  N1_6 
REMARK    3  A    between atoms: C7_9  and  N2_10 
ROOT
HETATM    1  C2  UNL     1      21.339   1.577  50.081  1.00  0.00     0.079 A 
HETATM    2  C3  UNL     1      22.281   1.223  51.019  1.00  0.00     0.069 A 
HETATM    3  C4  UNL     1      23.512   1.807  50.969  1.00  0.00     0.060 A 
HETATM    4  C12 UNL     1      23.787   2.728  49.996  1.00  0.00     0.062 A 
HETATM    5  C13 UNL     1      22.765   3.040  49.061  1.00  0.00     0.044 A 
HETATM    6  C14 UNL     1      21.504   2.486  49.060  1.00  0.00     0.002 A 
HETATM    7  C15 UNL     1      20.508   2.892  48.067  1.00  0.00     0.139 C 
HETATM    8  C16 UNL     1      19.088   2.560  48.524  1.00  0.00     0.039 C 
HETATM    9  N3  UNL     1      20.630   4.243  47.668  1.00  0.00    -0.290 NA
HETATM   10  C17 UNL     1      21.125   5.283  48.127  1.00  0.00     0.142 C 
HETATM   11  C18 UNL     1      21.810   6.233  48.993  1.00  0.00     0.075 A 
HETATM   12  C19 UNL     1      21.044   6.847  49.952  1.00  0.00     0.034 A 
HETATM   13  C20 UNL     1      21.858   7.679  50.691  1.00  0.00     0.022 A 
HETATM   14  C21 UNL     1      23.073   7.474  50.079  1.00  0.00     0.119 A 
HETATM   15  N4  UNL     1      23.101   6.611  49.047  1.00  0.00    -0.243 N 
HETATM   16  N5  UNL     1      24.169   6.241  48.232  1.00  0.00    -0.165 NA
HETATM   17  C22 UNL     1      25.340   6.326  48.718  1.00  0.00     0.113 C 
HETATM   18  C23 UNL     1      25.507   6.128  50.021  1.00  0.00     0.110 C 
HETATM   19  C24 UNL     1      24.688   4.924  50.161  1.00  0.00     0.248 C 
HETATM   20  O2  UNL     1      23.666   4.340  50.570  1.00  0.00    -0.268 OA
HETATM   21  N6  UNL     1      24.931   3.568  49.677  1.00  0.00    -0.322 N 
HETATM   22  H30 UNL     1      25.359   2.727  49.251  1.00  0.00     0.169 HD
ENDROOT
BRANCH   3  23
HETATM   23  N1  UNL     1      24.742   1.742  51.672  1.00  0.00    -0.379 N 
HETATM   24  C5  UNL     1      26.073   1.371  51.256  1.00  0.00     0.125 C 
HETATM   25  C6  UNL     1      26.678   0.468  52.345  1.00  0.00     0.055 C 
HETATM   26  C7  UNL     1      27.012   1.388  53.500  1.00  0.00     0.225 C 
HETATM   27  C10 UNL     1      25.939   2.413  53.730  1.00  0.00     0.055 C 
HETATM   28  C11 UNL     1      24.640   2.114  53.049  1.00  0.00     0.125 C 
BRANCH  26  29
HETATM   29  N2  UNL     1      27.286   0.706  54.723  1.00  0.00     0.084 N 
HETATM   30  C8  UNL     1      26.247  -0.207  55.116  1.00  0.00     0.309 C 
HETATM   31  C9  UNL     1      28.565   0.079  54.821  1.00  0.00     0.309 C 
ENDBRANCH  26  29
ENDBRANCH   3  23
BRANCH   1  32
HETATM   32  O1  UNL     1      20.125   0.925  50.221  1.00  0.00    -0.355 OA
HETATM   33  C1  UNL     1      19.643   0.309  51.371  1.00  0.00     0.210 C 
ENDBRANCH   1  32
TORSDOF 3
ENDMDL
MODEL 5
REMARK VINA RESULT:      -7.4      3.620      7.071
REMARK  3 active torsions:
REMARK  status: ('A' for Active; 'I' for Inactive)
REMARK    1  A    between atoms: O1_2  and  C2_3 
REMARK    2  A    between atoms: C4_5  and  N1_6 
REMARK    3  A    between atoms: C7_9  and  N2_10 
ROOT
HETATM    1  C2  UNL     1      20.135   0.052  53.053  1.00  0.00     0.079 A 
HETATM    2  C3  UNL     1      21.171   0.952  53.146  1.00  0.00     0.069 A 
HETATM    3  C4  UNL     1      21.257   1.955  52.226  1.00  0.00     0.060 A 
HETATM    4  C12 UNL     1      20.319   2.049  51.235  1.00  0.00     0.062 A 
HETATM    5  C13 UNL     1      19.281   1.081  51.202  1.00  0.00     0.044 A 
HETATM    6  C14 UNL     1      19.140   0.047  52.101  1.00  0.00     0.002 A 
HETATM    7  C15 UNL     1      18.018  -0.888  52.000  1.00  0.00     0.139 C 
HETATM    8  C16 UNL     1      17.766  -1.614  53.320  1.00  0.00     0.039 C 
HETATM    9  N3  UNL     1      16.838  -0.297  51.490  1.00  0.00    -0.290 NA
HETATM   10  C17 UNL     1      16.364   0.844  51.393  1.00  0.00     0.142 C 
HETATM   11  C18 UNL     1      16.185   2.287  51.476  1.00  0.00     0.075 A 
HETATM   12  C19 UNL     1      15.626   2.767  52.634  1.00  0.00     0.034 A 
HETATM   13  C20 UNL     1      15.564   4.142  52.550  1.00  0.00     0.022 A 
HETATM   14  C21 UNL     1      16.110   4.356  51.305  1.00  0.00     0.119 A 
HETATM   15  N4  UNL     1      16.502   3.271  50.613  1.00  0.00    -0.243 N 
HETATM   16  N5  UNL     1      17.049   3.187  49.334  1.00  0.00    -0.165 NA
HETATM   17  C22 UNL     1      17.688   4.196  48.898  1.00  0.00     0.113 C 
HETATM   18  C23 UNL     1      18.346   4.958  49.763  1.00  0.00     0.110 C 
HETATM   19  C24 UNL     1      18.993   3.897  50.535  1.00  0.00     0.248 C 
HETATM   20  O2  UNL     1      19.120   3.228  51.579  1.00  0.00    -0.268 OA
HETATM   21  N6  UNL     1      20.067   2.985  50.150  1.00  0.00    -0.322 N 
HETATM   22  H30 UNL     1      20.823   2.502  49.633  1.00  0.00     0.169 HD
ENDROOT
BRANCH   3  23
HETATM   23  N1  UNL     1      22.115   3.042  51.925  1.00  0.00    -0.379 N 
HETATM   24  C5  UNL     1      22.118   4.420  52.358  1.00  0.00     0.125 C 
HETATM   25  C6  UNL     1      22.393   5.305  51.130  1.00  0.00     0.055 C 
HETATM   26  C7  UNL     1      23.863   5.126  50.817  1.00  0.00     0.225 C 
HETATM   27  C10 UNL     1      24.298   3.696  50.963  1.00  0.00     0.055 C 
HETATM   28  C11 UNL     1      23.174   2.710  51.025  1.00  0.00     0.125 C 
BRANCH  26  29
HETATM   29  N2  UNL     1      24.245   5.610  49.530  1.00  0.00     0.084 N 
HETATM   30  C8  UNL     1      25.574   5.221  49.144  1.00  0.00     0.309 C 
HETATM   31  C9  UNL     1      23.324   5.365  48.468  1.00  0.00     0.309 C 
ENDBRANCH  26  29
ENDBRANCH   3  23
BRANCH   1  32
HETATM   32  O1  UNL     1      20.142  -0.925  54.034  1.00  0.00    -0.355 OA
HETATM   33  C1  UNL     1      21.259  -1.570  54.554  1.00  0.00     0.210 C 
ENDBRANCH   1  32
TORSDOF 3
ENDMDL
MODEL 6
REMARK VINA RESULT:      -7.4      3.289      8.028
REMARK  3 active torsions:
REMARK  status: ('A' for Active; 'I' for Inactive)
REMARK    1  A    between atoms: O1_2  and  C2_3 
REMARK    2  A    between atoms: C4_5  and  N1_6 
REMARK    3  A    between atoms: C7_9  and  N2_10 
ROOT
HETATM    1  C2  UNL     1      22.940   0.686  52.754  1.00  0.00     0.079 A 
HETATM    2  C3  UNL     1      21.866  -0.159  52.591  1.00  0.00     0.069 A 
HETATM    3  C4  UNL     1      20.647   0.374  52.292  1.00  0.00     0.060 A 
HETATM    4  C12 UNL     1      20.513   1.729  52.160  1.00  0.00     0.062 A 
HETATM    5  C13 UNL     1      21.666   2.537  52.345  1.00  0.00     0.044 A 
HETATM    6  C14 UNL     1      22.922   2.059  52.647  1.00  0.00     0.002 A 
HETATM    7  C15 UNL     1      24.057   2.971  52.793  1.00  0.00     0.139 C 
HETATM    8  C16 UNL     1      25.391   2.245  52.629  1.00  0.00     0.039 C 
HETATM    9  N3  UNL     1      23.972   4.112  51.961  1.00  0.00    -0.290 NA
HETATM   10  C17 UNL     1      23.388   4.430  50.915  1.00  0.00     0.142 C 
HETATM   11  C18 UNL     1      22.553   4.394  49.722  1.00  0.00     0.075 A 
HETATM   12  C19 UNL     1      23.141   3.912  48.579  1.00  0.00     0.034 A 
HETATM   13  C20 UNL     1      22.201   3.921  47.570  1.00  0.00     0.022 A 
HETATM   14  C21 UNL     1      21.105   4.425  48.233  1.00  0.00     0.119 A 
HETATM   15  N4  UNL     1      21.262   4.728  49.534  1.00  0.00    -0.243 N 
HETATM   16  N5  UNL     1      20.347   5.276  50.431  1.00  0.00    -0.165 NA
HETATM   17  C22 UNL     1      19.112   5.079  50.210  1.00  0.00     0.113 C 
HETATM   18  C23 UNL     1      18.741   3.948  49.620  1.00  0.00     0.110 C 
HETATM   19  C24 UNL     1      19.552   3.020  50.408  1.00  0.00     0.248 C 
HETATM   20  O2  UNL     1      20.507   2.227  50.518  1.00  0.00    -0.268 OA
HETATM   21  N6  UNL     1      19.418   2.619  51.805  1.00  0.00    -0.322 N 
HETATM   22  H30 UNL     1      19.083   2.502  52.778  1.00  0.00     0.169 HD
ENDROOT
BRANCH   3  23
HETATM   23  N1  UNL     1      19.322  -0.078  52.070  1.00  0.00    -0.379 N 
HETATM   24  C5  UNL     1      18.516  -0.156  50.874  1.00  0.00     0.125 C 
HETATM   25  C6  UNL     1      17.104   0.348  51.217  1.00  0.00     0.055 C 
HETATM   26  C7  UNL     1      16.464  -0.753  52.036  1.00  0.00     0.225 C 
HETATM   27  C10 UNL     1      17.427  -1.353  53.020  1.00  0.00     0.055 C 
HETATM   28  C11 UNL     1      18.663  -0.541  53.251  1.00  0.00     0.125 C 
BRANCH  26  29
HETATM   29  N2  UNL     1      15.277  -0.352  52.718  1.00  0.00     0.084 N 
HETATM   30  C8  UNL     1      14.993   1.052  52.597  1.00  0.00     0.309 C 
HETATM   31  C9  UNL     1      14.106  -1.123  52.449  1.00  0.00     0.309 C 
ENDBRANCH  26  29
ENDBRANCH   3  23
BRANCH   1  32
HETATM   32  O1  UNL     1      24.128   0.043  53.055  1.00  0.00    -0.355 OA
HETATM   33  C1  UNL     1      24.399  -0.708  54.194  1.00  0.00     0.210 C 
ENDBRANCH   1  32
TORSDOF 3
ENDMDL
MODEL 7
REMARK VINA RESULT:      -7.3      2.609      5.747
REMARK  3 active torsions:
REMARK  status: ('A' for Active; 'I' for Inactive)
REMARK    1  A    between atoms: O1_2  and  C2_3 
REMARK    2  A    between atoms: C4_5  and  N1_6 
REMARK    3  A    between atoms: C7_9  and  N2_10 
ROOT
HETATM    1  C2  UNL     1      23.989   1.877  52.261  1.00  0.00     0.079 A 
HETATM    2  C3  UNL     1      24.689   3.046  52.069  1.00  0.00     0.069 A 
HETATM    3  C4  UNL     1      24.446   3.783  50.948  1.00  0.00     0.060 A 
HETATM    4  C12 UNL     1      23.518   3.352  50.040  1.00  0.00     0.062 A 
HETATM    5  C13 UNL     1      22.837   2.134  50.306  1.00  0.00     0.044 A 
HETATM    6  C14 UNL     1      23.037   1.347  51.418  1.00  0.00     0.002 A 
HETATM    7  C15 UNL     1      22.267   0.118  51.617  1.00  0.00     0.139 C 
HETATM    8  C16 UNL     1      22.268  -0.320  53.080  1.00  0.00     0.039 C 
HETATM    9  N3  UNL     1      20.957   0.185  51.088  1.00  0.00    -0.290 NA
HETATM   10  C17 UNL     1      20.146   1.072  50.782  1.00  0.00     0.142 C 
HETATM   11  C18 UNL     1      19.522   2.369  50.561  1.00  0.00     0.075 A 
HETATM   12  C19 UNL     1      18.850   2.912  51.627  1.00  0.00     0.034 A 
HETATM   13  C20 UNL     1      18.357   4.143  51.248  1.00  0.00     0.022 A 
HETATM   14  C21 UNL     1      18.797   4.216  49.947  1.00  0.00     0.119 A 
HETATM   15  N4  UNL     1      19.504   3.171  49.480  1.00  0.00    -0.243 N 
HETATM   16  N5  UNL     1      20.039   2.961  48.210  1.00  0.00    -0.165 NA
HETATM   17  C22 UNL     1      20.323   3.985  47.512  1.00  0.00     0.113 C 
HETATM   18  C23 UNL     1      20.716   5.092  48.132  1.00  0.00     0.110 C 
HETATM   19  C24 UNL     1      21.671   4.490  49.063  1.00  0.00     0.248 C 
HETATM   20  O2  UNL     1      22.012   4.156  50.214  1.00  0.00    -0.268 OA
HETATM   21  N6  UNL     1      22.973   3.885  48.801  1.00  0.00    -0.322 N 
HETATM   22  H30 UNL     1      23.839   3.549  48.342  1.00  0.00     0.169 HD
ENDROOT
BRANCH   3  23
HETATM   23  N1  UNL     1      24.915   4.978  50.346  1.00  0.00    -0.379 N 
HETATM   24  C5  UNL     1      24.612   6.367  50.593  1.00  0.00     0.125 C 
HETATM   25  C6  UNL     1      24.433   7.065  49.234  1.00  0.00     0.055 C 
HETATM   26  C7  UNL     1      25.825   7.200  48.656  1.00  0.00     0.225 C 
HETATM   27  C10 UNL     1      26.652   5.968  48.889  1.00  0.00     0.055 C 
HETATM   28  C11 UNL     1      25.865   4.763  49.299  1.00  0.00     0.125 C 
BRANCH  26  29
HETATM   29  N2  UNL     1      25.848   7.531  47.269  1.00  0.00     0.084 N 
HETATM   30  C8  UNL     1      24.603   8.067  46.788  1.00  0.00     0.309 C 
HETATM   31  C9  UNL     1      26.941   8.337  46.831  1.00  0.00     0.309 C 
ENDBRANCH  26  29
ENDBRANCH   3  23
BRANCH   1  32
HETATM   32  O1  UNL     1      24.312   1.207  53.429  1.00  0.00    -0.355 OA
HETATM   33  C1  UNL     1      25.582   0.808  53.831  1.00  0.00     0.210 C 
ENDBRANCH   1  32
TORSDOF 3
ENDMDL
MODEL 8
REMARK VINA RESULT:      -7.1      2.020      4.888
REMARK  3 active torsions:
REMARK  status: ('A' for Active; 'I' for Inactive)
REMARK    1  A    between atoms: O1_2  and  C2_3 
REMARK    2  A    between atoms: C4_5  and  N1_6 
REMARK    3  A    between atoms: C7_9  and  N2_10 
ROOT
HETATM    1  C2  UNL     1      26.152   2.020  53.025  1.00  0.00     0.079 A 
HETATM    2  C3  UNL     1      25.932   3.294  52.556  1.00  0.00     0.069 A 
HETATM    3  C4  UNL     1      24.936   3.500  51.648  1.00  0.00     0.060 A 
HETATM    4  C12 UNL     1      24.179   2.445  51.222  1.00  0.00     0.062 A 
HETATM    5  C13 UNL     1      24.467   1.158  51.748  1.00  0.00     0.044 A 
HETATM    6  C14 UNL     1      25.457   0.886  52.666  1.00  0.00     0.002 A 
HETATM    7  C15 UNL     1      25.661  -0.473  53.170  1.00  0.00     0.139 C 
HETATM    8  C16 UNL     1      26.427  -0.477  54.492  1.00  0.00     0.039 C 
HETATM    9  N3  UNL     1      24.468  -1.228  53.250  1.00  0.00    -0.290 NA
HETATM   10  C17 UNL     1      23.252  -0.997  53.321  1.00  0.00     0.142 C 
HETATM   11  C18 UNL     1      21.968  -0.313  53.392  1.00  0.00     0.075 A 
HETATM   12  C19 UNL     1      21.533   0.041  54.645  1.00  0.00     0.034 A 
HETATM   13  C20 UNL     1      20.329   0.701  54.516  1.00  0.00     0.022 A 
HETATM   14  C21 UNL     1      20.156   0.675  53.152  1.00  0.00     0.119 A 
HETATM   15  N4  UNL     1      21.115   0.074  52.424  1.00  0.00    -0.243 N 
HETATM   16  N5  UNL     1      21.186  -0.127  51.047  1.00  0.00    -0.165 NA
HETATM   17  C22 UNL     1      20.565   0.690  50.298  1.00  0.00     0.113 C 
HETATM   18  C23 UNL     1      20.437   1.951  50.696  1.00  0.00     0.110 C 
HETATM   19  C24 UNL     1      21.816   2.180  51.128  1.00  0.00     0.248 C 
HETATM   20  O2  UNL     1      22.664   2.362  52.023  1.00  0.00    -0.268 OA
HETATM   21  N6  UNL     1      23.035   2.299  50.334  1.00  0.00    -0.322 N 
HETATM   22  H30 UNL     1      23.708   2.362  49.549  1.00  0.00     0.169 HD
ENDROOT
BRANCH   3  23
HETATM   23  N1  UNL     1      24.387   4.577  50.908  1.00  0.00    -0.379 N 
HETATM   24  C5  UNL     1      23.412   5.586  51.249  1.00  0.00     0.125 C 
HETATM   25  C6  UNL     1      22.443   5.732  50.062  1.00  0.00     0.055 C 
HETATM   26  C7  UNL     1      23.217   6.469  48.991  1.00  0.00     0.225 C 
HETATM   27  C10 UNL     1      24.636   5.986  48.889  1.00  0.00     0.055 C 
HETATM   28  C11 UNL     1      24.896   4.682  49.576  1.00  0.00     0.125 C 
BRANCH  26  29
HETATM   29  N2  UNL     1      22.608   6.424  47.701  1.00  0.00     0.084 N 
HETATM   30  C8  UNL     1      23.373   7.091  46.683  1.00  0.00     0.309 C 
HETATM   31  C9  UNL     1      22.188   5.138  47.248  1.00  0.00     0.309 C 
ENDBRANCH  26  29
ENDBRANCH   3  23
BRANCH   1  32
HETATM   32  O1  UNL     1      27.185   1.921  53.941  1.00  0.00    -0.355 OA
HETATM   33  C1  UNL     1      28.492   2.368  53.769  1.00  0.00     0.210 C 
ENDBRANCH   1  32
TORSDOF 3
ENDMDL
MODEL 9
REMARK VINA RESULT:      -7.0      4.176      8.184
REMARK  3 active torsions:
REMARK  status: ('A' for Active; 'I' for Inactive)
REMARK    1  A    between atoms: O1_2  and  C2_3 
REMARK    2  A    between atoms: C4_5  and  N1_6 
REMARK    3  A    between atoms: C7_9  and  N2_10 
ROOT
HETATM    1  C2  UNL     1      17.445  -1.636  52.804  1.00  0.00     0.079 A 
HETATM    2  C3  UNL     1      18.685  -1.396  53.349  1.00  0.00     0.069 A 
HETATM    3  C4  UNL     1      19.474  -0.434  52.792  1.00  0.00     0.060 A 
HETATM    4  C12 UNL     1      19.023   0.271  51.710  1.00  0.00     0.062 A 
HETATM    5  C13 UNL     1      17.733  -0.035  51.202  1.00  0.00     0.044 A 
HETATM    6  C14 UNL     1      16.890  -0.993  51.720  1.00  0.00     0.002 A 
HETATM    7  C15 UNL     1      15.565  -1.218  51.141  1.00  0.00     0.139 C 
HETATM    8  C16 UNL     1      14.632  -1.927  52.122  1.00  0.00     0.039 C 
HETATM    9  N3  UNL     1      14.977  -0.047  50.608  1.00  0.00    -0.290 NA
HETATM   10  C17 UNL     1      15.102   1.178  50.756  1.00  0.00     0.142 C 
HETATM   11  C18 UNL     1      15.550   2.484  51.216  1.00  0.00     0.075 A 
HETATM   12  C19 UNL     1      14.931   2.983  52.335  1.00  0.00     0.034 A 
HETATM   13  C20 UNL     1      15.501   4.201  52.640  1.00  0.00     0.022 A 
HETATM   14  C21 UNL     1      16.437   4.315  51.638  1.00  0.00     0.119 A 
HETATM   15  N4  UNL     1      16.510   3.306  50.750  1.00  0.00    -0.243 N 
HETATM   16  N5  UNL     1      17.328   3.171  49.631  1.00  0.00    -0.165 NA
HETATM   17  C22 UNL     1      18.440   3.785  49.634  1.00  0.00     0.113 C 
HETATM   18  C23 UNL     1      19.065   3.969  50.792  1.00  0.00     0.110 C 
HETATM   19  C24 UNL     1      18.916   2.618  51.333  1.00  0.00     0.248 C 
HETATM   20  O2  UNL     1      18.415   1.816  52.144  1.00  0.00    -0.268 OA
HETATM   21  N6  UNL     1      19.548   1.371  50.914  1.00  0.00    -0.322 N 
HETATM   22  H30 UNL     1      20.137   0.667  50.434  1.00  0.00     0.169 HD
ENDROOT
BRANCH   3  23
HETATM   23  N1  UNL     1      20.766   0.117  52.987  1.00  0.00    -0.379 N 
HETATM   24  C5  UNL     1      21.209   1.348  53.597  1.00  0.00     0.125 C 
HETATM   25  C6  UNL     1      22.297   1.962  52.699  1.00  0.00     0.055 C 
HETATM   26  C7  UNL     1      23.529   1.108  52.907  1.00  0.00     0.225 C 
HETATM   27  C10 UNL     1      23.194  -0.354  52.977  1.00  0.00     0.055 C 
HETATM   28  C11 UNL     1      21.825  -0.700  52.483  1.00  0.00     0.125 C 
BRANCH  26  29
HETATM   29  N2  UNL     1      24.549   1.315  51.931  1.00  0.00     0.084 N 
HETATM   30  C8  UNL     1      24.646   2.679  51.485  1.00  0.00     0.309 C 
HETATM   31  C9  UNL     1      25.841   0.801  52.252  1.00  0.00     0.309 C 
ENDBRANCH  26  29
ENDBRANCH   3  23
BRANCH   1  32
HETATM   32  O1  UNL     1      16.726  -2.631  53.444  1.00  0.00    -0.355 OA
HETATM   33  C1  UNL     1      17.137  -3.944  53.658  1.00  0.00     0.210 C 
ENDBRANCH   1  32
TORSDOF 3
ENDMDL
