MODEL 1
REMARK VINA RESULT:      -7.1      0.000      0.000
REMARK  6 active torsions:
REMARK  status: ('A' for Active; 'I' for Inactive)
REMARK    1  A    between atoms: C2_2  and  C3_3 
REMARK    2  A    between atoms: C3_3  and  N1_4 
REMARK    3  A    between atoms: N1_4  and  C4_5 
REMARK       I    between atoms: N1_4  and  C11_15 
REMARK    4  A    between atoms: C4_5  and  C5_6 
REMARK    5  A    between atoms: C10_13  and  O1_14 
REMARK       I    between atoms: C11_15  and  N2_17 
REMARK    6  A    between atoms: N2_17  and  C12_18 
ROOT
HETATM    1  N1  UNL     1      24.361   3.316  51.370  1.00  0.00    -0.326 N 
HETATM    2  C11 UNL     1      25.427   2.597  52.030  1.00  0.00     0.323 C 
HETATM    3  O2  UNL     1      25.200   2.618  53.274  1.00  0.00    -0.247 OA
HETATM    4  N2  UNL     1      26.586   1.926  51.560  1.00  0.00    -0.309 N 
HETATM    5  H11 UNL     1      26.628   1.992  50.522  1.00  0.00     0.170 HD
ENDROOT
BRANCH   1   6
HETATM    6  C3  UNL     1      23.423   3.777  52.370  1.00  0.00     0.154 C 
BRANCH   6   7
HETATM    7  C2  UNL     1      22.108   4.118  51.716  1.00  0.00    -0.017 C 
HETATM    8  C1  UNL     1      21.159   4.872  51.172  1.00  0.00     0.008 C 
ENDBRANCH   6   7
ENDBRANCH   1   6
BRANCH   1   9
HETATM    9  C4  UNL     1      24.379   3.453  49.947  1.00  0.00     0.169 C 
BRANCH   9  10
HETATM   10  C5  UNL     1      25.111   4.628  49.423  1.00  0.00    -0.004 A 
HETATM   11  C6  UNL     1      24.430   5.832  49.202  1.00  0.00     0.030 A 
HETATM   12  C7  UNL     1      25.033   6.985  48.708  1.00  0.00     0.013 A 
HETATM   13 BR1  UNL     1      24.095   8.601  48.418  1.00  0.00    -0.051 Br
HETATM   14  C8  UNL     1      26.376   6.972  48.411  1.00  0.00     0.041 A 
HETATM   15  C9  UNL     1      27.081   5.807  48.614  1.00  0.00     0.045 A 
HETATM   16 BR2  UNL     1      28.944   5.797  48.198  1.00  0.00    -0.048 Br
HETATM   17  C10 UNL     1      26.441   4.710  49.099  1.00  0.00     0.091 A 
BRANCH  17  18
HETATM   18  O1  UNL     1      27.225   3.597  49.270  1.00  0.00    -0.359 OA
HETATM   19  H10 UNL     1      26.780   2.752  49.607  1.00  0.00     0.217 HD
ENDBRANCH  17  18
ENDBRANCH   9  10
ENDBRANCH   1   9
BRANCH   4  20
HETATM   20  C12 UNL     1      27.419   1.323  52.539  1.00  0.00     0.036 A 
HETATM   21  C13 UNL     1      28.306   2.052  53.320  1.00  0.00     0.029 A 
HETATM   22  C14 UNL     1      29.106   1.416  54.270  1.00  0.00     0.002 A 
HETATM   23  C15 UNL     1      29.000   0.036  54.422  1.00  0.00     0.000 A 
HETATM   24  C16 UNL     1      28.123  -0.707  53.654  1.00  0.00     0.002 A 
HETATM   25  C17 UNL     1      27.347  -0.046  52.725  1.00  0.00     0.029 A 
ENDBRANCH   4  20
TORSDOF 6
ENDMDL
MODEL 2
REMARK VINA RESULT:      -7.1      2.938      3.896
REMARK  6 active torsions:
REMARK  status: ('A' for Active; 'I' for Inactive)
REMARK    1  A    between atoms: C2_2  and  C3_3 
REMARK    2  A    between atoms: C3_3  and  N1_4 
REMARK    3  A    between atoms: N1_4  and  C4_5 
REMARK       I    between atoms: N1_4  and  C11_15 
REMARK    4  A    between atoms: C4_5  and  C5_6 
REMARK    5  A    between atoms: C10_13  and  O1_14 
REMARK       I    between atoms: C11_15  and  N2_17 
REMARK    6  A    between atoms: N2_17  and  C12_18 
ROOT
HETATM    1  N1  UNL     1      23.822   0.430  53.314  1.00  0.00    -0.326 N 
HETATM    2  C11 UNL     1      25.216   0.046  53.344  1.00  0.00     0.323 C 
HETATM    3  O2  UNL     1      25.273  -1.198  53.560  1.00  0.00    -0.247 OA
HETATM    4  N2  UNL     1      26.427   0.768  53.183  1.00  0.00    -0.309 N 
HETATM    5  H11 UNL     1      26.213   1.771  53.007  1.00  0.00     0.170 HD
ENDROOT
BRANCH   1   6
HETATM    6  C3  UNL     1      23.011  -0.750  53.525  1.00  0.00     0.154 C 
BRANCH   6   7
HETATM    7  C2  UNL     1      21.624  -0.344  53.954  1.00  0.00    -0.017 C 
HETATM    8  C1  UNL     1      20.334  -0.047  53.839  1.00  0.00     0.008 C 
ENDBRANCH   6   7
ENDBRANCH   1   6
BRANCH   1   9
HETATM    9  C4  UNL     1      23.472   1.799  53.095  1.00  0.00     0.169 C 
BRANCH   9  10
HETATM   10  C5  UNL     1      23.608   2.282  51.702  1.00  0.00    -0.004 A 
HETATM   11  C6  UNL     1      22.625   1.968  50.755  1.00  0.00     0.030 A 
HETATM   12  C7  UNL     1      22.671   2.375  49.425  1.00  0.00     0.013 A 
HETATM   13 BR1  UNL     1      21.332   1.940  48.162  1.00  0.00    -0.051 Br
HETATM   14  C8  UNL     1      23.733   3.130  48.985  1.00  0.00     0.041 A 
HETATM   15  C9  UNL     1      24.721   3.461  49.886  1.00  0.00     0.045 A 
HETATM   16 BR2  UNL     1      26.190   4.509  49.267  1.00  0.00    -0.048 Br
HETATM   17  C10 UNL     1      24.624   3.037  51.173  1.00  0.00     0.091 A 
BRANCH  17  18
HETATM   18  O1  UNL     1      25.654   3.415  51.998  1.00  0.00    -0.359 OA
HETATM   19  H10 UNL     1      26.548   3.624  51.573  1.00  0.00     0.217 HD
ENDBRANCH  17  18
ENDBRANCH   9  10
ENDBRANCH   1   9
BRANCH   4  20
HETATM   20  C12 UNL     1      27.633   0.025  53.282  1.00  0.00     0.036 A 
HETATM   21  C13 UNL     1      27.708  -1.326  52.969  1.00  0.00     0.029 A 
HETATM   22  C14 UNL     1      28.916  -2.016  53.082  1.00  0.00     0.002 A 
HETATM   23  C15 UNL     1      30.045  -1.327  53.515  1.00  0.00     0.000 A 
HETATM   24  C16 UNL     1      29.990   0.018  53.831  1.00  0.00     0.002 A 
HETATM   25  C17 UNL     1      28.781   0.669  53.708  1.00  0.00     0.029 A 
ENDBRANCH   4  20
TORSDOF 6
ENDMDL
MODEL 3
REMARK VINA RESULT:      -7.1      3.480      6.307
REMARK  6 active torsions:
REMARK  status: ('A' for Active; 'I' for Inactive)
REMARK    1  A    between atoms: C2_2  and  C3_3 
REMARK    2  A    between atoms: C3_3  and  N1_4 
REMARK    3  A    between atoms: N1_4  and  C4_5 
REMARK       I    between atoms: N1_4  and  C11_15 
REMARK    4  A    between atoms: C4_5  and  C5_6 
REMARK    5  A    between atoms: C10_13  and  O1_14 
REMARK       I    between atoms: C11_15  and  N2_17 
REMARK    6  A    between atoms: N2_17  and  C12_18 
ROOT
HETATM    1  N1  UNL     1      23.875   3.695  51.142  1.00  0.00    -0.326 N 
HETATM    2  C11 UNL     1      24.849   4.441  50.378  1.00  0.00     0.323 C 
HETATM    3  O2  UNL     1      24.869   5.625  50.820  1.00  0.00    -0.247 OA
HETATM    4  N2  UNL     1      25.716   4.097  49.308  1.00  0.00    -0.309 N 
HETATM    5  H11 UNL     1      25.587   3.093  49.066  1.00  0.00     0.170 HD
ENDROOT
BRANCH   1   6
HETATM    6  C3  UNL     1      23.296   4.573  52.138  1.00  0.00     0.154 C 
BRANCH   6   7
HETATM    7  C2  UNL     1      21.818   4.301  52.258  1.00  0.00    -0.017 C 
HETATM    8  C1  UNL     1      20.637   3.759  51.983  1.00  0.00     0.008 C 
ENDBRANCH   6   7
ENDBRANCH   1   6
BRANCH   1   9
HETATM    9  C4  UNL     1      23.644   2.318  50.839  1.00  0.00     0.169 C 
BRANCH   9  10
HETATM   10  C5  UNL     1      24.148   1.346  51.835  1.00  0.00    -0.004 A 
HETATM   11  C6  UNL     1      23.250   0.690  52.687  1.00  0.00     0.030 A 
HETATM   12  C7  UNL     1      23.633  -0.234  53.655  1.00  0.00     0.013 A 
HETATM   13 BR1  UNL     1      22.404  -1.108  54.795  1.00  0.00    -0.051 Br
HETATM   14  C8  UNL     1      24.965  -0.541  53.807  1.00  0.00     0.041 A 
HETATM   15  C9  UNL     1      25.880   0.082  52.988  1.00  0.00     0.045 A 
HETATM   16 BR2  UNL     1      27.726  -0.351  53.206  1.00  0.00    -0.048 Br
HETATM   17  C10 UNL     1      25.450   0.976  52.059  1.00  0.00     0.091 A 
BRANCH  17  18
HETATM   18  O1  UNL     1      26.432   1.545  51.288  1.00  0.00    -0.359 OA
HETATM   19  H10 UNL     1      26.593   2.539  51.385  1.00  0.00     0.217 HD
ENDBRANCH  17  18
ENDBRANCH   9  10
ENDBRANCH   1   9
BRANCH   4  20
HETATM   20  C12 UNL     1      26.551   5.128  48.804  1.00  0.00     0.036 A 
HETATM   21  C13 UNL     1      26.058   6.366  48.410  1.00  0.00     0.029 A 
HETATM   22  C14 UNL     1      26.916   7.350  47.919  1.00  0.00     0.002 A 
HETATM   23  C15 UNL     1      28.278   7.071  47.831  1.00  0.00     0.000 A 
HETATM   24  C16 UNL     1      28.787   5.845  48.217  1.00  0.00     0.002 A 
HETATM   25  C17 UNL     1      27.911   4.896  48.698  1.00  0.00     0.029 A 
ENDBRANCH   4  20
TORSDOF 6
ENDMDL
MODEL 4
REMARK VINA RESULT:      -7.1      3.858      6.760
REMARK  6 active torsions:
REMARK  status: ('A' for Active; 'I' for Inactive)
REMARK    1  A    between atoms: C2_2  and  C3_3 
REMARK    2  A    between atoms: C3_3  and  N1_4 
REMARK    3  A    between atoms: N1_4  and  C4_5 
REMARK       I    between atoms: N1_4  and  C11_15 
REMARK    4  A    between atoms: C4_5  and  C5_6 
REMARK    5  A    between atoms: C10_13  and  O1_14 
REMARK       I    between atoms: C11_15  and  N2_17 
REMARK    6  A    between atoms: N2_17  and  C12_18 
ROOT
HETATM    1  N1  UNL     1      22.663   3.580  50.760  1.00  0.00    -0.326 N 
HETATM    2  C11 UNL     1      23.832   4.220  50.201  1.00  0.00     0.323 C 
HETATM    3  O2  UNL     1      23.668   4.311  48.951  1.00  0.00    -0.247 OA
HETATM    4  N2  UNL     1      25.031   4.724  50.769  1.00  0.00    -0.309 N 
HETATM    5  H11 UNL     1      25.013   4.582  51.800  1.00  0.00     0.170 HD
ENDROOT
BRANCH   1   6
HETATM    6  C3  UNL     1      21.733   3.296  49.688  1.00  0.00     0.154 C 
BRANCH   6   7
HETATM    7  C2  UNL     1      21.633   1.805  49.483  1.00  0.00    -0.017 C 
HETATM    8  C1  UNL     1      21.125   0.581  49.562  1.00  0.00     0.008 C 
ENDBRANCH   6   7
ENDBRANCH   1   6
BRANCH   1   9
HETATM    9  C4  UNL     1      22.594   3.344  52.168  1.00  0.00     0.169 C 
BRANCH   9  10
HETATM   10  C5  UNL     1      22.965   1.981  52.611  1.00  0.00    -0.004 A 
HETATM   11  C6  UNL     1      24.293   1.548  52.497  1.00  0.00     0.030 A 
HETATM   12  C7  UNL     1      24.733   0.285  52.883  1.00  0.00     0.013 A 
HETATM   13 BR1  UNL     1      26.530  -0.280  52.721  1.00  0.00    -0.051 Br
HETATM   14  C8  UNL     1      23.833  -0.612  53.410  1.00  0.00     0.041 A 
HETATM   15  C9  UNL     1      22.518  -0.225  53.539  1.00  0.00     0.045 A 
HETATM   16 BR2  UNL     1      21.277  -1.476  54.272  1.00  0.00    -0.048 Br
HETATM   17  C10 UNL     1      22.144   1.021  53.147  1.00  0.00     0.091 A 
BRANCH  17  18
HETATM   18  O1  UNL     1      20.815   1.319  53.314  1.00  0.00    -0.359 OA
HETATM   19  H10 UNL     1      20.443   1.311  54.255  1.00  0.00     0.217 HD
ENDBRANCH  17  18
ENDBRANCH   9  10
ENDBRANCH   1   9
BRANCH   4  20
HETATM   20  C12 UNL     1      25.973   5.298  49.875  1.00  0.00     0.036 A 
HETATM   21  C13 UNL     1      25.937   6.637  49.509  1.00  0.00     0.029 A 
HETATM   22  C14 UNL     1      26.883   7.159  48.626  1.00  0.00     0.002 A 
HETATM   23  C15 UNL     1      27.865   6.313  48.117  1.00  0.00     0.000 A 
HETATM   24  C16 UNL     1      27.917   4.977  48.470  1.00  0.00     0.002 A 
HETATM   25  C17 UNL     1      26.967   4.495  49.345  1.00  0.00     0.029 A 
ENDBRANCH   4  20
TORSDOF 6
ENDMDL
MODEL 5
REMARK VINA RESULT:      -7.1      3.717      5.418
REMARK  6 active torsions:
REMARK  status: ('A' for Active; 'I' for Inactive)
REMARK    1  A    between atoms: C2_2  and  C3_3 
REMARK    2  A    between atoms: C3_3  and  N1_4 
REMARK    3  A    between atoms: N1_4  and  C4_5 
REMARK       I    between atoms: N1_4  and  C11_15 
REMARK    4  A    between atoms: C4_5  and  C5_6 
REMARK    5  A    between atoms: C10_13  and  O1_14 
REMARK       I    between atoms: C11_15  and  N2_17 
REMARK    6  A    between atoms: N2_17  and  C12_18 
ROOT
HETATM    1  N1  UNL     1      25.155   2.904  51.654  1.00  0.00    -0.326 N 
HETATM    2  C11 UNL     1      26.175   1.973  52.079  1.00  0.00     0.323 C 
HETATM    3  O2  UNL     1      27.074   1.946  51.190  1.00  0.00    -0.247 OA
HETATM    4  N2  UNL     1      26.328   1.154  53.228  1.00  0.00    -0.309 N 
HETATM    5  H11 UNL     1      25.515   1.292  53.863  1.00  0.00     0.170 HD
ENDROOT
BRANCH   1   6
HETATM    6  C3  UNL     1      25.547   3.473  50.381  1.00  0.00     0.154 C 
BRANCH   6   7
HETATM    7  C2  UNL     1      25.046   4.892  50.282  1.00  0.00    -0.017 C 
HETATM    8  C1  UNL     1      25.100   6.216  50.193  1.00  0.00     0.008 C 
ENDBRANCH   6   7
ENDBRANCH   1   6
BRANCH   1   9
HETATM    9  C4  UNL     1      24.008   3.119  52.480  1.00  0.00     0.169 C 
BRANCH   9  10
HETATM   10  C5  UNL     1      22.904   2.147  52.313  1.00  0.00    -0.004 A 
HETATM   11  C6  UNL     1      22.776   1.077  53.208  1.00  0.00     0.030 A 
HETATM   12  C7  UNL     1      21.774   0.114  53.127  1.00  0.00     0.013 A 
HETATM   13 BR1  UNL     1      21.618  -1.323  54.345  1.00  0.00    -0.051 Br
HETATM   14  C8  UNL     1      20.841   0.192  52.119  1.00  0.00     0.041 A 
HETATM   15  C9  UNL     1      20.933   1.230  51.219  1.00  0.00     0.045 A 
HETATM   16 BR2  UNL     1      19.634   1.330  49.824  1.00  0.00    -0.048 Br
HETATM   17  C10 UNL     1      21.931   2.142  51.346  1.00  0.00     0.091 A 
BRANCH  17  18
HETATM   18  O1  UNL     1      21.942   3.141  50.405  1.00  0.00    -0.359 OA
HETATM   19  H10 UNL     1      22.597   3.061  49.637  1.00  0.00     0.217 HD
ENDBRANCH  17  18
ENDBRANCH   9  10
ENDBRANCH   1   9
BRANCH   4  20
HETATM   20  C12 UNL     1      27.496   0.350  53.292  1.00  0.00     0.036 A 
HETATM   21  C13 UNL     1      28.738   0.861  53.646  1.00  0.00     0.029 A 
HETATM   22  C14 UNL     1      29.860   0.034  53.694  1.00  0.00     0.002 A 
HETATM   23  C15 UNL     1      29.714  -1.316  53.383  1.00  0.00     0.000 A 
HETATM   24  C16 UNL     1      28.487  -1.843  53.028  1.00  0.00     0.002 A 
HETATM   25  C17 UNL     1      27.399  -0.996  52.990  1.00  0.00     0.029 A 
ENDBRANCH   4  20
TORSDOF 6
ENDMDL
MODEL 6
REMARK VINA RESULT:      -7.0      3.759      5.373
REMARK  6 active torsions:
REMARK  status: ('A' for Active; 'I' for Inactive)
REMARK    1  A    between atoms: C2_2  and  C3_3 
REMARK    2  A    between atoms: C3_3  and  N1_4 
REMARK    3  A    between atoms: N1_4  and  C4_5 
REMARK       I    between atoms: N1_4  and  C11_15 
REMARK    4  A    between atoms: C4_5  and  C5_6 
REMARK    5  A    between atoms: C10_13  and  O1_14 
REMARK       I    between atoms: C11_15  and  N2_17 
REMARK    6  A    between atoms: N2_17  and  C12_18 
ROOT
HETATM    1  N1  UNL     1      24.908   2.654  51.502  1.00  0.00    -0.326 N 
HETATM    2  C11 UNL     1      25.989   1.826  51.989  1.00  0.00     0.323 C 
HETATM    3  O2  UNL     1      26.851   1.729  51.070  1.00  0.00    -0.247 OA
HETATM    4  N2  UNL     1      26.227   1.162  53.221  1.00  0.00    -0.309 N 
HETATM    5  H11 UNL     1      25.435   1.343  53.871  1.00  0.00     0.170 HD
ENDROOT
BRANCH   1   6
HETATM    6  C3  UNL     1      25.220   3.078  50.154  1.00  0.00     0.154 C 
BRANCH   6   7
HETATM    7  C2  UNL     1      24.235   4.130  49.711  1.00  0.00    -0.017 C 
HETATM    8  C1  UNL     1      23.235   4.674  49.026  1.00  0.00     0.008 C 
ENDBRANCH   6   7
ENDBRANCH   1   6
BRANCH   1   9
HETATM    9  C4  UNL     1      23.786   2.919  52.348  1.00  0.00     0.169 C 
BRANCH   9  10
HETATM   10  C5  UNL     1      22.705   1.908  52.318  1.00  0.00    -0.004 A 
HETATM   11  C6  UNL     1      21.646   2.046  51.411  1.00  0.00     0.030 A 
HETATM   12  C7  UNL     1      20.586   1.149  51.315  1.00  0.00     0.013 A 
HETATM   13 BR1  UNL     1      19.165   1.354  50.084  1.00  0.00    -0.051 Br
HETATM   14  C8  UNL     1      20.549   0.054  52.145  1.00  0.00     0.041 A 
HETATM   15  C9  UNL     1      21.572  -0.119  53.050  1.00  0.00     0.045 A 
HETATM   16 BR2  UNL     1      21.513  -1.642  54.198  1.00  0.00    -0.048 Br
HETATM   17  C10 UNL     1      22.583   0.788  53.101  1.00  0.00     0.091 A 
BRANCH  17  18
HETATM   18  O1  UNL     1      23.558   0.534  54.032  1.00  0.00    -0.359 OA
HETATM   19  H10 UNL     1      23.267   0.221  54.950  1.00  0.00     0.217 HD
ENDBRANCH  17  18
ENDBRANCH   9  10
ENDBRANCH   1   9
BRANCH   4  20
HETATM   20  C12 UNL     1      27.434   0.423  53.327  1.00  0.00     0.036 A 
HETATM   21  C13 UNL     1      28.629   0.998  53.742  1.00  0.00     0.029 A 
HETATM   22  C14 UNL     1      29.793   0.233  53.832  1.00  0.00     0.002 A 
HETATM   23  C15 UNL     1      29.736  -1.118  53.498  1.00  0.00     0.000 A 
HETATM   24  C16 UNL     1      28.557  -1.707  53.083  1.00  0.00     0.002 A 
HETATM   25  C17 UNL     1      27.426  -0.922  53.006  1.00  0.00     0.029 A 
ENDBRANCH   4  20
TORSDOF 6
ENDMDL
MODEL 7
REMARK VINA RESULT:      -6.8      1.841      2.365
REMARK  6 active torsions:
REMARK  status: ('A' for Active; 'I' for Inactive)
REMARK    1  A    between atoms: C2_2  and  C3_3 
REMARK    2  A    between atoms: C3_3  and  N1_4 
REMARK    3  A    between atoms: N1_4  and  C4_5 
REMARK       I    between atoms: N1_4  and  C11_15 
REMARK    4  A    between atoms: C4_5  and  C5_6 
REMARK    5  A    between atoms: C10_13  and  O1_14 
REMARK       I    between atoms: C11_15  and  N2_17 
REMARK    6  A    between atoms: N2_17  and  C12_18 
ROOT
HETATM    1  N1  UNL     1      23.474   1.673  51.677  1.00  0.00    -0.326 N 
HETATM    2  C11 UNL     1      24.783   1.366  52.208  1.00  0.00     0.323 C 
HETATM    3  O2  UNL     1      24.640   0.993  53.407  1.00  0.00    -0.247 OA
HETATM    4  N2  UNL     1      26.090   1.406  51.658  1.00  0.00    -0.309 N 
HETATM    5  H11 UNL     1      26.041   1.724  50.668  1.00  0.00     0.170 HD
ENDROOT
BRANCH   1   6
HETATM    6  C3  UNL     1      22.486   1.425  52.706  1.00  0.00     0.154 C 
BRANCH   6   7
HETATM    7  C2  UNL     1      21.348   0.618  52.134  1.00  0.00    -0.017 C 
HETATM    8  C1  UNL     1      20.209   0.370  51.498  1.00  0.00     0.008 C 
ENDBRANCH   6   7
ENDBRANCH   1   6
BRANCH   1   9
HETATM    9  C4  UNL     1      23.350   2.133  50.329  1.00  0.00     0.169 C 
BRANCH   9  10
HETATM   10  C5  UNL     1      23.670   3.560  50.104  1.00  0.00    -0.004 A 
HETATM   11  C6  UNL     1      22.715   4.543  50.394  1.00  0.00     0.030 A 
HETATM   12  C7  UNL     1      22.925   5.907  50.211  1.00  0.00     0.013 A 
HETATM   13 BR1  UNL     1      21.622   7.218  50.609  1.00  0.00    -0.051 Br
HETATM   14  C8  UNL     1      24.131   6.345  49.716  1.00  0.00     0.041 A 
HETATM   15  C9  UNL     1      25.097   5.409  49.418  1.00  0.00     0.045 A 
HETATM   16 BR2  UNL     1      26.768   6.026  48.733  1.00  0.00    -0.048 Br
HETATM   17  C10 UNL     1      24.838   4.091  49.618  1.00  0.00     0.091 A 
BRANCH  17  18
HETATM   18  O1  UNL     1      25.859   3.233  49.294  1.00  0.00    -0.359 OA
HETATM   19  H10 UNL     1      26.793   3.471  49.602  1.00  0.00     0.217 HD
ENDBRANCH  17  18
ENDBRANCH   9  10
ENDBRANCH   1   9
BRANCH   4  20
HETATM   20  C12 UNL     1      27.157   1.022  52.511  1.00  0.00     0.036 A 
HETATM   21  C13 UNL     1      27.497  -0.307  52.734  1.00  0.00     0.029 A 
HETATM   22  C14 UNL     1      28.553  -0.639  53.582  1.00  0.00     0.002 A 
HETATM   23  C15 UNL     1      29.264   0.386  54.203  1.00  0.00     0.000 A 
HETATM   24  C16 UNL     1      28.941   1.713  53.994  1.00  0.00     0.002 A 
HETATM   25  C17 UNL     1      27.891   2.006  53.150  1.00  0.00     0.029 A 
ENDBRANCH   4  20
TORSDOF 6
ENDMDL
MODEL 8
REMARK VINA RESULT:      -6.8      1.012      2.168
REMARK  6 active torsions:
REMARK  status: ('A' for Active; 'I' for Inactive)
REMARK    1  A    between atoms: C2_2  and  C3_3 
REMARK    2  A    between atoms: C3_3  and  N1_4 
REMARK    3  A    between atoms: N1_4  and  C4_5 
REMARK       I    between atoms: N1_4  and  C11_15 
REMARK    4  A    between atoms: C4_5  and  C5_6 
REMARK    5  A    between atoms: C10_13  and  O1_14 
REMARK       I    between atoms: C11_15  and  N2_17 
REMARK    6  A    between atoms: N2_17  and  C12_18 
ROOT
HETATM    1  N1  UNL     1      24.396   3.353  51.312  1.00  0.00    -0.326 N 
HETATM    2  C11 UNL     1      25.452   2.639  51.995  1.00  0.00     0.323 C 
HETATM    3  O2  UNL     1      25.213   2.683  53.235  1.00  0.00    -0.247 OA
HETATM    4  N2  UNL     1      26.611   1.955  51.547  1.00  0.00    -0.309 N 
HETATM    5  H11 UNL     1      26.664   2.002  50.509  1.00  0.00     0.170 HD
ENDROOT
BRANCH   1   6
HETATM    6  C3  UNL     1      23.450   3.836  52.296  1.00  0.00     0.154 C 
BRANCH   6   7
HETATM    7  C2  UNL     1      22.047   3.709  51.758  1.00  0.00    -0.017 C 
HETATM    8  C1  UNL     1      20.970   4.005  51.039  1.00  0.00     0.008 C 
ENDBRANCH   6   7
ENDBRANCH   1   6
BRANCH   1   9
HETATM    9  C4  UNL     1      24.428   3.465  49.887  1.00  0.00     0.169 C 
BRANCH   9  10
HETATM   10  C5  UNL     1      25.105   4.668  49.352  1.00  0.00    -0.004 A 
HETATM   11  C6  UNL     1      26.480   4.634  49.086  1.00  0.00     0.030 A 
HETATM   12  C7  UNL     1      27.200   5.716  48.587  1.00  0.00     0.013 A 
HETATM   13 BR1  UNL     1      29.057   5.650  48.234  1.00  0.00    -0.051 Br
HETATM   14  C8  UNL     1      26.550   6.901  48.330  1.00  0.00     0.041 A 
HETATM   15  C9  UNL     1      25.198   6.974  48.578  1.00  0.00     0.045 A 
HETATM   16 BR2  UNL     1      24.304   8.622  48.218  1.00  0.00    -0.048 Br
HETATM   17  C10 UNL     1      24.544   5.887  49.065  1.00  0.00     0.091 A 
BRANCH  17  18
HETATM   18  O1  UNL     1      23.199   6.053  49.279  1.00  0.00    -0.359 OA
HETATM   19  H10 UNL     1      22.749   5.445  49.952  1.00  0.00     0.217 HD
ENDBRANCH  17  18
ENDBRANCH   9  10
ENDBRANCH   1   9
BRANCH   4  20
HETATM   20  C12 UNL     1      27.431   1.363  52.544  1.00  0.00     0.036 A 
HETATM   21  C13 UNL     1      28.317   2.101  53.319  1.00  0.00     0.029 A 
HETATM   22  C14 UNL     1      29.104   1.477  54.287  1.00  0.00     0.002 A 
HETATM   23  C15 UNL     1      28.987   0.101  54.464  1.00  0.00     0.000 A 
HETATM   24  C16 UNL     1      28.111  -0.650  53.702  1.00  0.00     0.002 A 
HETATM   25  C17 UNL     1      27.348  -0.001  52.755  1.00  0.00     0.029 A 
ENDBRANCH   4  20
TORSDOF 6
ENDMDL
MODEL 9
REMARK VINA RESULT:      -6.5      2.354      2.867
REMARK  6 active torsions:
REMARK  status: ('A' for Active; 'I' for Inactive)
REMARK    1  A    between atoms: C2_2  and  C3_3 
REMARK    2  A    between atoms: C3_3  and  N1_4 
REMARK    3  A    between atoms: N1_4  and  C4_5 
REMARK       I    between atoms: N1_4  and  C11_15 
REMARK    4  A    between atoms: C4_5  and  C5_6 
REMARK    5  A    between atoms: C10_13  and  O1_14 
REMARK       I    between atoms: C11_15  and  N2_17 
REMARK    6  A    between atoms: N2_17  and  C12_18 
ROOT
HETATM    1  N1  UNL     1      22.247   3.398  52.360  1.00  0.00    -0.326 N 
HETATM    2  C11 UNL     1      23.427   2.596  52.585  1.00  0.00     0.323 C 
HETATM    3  O2  UNL     1      23.085   1.379  52.550  1.00  0.00    -0.247 OA
HETATM    4  N2  UNL     1      24.791   2.914  52.816  1.00  0.00    -0.309 N 
HETATM    5  H11 UNL     1      24.912   3.948  52.808  1.00  0.00     0.170 HD
ENDROOT
BRANCH   1   6
HETATM    6  C3  UNL     1      21.116   2.516  52.162  1.00  0.00     0.154 C 
BRANCH   6   7
HETATM    7  C2  UNL     1      19.867   3.331  51.943  1.00  0.00    -0.017 C 
HETATM    8  C1  UNL     1      18.839   3.862  51.291  1.00  0.00     0.008 C 
ENDBRANCH   6   7
ENDBRANCH   1   6
BRANCH   1   9
HETATM    9  C4  UNL     1      22.352   4.824  52.358  1.00  0.00     0.169 C 
BRANCH   9  10
HETATM   10  C5  UNL     1      22.942   5.424  51.141  1.00  0.00    -0.004 A 
HETATM   11  C6  UNL     1      22.453   5.065  49.878  1.00  0.00     0.030 A 
HETATM   12  C7  UNL     1      22.947   5.573  48.681  1.00  0.00     0.013 A 
HETATM   13 BR1  UNL     1      22.272   5.075  46.986  1.00  0.00    -0.051 Br
HETATM   14  C8  UNL     1      23.978   6.484  48.707  1.00  0.00     0.041 A 
HETATM   15  C9  UNL     1      24.487   6.863  49.929  1.00  0.00     0.045 A 
HETATM   16 BR2  UNL     1      25.917   8.127  49.956  1.00  0.00    -0.048 Br
HETATM   17  C10 UNL     1      23.966   6.335  51.067  1.00  0.00     0.091 A 
BRANCH  17  18
HETATM   18  O1  UNL     1      24.535   6.773  52.236  1.00  0.00    -0.359 OA
HETATM   19  H10 UNL     1      24.304   6.279  53.089  1.00  0.00     0.217 HD
ENDBRANCH  17  18
ENDBRANCH   9  10
ENDBRANCH   1   9
BRANCH   4  20
HETATM   20  C12 UNL     1      25.682   1.824  52.998  1.00  0.00     0.036 A 
HETATM   21  C13 UNL     1      26.207   1.485  54.238  1.00  0.00     0.029 A 
HETATM   22  C14 UNL     1      27.081   0.406  54.370  1.00  0.00     0.002 A 
HETATM   23  C15 UNL     1      27.417  -0.329  53.235  1.00  0.00     0.000 A 
HETATM   24  C16 UNL     1      26.904  -0.007  51.993  1.00  0.00     0.002 A 
HETATM   25  C17 UNL     1      26.044   1.066  51.899  1.00  0.00     0.029 A 
ENDBRANCH   4  20
TORSDOF 6
ENDMDL
