MODEL 1
REMARK VINA RESULT:      -8.9      0.000      0.000
REMARK  2 active torsions:
REMARK  status: ('A' for Active; 'I' for Inactive)
REMARK    1  A    between atoms: C2_2  and  C3_3 
REMARK    2  A    between atoms: N1_9  and  C9_10 
ROOT
HETATM    1  C3  UNL     1      22.739   3.330  51.891  1.00  0.00     0.001 C 
HETATM    2  C4  UNL     1      23.526   3.598  50.653  1.00  0.00     0.051 A 
HETATM    3  C5  UNL     1      23.755   2.306  49.854  1.00  0.00     0.024 A 
HETATM    4  C6  UNL     1      24.525   3.259  50.162  1.00  0.00     0.035 A 
HETATM    5  C7  UNL     1      25.346   2.839  51.447  1.00  0.00     0.122 C 
HETATM    6  C8  UNL     1      26.462   1.956  51.018  1.00  0.00     0.300 C 
HETATM    7  N1  UNL     1      26.645   1.032  52.118  1.00  0.00     0.116 N 
HETATM    8  C12 UNL     1      25.487   1.091  52.963  1.00  0.00     0.394 C 
HETATM    9  N2  UNL     1      24.697   2.154  52.459  1.00  0.00    -0.381 N 
HETATM   10  C13 UNL     1      23.310   2.102  52.740  1.00  0.00     0.130 C 
HETATM   11  C14 UNL     1      24.812   4.686  49.896  1.00  0.00     0.107 C 
HETATM   12  C15 UNL     1      24.189   5.338  48.766  1.00  0.00     0.081 C 
HETATM   13  C16 UNL     1      25.153   6.395  48.372  1.00  0.00    -0.029 A 
HETATM   14  C17 UNL     1      25.041   7.395  47.426  1.00  0.00     0.011 A 
HETATM   15  C18 UNL     1      26.079   8.278  47.226  1.00  0.00     0.023 A 
HETATM   16  C19 UNL     1      27.227   8.152  47.979  1.00  0.00     0.046 A 
HETATM   17  C20 UNL     1      28.351   9.037  47.828  1.00  0.00     0.099 C 
HETATM   18  N3  UNL     1      29.278   9.742  47.709  1.00  0.00    -0.191 NA
HETATM   19  C21 UNL     1      27.286   7.138  48.907  1.00  0.00     0.052 A 
HETATM   20  C22 UNL     1      26.267   6.215  49.154  1.00  0.00     0.036 A 
HETATM   21  N4  UNL     1      26.111   5.115  50.042  1.00  0.00    -0.372 N 
HETATM   22  C23 UNL     1      23.957   4.961  51.240  1.00  0.00     0.167 C 
HETATM   23  O2  UNL     1      23.800   5.768  52.115  1.00  0.00    -0.294 OA
HETATM   24  H24 UNL     1      26.930   4.824  50.620  1.00  0.00     0.161 HD
ENDROOT
BRANCH   1  25
HETATM   25  C2  UNL     1      21.560   4.119  52.447  1.00  0.00     0.009 C 
HETATM   26  C1  UNL     1      20.337   3.972  51.613  1.00  0.00     0.006 C 
ENDBRANCH   1  25
BRANCH   7  27
HETATM   27  C9  UNL     1      27.849   1.174  52.848  1.00  0.00     0.272 C 
HETATM   28  C10 UNL     1      28.134   2.496  53.480  1.00  0.00     0.205 C 
HETATM   29  O1  UNL     1      28.730   1.829  54.547  1.00  0.00    -0.387 OA
HETATM   30  C11 UNL     1      27.934   0.700  54.252  1.00  0.00     0.205 C 
ENDBRANCH   7  27
TORSDOF 2
ENDMDL
MODEL 2
REMARK VINA RESULT:      -8.9      2.492      6.661
REMARK  2 active torsions:
REMARK  status: ('A' for Active; 'I' for Inactive)
REMARK    1  A    between atoms: C2_2  and  C3_3 
REMARK    2  A    between atoms: N1_9  and  C9_10 
ROOT
HETATM    1  C3  UNL     1      21.532   4.182  49.709  1.00  0.00     0.001 C 
HETATM    2  C4  UNL     1      22.432   3.864  50.855  1.00  0.00     0.051 A 
HETATM    3  C5  UNL     1      22.759   5.126  51.667  1.00  0.00     0.024 A 
HETATM    4  C6  UNL     1      23.480   4.174  51.255  1.00  0.00     0.035 A 
HETATM    5  C7  UNL     1      24.178   4.625  49.910  1.00  0.00     0.122 C 
HETATM    6  C8  UNL     1      25.345   5.479  50.254  1.00  0.00     0.300 C 
HETATM    7  N1  UNL     1      25.434   6.434  49.170  1.00  0.00     0.116 N 
HETATM    8  C12 UNL     1      24.198   6.418  48.441  1.00  0.00     0.394 C 
HETATM    9  N2  UNL     1      23.444   5.350  48.987  1.00  0.00    -0.381 N 
HETATM   10  C13 UNL     1      22.037   5.429  48.846  1.00  0.00     0.130 C 
HETATM   11  C14 UNL     1      23.768   2.735  51.448  1.00  0.00     0.107 C 
HETATM   12  C15 UNL     1      23.248   2.056  52.613  1.00  0.00     0.081 C 
HETATM   13  C16 UNL     1      24.229   0.974  52.878  1.00  0.00    -0.029 A 
HETATM   14  C17 UNL     1      24.193  -0.054  53.800  1.00  0.00     0.011 A 
HETATM   15  C18 UNL     1      25.232  -0.956  53.870  1.00  0.00     0.023 A 
HETATM   16  C19 UNL     1      26.302  -0.822  53.012  1.00  0.00     0.046 A 
HETATM   17  C20 UNL     1      27.422  -1.726  53.025  1.00  0.00     0.099 C 
HETATM   18  N3  UNL     1      28.344  -2.446  53.030  1.00  0.00    -0.191 NA
HETATM   19  C21 UNL     1      26.287   0.221  52.114  1.00  0.00     0.052 A 
HETATM   20  C22 UNL     1      25.264   1.164  51.997  1.00  0.00     0.036 A 
HETATM   21  N4  UNL     1      25.040   2.294  51.162  1.00  0.00    -0.372 N 
HETATM   22  C23 UNL     1      22.782   2.515  50.187  1.00  0.00     0.167 C 
HETATM   23  O2  UNL     1      22.526   1.739  49.308  1.00  0.00    -0.294 OA
HETATM   24  H24 UNL     1      25.802   2.594  50.516  1.00  0.00     0.161 HD
ENDROOT
BRANCH   1  25
HETATM   25  C2  UNL     1      20.292   3.427  49.248  1.00  0.00     0.009 C 
HETATM   26  C1  UNL     1      19.182   3.504  50.235  1.00  0.00     0.006 C 
ENDBRANCH   1  25
BRANCH   7  27
HETATM   27  C9  UNL     1      26.559   6.301  48.321  1.00  0.00     0.272 C 
HETATM   28  C10 UNL     1      27.728   7.196  48.563  1.00  0.00     0.205 C 
HETATM   29  O1  UNL     1      28.572   6.151  48.192  1.00  0.00    -0.387 OA
HETATM   30  C11 UNL     1      27.564   5.238  48.572  1.00  0.00     0.205 C 
ENDBRANCH   7  27
TORSDOF 2
ENDMDL
MODEL 3
REMARK VINA RESULT:      -8.9      1.658      1.853
REMARK  2 active torsions:
REMARK  status: ('A' for Active; 'I' for Inactive)
REMARK    1  A    between atoms: C2_2  and  C3_3 
REMARK    2  A    between atoms: N1_9  and  C9_10 
ROOT
HETATM    1  C3  UNL     1      21.489   2.247  52.110  1.00  0.00     0.001 C 
HETATM    2  C4  UNL     1      22.372   2.817  51.051  1.00  0.00     0.051 A 
HETATM    3  C5  UNL     1      22.914   1.713  50.132  1.00  0.00     0.024 A 
HETATM    4  C6  UNL     1      23.469   2.708  50.677  1.00  0.00     0.035 A 
HETATM    5  C7  UNL     1      24.177   2.219  52.003  1.00  0.00     0.122 C 
HETATM    6  C8  UNL     1      25.470   1.586  51.634  1.00  0.00     0.300 C 
HETATM    7  N1  UNL     1      25.662   0.540  52.617  1.00  0.00     0.116 N 
HETATM    8  C12 UNL     1      24.412   0.296  53.278  1.00  0.00     0.394 C 
HETATM    9  N2  UNL     1      23.527   1.297  52.806  1.00  0.00    -0.381 N 
HETATM   10  C13 UNL     1      22.143   1.000  52.864  1.00  0.00     0.130 C 
HETATM   11  C14 UNL     1      23.545   4.186  50.650  1.00  0.00     0.107 C 
HETATM   12  C15 UNL     1      22.972   4.907  49.535  1.00  0.00     0.081 C 
HETATM   13  C16 UNL     1      23.789   6.143  49.435  1.00  0.00    -0.029 A 
HETATM   14  C17 UNL     1      23.633   7.249  48.624  1.00  0.00     0.011 A 
HETATM   15  C18 UNL     1      24.526   8.295  48.703  1.00  0.00     0.023 A 
HETATM   16  C19 UNL     1      25.573   8.223  49.597  1.00  0.00     0.046 A 
HETATM   17  C20 UNL     1      26.544   9.276  49.737  1.00  0.00     0.099 C 
HETATM   18  N3  UNL     1      27.347  10.119  49.854  1.00  0.00    -0.191 NA
HETATM   19  C21 UNL     1      25.682   7.097  50.381  1.00  0.00     0.052 A 
HETATM   20  C22 UNL     1      24.808   6.008  50.346  1.00  0.00     0.036 A 
HETATM   21  N4  UNL     1      24.725   4.773  51.045  1.00  0.00    -0.372 N 
HETATM   22  C23 UNL     1      22.491   4.121  51.873  1.00  0.00     0.167 C 
HETATM   23  O2  UNL     1      22.090   4.750  52.813  1.00  0.00    -0.294 OA
HETATM   24  H24 UNL     1      25.500   4.518  51.697  1.00  0.00     0.161 HD
ENDROOT
BRANCH   1  25
HETATM   25  C2  UNL     1      20.134   2.760  52.580  1.00  0.00     0.009 C 
HETATM   26  C1  UNL     1      19.095   2.671  51.520  1.00  0.00     0.006 C 
ENDBRANCH   1  25
BRANCH   7  27
HETATM   27  C9  UNL     1      26.722   0.741  53.533  1.00  0.00     0.272 C 
HETATM   28  C10 UNL     1      26.539   0.256  54.933  1.00  0.00     0.205 C 
HETATM   29  O1  UNL     1      27.893  -0.070  54.969  1.00  0.00    -0.387 OA
HETATM   30  C11 UNL     1      27.874  -0.195  53.563  1.00  0.00     0.205 C 
ENDBRANCH   7  27
TORSDOF 2
ENDMDL
MODEL 4
REMARK VINA RESULT:      -8.4      2.821      6.750
REMARK  2 active torsions:
REMARK  status: ('A' for Active; 'I' for Inactive)
REMARK    1  A    between atoms: C2_2  and  C3_3 
REMARK    2  A    between atoms: N1_9  and  C9_10 
ROOT
HETATM    1  C3  UNL     1      20.723   3.405  49.885  1.00  0.00     0.001 C 
HETATM    2  C4  UNL     1      21.522   3.140  51.117  1.00  0.00     0.051 A 
HETATM    3  C5  UNL     1      21.193   4.160  52.217  1.00  0.00     0.024 A 
HETATM    4  C6  UNL     1      22.289   3.693  51.795  1.00  0.00     0.035 A 
HETATM    5  C7  UNL     1      22.901   4.719  50.759  1.00  0.00     0.122 C 
HETATM    6  C8  UNL     1      23.557   5.814  51.521  1.00  0.00     0.300 C 
HETATM    7  N1  UNL     1      23.379   6.992  50.699  1.00  0.00     0.116 N 
HETATM    8  C12 UNL     1      22.362   6.721  49.723  1.00  0.00     0.394 C 
HETATM    9  N2  UNL     1      22.055   5.345  49.860  1.00  0.00    -0.381 N 
HETATM   10  C13 UNL     1      20.770   4.934  49.426  1.00  0.00     0.130 C 
HETATM   11  C14 UNL     1      23.119   2.469  51.755  1.00  0.00     0.107 C 
HETATM   12  C15 UNL     1      22.785   1.354  52.613  1.00  0.00     0.081 C 
HETATM   13  C16 UNL     1      24.084   0.683  52.869  1.00  0.00    -0.029 A 
HETATM   14  C17 UNL     1      24.361  -0.495  53.534  1.00  0.00     0.011 A 
HETATM   15  C18 UNL     1      25.662  -0.933  53.653  1.00  0.00     0.023 A 
HETATM   16  C19 UNL     1      26.679  -0.183  53.101  1.00  0.00     0.046 A 
HETATM   17  C20 UNL     1      28.061  -0.577  53.183  1.00  0.00     0.099 C 
HETATM   18  N3  UNL     1      29.190  -0.878  53.251  1.00  0.00    -0.191 NA
HETATM   19  C21 UNL     1      26.347   0.983  52.451  1.00  0.00     0.052 A 
HETATM   20  C22 UNL     1      25.049   1.475  52.299  1.00  0.00     0.036 A 
HETATM   21  N4  UNL     1      24.484   2.624  51.680  1.00  0.00    -0.372 N 
HETATM   22  C23 UNL     1      22.479   2.254  50.287  1.00  0.00     0.167 C 
HETATM   23  O2  UNL     1      22.679   1.711  49.235  1.00  0.00    -0.294 OA
HETATM   24  H24 UNL     1      25.130   3.348  51.294  1.00  0.00     0.161 HD
ENDROOT
BRANCH   1  25
HETATM   25  C2  UNL     1      19.974   2.402  49.016  1.00  0.00     0.009 C 
HETATM   26  C1  UNL     1      18.871   1.727  49.751  1.00  0.00     0.006 C 
ENDBRANCH   1  25
BRANCH   7  27
HETATM   27  C9  UNL     1      24.554   7.521  50.115  1.00  0.00     0.272 C 
HETATM   28  C10 UNL     1      25.706   6.596  49.899  1.00  0.00     0.205 C 
HETATM   29  O1  UNL     1      26.006   7.285  48.726  1.00  0.00    -0.387 OA
HETATM   30  C11 UNL     1      24.653   7.680  48.642  1.00  0.00     0.205 C 
ENDBRANCH   7  27
TORSDOF 2
ENDMDL
MODEL 5
REMARK VINA RESULT:      -8.2      3.946      6.917
REMARK  2 active torsions:
REMARK  status: ('A' for Active; 'I' for Inactive)
REMARK    1  A    between atoms: C2_2  and  C3_3 
REMARK    2  A    between atoms: N1_9  and  C9_10 
ROOT
HETATM    1  C3  UNL     1      20.573   4.675  50.333  1.00  0.00     0.001 C 
HETATM    2  C4  UNL     1      21.575   3.580  50.181  1.00  0.00     0.051 A 
HETATM    3  C5  UNL     1      21.146   2.586  49.093  1.00  0.00     0.024 A 
HETATM    4  C6  UNL     1      21.618   2.419  50.253  1.00  0.00     0.035 A 
HETATM    5  C7  UNL     1      20.418   2.149  51.245  1.00  0.00     0.122 C 
HETATM    6  C8  UNL     1      20.012   0.725  51.108  1.00  0.00     0.300 C 
HETATM    7  N1  UNL     1      18.584   0.724  51.345  1.00  0.00     0.116 N 
HETATM    8  C12 UNL     1      18.100   2.071  51.239  1.00  0.00     0.394 C 
HETATM    9  N2  UNL     1      19.253   2.883  51.100  1.00  0.00    -0.381 N 
HETATM   10  C13 UNL     1      19.075   4.136  50.463  1.00  0.00     0.130 C 
HETATM   11  C14 UNL     1      22.845   2.572  51.067  1.00  0.00     0.107 C 
HETATM   12  C15 UNL     1      24.107   2.829  50.410  1.00  0.00     0.081 C 
HETATM   13  C16 UNL     1      25.122   2.234  51.316  1.00  0.00    -0.029 A 
HETATM   14  C17 UNL     1      26.500   2.270  51.253  1.00  0.00     0.011 A 
HETATM   15  C18 UNL     1      27.254   1.637  52.217  1.00  0.00     0.023 A 
HETATM   16  C19 UNL     1      26.616   0.969  53.241  1.00  0.00     0.046 A 
HETATM   17  C20 UNL     1      27.334   0.286  54.284  1.00  0.00     0.099 C 
HETATM   18  N3  UNL     1      27.905  -0.284  55.133  1.00  0.00    -0.191 NA
HETATM   19  C21 UNL     1      25.240   0.963  53.254  1.00  0.00     0.052 A 
HETATM   20  C22 UNL     1      24.426   1.587  52.307  1.00  0.00     0.036 A 
HETATM   21  N4  UNL     1      23.020   1.712  52.126  1.00  0.00    -0.372 N 
HETATM   22  C23 UNL     1      22.177   3.962  51.554  1.00  0.00     0.167 C 
HETATM   23  O2  UNL     1      22.194   4.758  52.451  1.00  0.00    -0.294 OA
HETATM   24  H24 UNL     1      22.388   1.182  52.765  1.00  0.00     0.161 HD
ENDROOT
BRANCH   1  25
HETATM   25  C2  UNL     1      20.826   6.172  50.458  1.00  0.00     0.009 C 
HETATM   26  C1  UNL     1      21.481   6.739  49.248  1.00  0.00     0.006 C 
ENDBRANCH   1  25
BRANCH   7  27
HETATM   27  C9  UNL     1      18.158   0.094  52.539  1.00  0.00     0.272 C 
HETATM   28  C10 UNL     1      17.290  -1.114  52.421  1.00  0.00     0.205 C 
HETATM   29  O1  UNL     1      17.924  -1.647  53.542  1.00  0.00    -0.387 OA
HETATM   30  C11 UNL     1      19.054  -0.854  53.247  1.00  0.00     0.205 C 
ENDBRANCH   7  27
TORSDOF 2
ENDMDL
MODEL 6
REMARK VINA RESULT:      -8.0      3.795      8.509
REMARK  2 active torsions:
REMARK  status: ('A' for Active; 'I' for Inactive)
REMARK    1  A    between atoms: C2_2  and  C3_3 
REMARK    2  A    between atoms: N1_9  and  C9_10 
ROOT
HETATM    1  C3  UNL     1      23.761   5.454  50.189  1.00  0.00     0.001 C 
HETATM    2  C4  UNL     1      23.602   3.975  50.306  1.00  0.00     0.051 A 
HETATM    3  C5  UNL     1      24.435   3.245  49.243  1.00  0.00     0.024 A 
HETATM    4  C6  UNL     1      23.251   3.080  49.650  1.00  0.00     0.035 A 
HETATM    5  C7  UNL     1      22.274   3.821  48.652  1.00  0.00     0.122 C 
HETATM    6  C8  UNL     1      22.080   2.955  47.460  1.00  0.00     0.300 C 
HETATM    7  N1  UNL     1      21.910   3.877  46.358  1.00  0.00     0.116 N 
HETATM    8  C12 UNL     1      22.358   5.176  46.773  1.00  0.00     0.394 C 
HETATM    9  N2  UNL     1      22.640   5.061  48.156  1.00  0.00    -0.381 N 
HETATM   10  C13 UNL     1      23.568   5.986  48.695  1.00  0.00     0.130 C 
HETATM   11  C14 UNL     1      22.447   2.623  50.806  1.00  0.00     0.107 C 
HETATM   12  C15 UNL     1      23.093   1.906  51.882  1.00  0.00     0.081 C 
HETATM   13  C16 UNL     1      22.028   1.028  52.431  1.00  0.00    -0.029 A 
HETATM   14  C17 UNL     1      22.040   0.201  53.536  1.00  0.00     0.011 A 
HETATM   15  C18 UNL     1      20.921  -0.534  53.862  1.00  0.00     0.023 A 
HETATM   16  C19 UNL     1      19.793  -0.432  53.074  1.00  0.00     0.046 A 
HETATM   17  C20 UNL     1      18.587  -1.166  53.352  1.00  0.00     0.099 C 
HETATM   18  N3  UNL     1      17.603  -1.764  53.558  1.00  0.00    -0.191 NA
HETATM   19  C21 UNL     1      19.837   0.407  51.984  1.00  0.00     0.052 A 
HETATM   20  C22 UNL     1      20.941   1.175  51.606  1.00  0.00     0.036 A 
HETATM   21  N4  UNL     1      21.205   2.089  50.549  1.00  0.00    -0.372 N 
HETATM   22  C23 UNL     1      22.338   4.194  51.169  1.00  0.00     0.167 C 
HETATM   23  O2  UNL     1      21.659   4.985  51.764  1.00  0.00    -0.294 OA
HETATM   24  H24 UNL     1      20.484   2.209  49.805  1.00  0.00     0.161 HD
ENDROOT
BRANCH   1  25
HETATM   25  C2  UNL     1      23.990   6.466  51.303  1.00  0.00     0.009 C 
HETATM   26  C1  UNL     1      23.860   7.871  50.829  1.00  0.00     0.006 C 
ENDBRANCH   1  25
BRANCH   7  27
HETATM   27  C9  UNL     1      20.618   3.916  45.779  1.00  0.00     0.272 C 
HETATM   28  C10 UNL     1      19.483   3.344  46.563  1.00  0.00     0.205 C 
HETATM   29  O1  UNL     1      18.659   4.340  46.045  1.00  0.00    -0.387 OA
HETATM   30  C11 UNL     1      19.799   5.151  45.858  1.00  0.00     0.205 C 
ENDBRANCH   7  27
TORSDOF 2
ENDMDL
MODEL 7
REMARK VINA RESULT:      -7.9      4.054      9.808
REMARK  2 active torsions:
REMARK  status: ('A' for Active; 'I' for Inactive)
REMARK    1  A    between atoms: C2_2  and  C3_3 
REMARK    2  A    between atoms: N1_9  and  C9_10 
ROOT
HETATM    1  C3  UNL     1      32.789   8.401  47.611  1.00  0.00     0.001 C 
HETATM    2  C4  UNL     1      31.481   7.828  47.180  1.00  0.00     0.051 A 
HETATM    3  C5  UNL     1      31.296   7.956  45.661  1.00  0.00     0.024 A 
HETATM    4  C6  UNL     1      30.515   8.173  46.630  1.00  0.00     0.035 A 
HETATM    5  C7  UNL     1      30.540   9.720  46.952  1.00  0.00     0.122 C 
HETATM    6  C8  UNL     1      29.662  10.413  45.973  1.00  0.00     0.300 C 
HETATM    7  N1  UNL     1      30.282  11.706  45.772  1.00  0.00     0.116 N 
HETATM    8  C12 UNL     1      31.626  11.652  46.272  1.00  0.00     0.394 C 
HETATM    9  N2  UNL     1      31.749  10.393  46.909  1.00  0.00    -0.381 N 
HETATM   10  C13 UNL     1      33.057   9.860  47.017  1.00  0.00     0.130 C 
HETATM   11  C14 UNL     1      29.738   7.507  47.699  1.00  0.00     0.107 C 
HETATM   12  C15 UNL     1      29.552   6.073  47.655  1.00  0.00     0.081 C 
HETATM   13  C16 UNL     1      28.254   5.849  48.341  1.00  0.00    -0.029 A 
HETATM   14  C17 UNL     1      27.623   4.671  48.687  1.00  0.00     0.011 A 
HETATM   15  C18 UNL     1      26.404   4.701  49.328  1.00  0.00     0.023 A 
HETATM   16  C19 UNL     1      25.824   5.919  49.617  1.00  0.00     0.046 A 
HETATM   17  C20 UNL     1      24.554   6.030  50.285  1.00  0.00     0.099 C 
HETATM   18  N3  UNL     1      23.517   6.137  50.817  1.00  0.00    -0.191 NA
HETATM   19  C21 UNL     1      26.496   7.062  49.248  1.00  0.00     0.052 A 
HETATM   20  C22 UNL     1      27.732   7.092  48.599  1.00  0.00     0.036 A 
HETATM   21  N4  UNL     1      28.591   8.127  48.137  1.00  0.00    -0.372 N 
HETATM   22  C23 UNL     1      30.994   7.877  48.647  1.00  0.00     0.167 C 
HETATM   23  O2  UNL     1      31.295   8.057  49.794  1.00  0.00    -0.294 OA
HETATM   24  H24 UNL     1      28.254   9.113  48.193  1.00  0.00     0.161 HD
ENDROOT
BRANCH   1  25
HETATM   25  C2  UNL     1      33.805   7.806  48.577  1.00  0.00     0.009 C 
HETATM   26  C1  UNL     1      34.422   6.558  48.054  1.00  0.00     0.006 C 
ENDBRANCH   1  25
BRANCH   7  27
HETATM   27  C9  UNL     1      29.567  12.819  46.275  1.00  0.00     0.272 C 
HETATM   28  C10 UNL     1      28.129  12.626  46.627  1.00  0.00     0.205 C 
HETATM   29  O1  UNL     1      28.296  13.514  47.687  1.00  0.00    -0.387 OA
HETATM   30  C11 UNL     1      29.670  13.189  47.709  1.00  0.00     0.205 C 
ENDBRANCH   7  27
TORSDOF 2
ENDMDL
MODEL 8
REMARK VINA RESULT:      -7.9      4.206      8.501
REMARK  2 active torsions:
REMARK  status: ('A' for Active; 'I' for Inactive)
REMARK    1  A    between atoms: C2_2  and  C3_3 
REMARK    2  A    between atoms: N1_9  and  C9_10 
ROOT
HETATM    1  C3  UNL     1      22.306   0.208  52.143  1.00  0.00     0.001 C 
HETATM    2  C4  UNL     1      21.172   0.630  51.271  1.00  0.00     0.051 A 
HETATM    3  C5  UNL     1      21.652   0.917  49.841  1.00  0.00     0.024 A 
HETATM    4  C6  UNL     1      20.868   1.540  50.612  1.00  0.00     0.035 A 
HETATM    5  C7  UNL     1      21.683   2.693  51.323  1.00  0.00     0.122 C 
HETATM    6  C8  UNL     1      21.801   3.832  50.376  1.00  0.00     0.300 C 
HETATM    7  N1  UNL     1      23.084   4.431  50.678  1.00  0.00     0.116 N 
HETATM    8  C12 UNL     1      23.851   3.504  51.460  1.00  0.00     0.394 C 
HETATM    9  N2  UNL     1      22.972   2.432  51.755  1.00  0.00    -0.381 N 
HETATM   10  C13 UNL     1      23.571   1.179  52.036  1.00  0.00     0.130 C 
HETATM   11  C14 UNL     1      19.532   1.480  51.246  1.00  0.00     0.107 C 
HETATM   12  C15 UNL     1      18.569   0.505  50.784  1.00  0.00     0.081 C 
HETATM   13  C16 UNL     1      17.251   1.136  51.048  1.00  0.00    -0.029 A 
HETATM   14  C17 UNL     1      15.977   0.624  50.909  1.00  0.00     0.011 A 
HETATM   15  C18 UNL     1      14.882   1.401  51.217  1.00  0.00     0.023 A 
HETATM   16  C19 UNL     1      15.074   2.691  51.664  1.00  0.00     0.046 A 
HETATM   17  C20 UNL     1      13.981   3.562  52.006  1.00  0.00     0.099 C 
HETATM   18  N3  UNL     1      13.102   4.285  52.278  1.00  0.00    -0.191 NA
HETATM   19  C21 UNL     1      16.366   3.151  51.783  1.00  0.00     0.052 A 
HETATM   20  C22 UNL     1      17.512   2.410  51.487  1.00  0.00     0.036 A 
HETATM   21  N4  UNL     1      18.909   2.671  51.536  1.00  0.00    -0.372 N 
HETATM   22  C23 UNL     1      20.326   0.912  52.534  1.00  0.00     0.167 C 
HETATM   23  O2  UNL     1      20.243   0.803  53.726  1.00  0.00    -0.294 OA
HETATM   24  H24 UNL     1      19.225   3.639  51.765  1.00  0.00     0.161 HD
ENDROOT
BRANCH   1  25
HETATM   25  C2  UNL     1      22.350  -0.945  53.138  1.00  0.00     0.009 C 
HETATM   26  C1  UNL     1      23.469  -0.813  54.109  1.00  0.00     0.006 C 
ENDBRANCH   1  25
BRANCH   7  27
HETATM   27  C9  UNL     1      23.041   5.719  51.265  1.00  0.00     0.272 C 
HETATM   28  C10 UNL     1      24.121   6.686  50.911  1.00  0.00     0.205 C 
HETATM   29  O1  UNL     1      23.184   7.715  50.974  1.00  0.00    -0.387 OA
HETATM   30  C11 UNL     1      22.170   6.775  50.690  1.00  0.00     0.205 C 
ENDBRANCH   7  27
TORSDOF 2
ENDMDL
MODEL 9
REMARK VINA RESULT:      -7.4      8.876     12.424
REMARK  2 active torsions:
REMARK  status: ('A' for Active; 'I' for Inactive)
REMARK    1  A    between atoms: C2_2  and  C3_3 
REMARK    2  A    between atoms: N1_9  and  C9_10 
ROOT
HETATM    1  C3  UNL     1      13.123  -0.170  51.549  1.00  0.00     0.001 C 
HETATM    2  C4  UNL     1      14.472  -0.742  51.267  1.00  0.00     0.051 A 
HETATM    3  C5  UNL     1      14.387  -1.873  50.233  1.00  0.00     0.024 A 
HETATM    4  C6  UNL     1      15.013  -1.771  51.325  1.00  0.00     0.035 A 
HETATM    5  C7  UNL     1      14.163  -2.479  52.454  1.00  0.00     0.122 C 
HETATM    6  C8  UNL     1      14.391  -3.945  52.358  1.00  0.00     0.300 C 
HETATM    7  N1  UNL     1      13.137  -4.540  52.768  1.00  0.00     0.116 N 
HETATM    8  C12 UNL     1      12.116  -3.531  52.731  1.00  0.00     0.394 C 
HETATM    9  N2  UNL     1      12.789  -2.315  52.459  1.00  0.00    -0.381 N 
HETATM   10  C13 UNL     1      12.023  -1.286  51.856  1.00  0.00     0.130 C 
HETATM   11  C14 UNL     1      16.141  -1.075  51.984  1.00  0.00     0.107 C 
HETATM   12  C15 UNL     1      17.090  -0.339  51.180  1.00  0.00     0.081 C 
HETATM   13  C16 UNL     1      18.357  -0.406  51.951  1.00  0.00    -0.029 A 
HETATM   14  C17 UNL     1      19.572   0.209  51.720  1.00  0.00     0.011 A 
HETATM   15  C18 UNL     1      20.628  -0.001  52.580  1.00  0.00     0.023 A 
HETATM   16  C19 UNL     1      20.456  -0.829  53.670  1.00  0.00     0.046 A 
HETATM   17  C20 UNL     1      21.510  -1.095  54.612  1.00  0.00     0.099 C 
HETATM   18  N3  UNL     1      22.361  -1.329  55.381  1.00  0.00    -0.191 NA
HETATM   19  C21 UNL     1      19.225  -1.416  53.851  1.00  0.00     0.052 A 
HETATM   20  C22 UNL     1      18.121  -1.240  53.015  1.00  0.00     0.036 A 
HETATM   21  N4  UNL     1      16.786  -1.731  53.008  1.00  0.00    -0.372 N 
HETATM   22  C23 UNL     1      15.005  -0.079  52.559  1.00  0.00     0.167 C 
HETATM   23  O2  UNL     1      14.783   0.689  53.453  1.00  0.00    -0.294 OA
HETATM   24  H24 UNL     1      16.517  -2.449  53.716  1.00  0.00     0.161 HD
ENDROOT
BRANCH   1  25
HETATM   25  C2  UNL     1      12.727   1.297  51.652  1.00  0.00     0.009 C 
HETATM   26  C1  UNL     1      11.520   1.501  52.498  1.00  0.00     0.006 C 
ENDBRANCH   1  25
BRANCH   7  27
HETATM   27  C9  UNL     1      13.158  -5.236  54.001  1.00  0.00     0.272 C 
HETATM   28  C10 UNL     1      14.429  -5.235  54.783  1.00  0.00     0.205 C 
HETATM   29  O1  UNL     1      13.677  -5.198  55.955  1.00  0.00    -0.387 OA
HETATM   30  C11 UNL     1      12.624  -4.599  55.230  1.00  0.00     0.205 C 
ENDBRANCH   7  27
TORSDOF 2
ENDMDL
