MODEL 1
REMARK VINA RESULT:      -5.6      0.000      0.000
REMARK  10 active torsions:
REMARK  status: ('A' for Active; 'I' for Inactive)
REMARK    1  A    between atoms: O1_2  and  C2_3 
REMARK    2  A    between atoms: C6_8  and  C7_9 
REMARK    3  A    between atoms: C7_9  and  C8_10 
REMARK    4  A    between atoms: C8_10  and  C9_11 
REMARK    5  A    between atoms: C9_11  and  C10_12 
REMARK    6  A    between atoms: C10_12  and  C11_13 
REMARK    7  A    between atoms: C11_13  and  C12_14 
REMARK    8  A    between atoms: C12_14  and  O2_15 
REMARK    9  A    between atoms: O2_15  and  C13_16 
REMARK   10  A    between atoms: C14_19  and  O4_20 
ROOT
HETATM    1  C2  UNL     1      25.083  -0.342  54.315  1.00  0.00     0.102 C 
HETATM    2  C3  UNL     1      23.994  -0.039  53.603  1.00  0.00     0.063 C 
HETATM    3  C4  UNL     1      23.793   0.894  52.493  1.00  0.00     0.030 C 
HETATM    4  C5  UNL     1      22.554   0.707  51.701  1.00  0.00     0.070 C 
HETATM    5  N1  UNL     1      24.647   1.826  52.219  1.00  0.00    -0.263 NA
HETATM    6  C6  UNL     1      25.890   2.205  52.817  1.00  0.00     0.247 C 
HETATM    7  O3  UNL     1      26.199   1.653  54.021  1.00  0.00    -0.329 OA
HETATM    8  C14 UNL     1      26.420   0.306  54.050  1.00  0.00     0.319 C 
ENDROOT
BRANCH   6   9
HETATM    9  C7  UNL     1      26.967   2.090  51.757  1.00  0.00     0.056 C 
BRANCH   9  10
HETATM   10  C8  UNL     1      26.270   2.427  50.438  1.00  0.00     0.004 C 
BRANCH  10  11
HETATM   11  C9  UNL     1      26.757   3.710  49.854  1.00  0.00     0.000 C 
BRANCH  11  12
HETATM   12  C10 UNL     1      25.645   4.597  49.347  1.00  0.00     0.002 C 
BRANCH  12  13
HETATM   13  C11 UNL     1      24.297   3.952  49.416  1.00  0.00     0.026 C 
BRANCH  13  14
HETATM   14  C12 UNL     1      23.364   4.861  50.184  1.00  0.00     0.170 C 
BRANCH  14  15
HETATM   15  O2  UNL     1      23.932   5.127  51.436  1.00  0.00    -0.362 OA
BRANCH  15  16
HETATM   16  C13 UNL     1      23.004   4.909  52.460  1.00  0.00     0.391 C 
HETATM   17  F1  UNL     1      22.109   3.958  52.017  1.00  0.00    -0.227 F 
ENDBRANCH  15  16
ENDBRANCH  14  15
ENDBRANCH  13  14
ENDBRANCH  12  13
ENDBRANCH  11  12
ENDBRANCH  10  11
ENDBRANCH   9  10
ENDBRANCH   6   9
BRANCH   8  18
HETATM   18  O4  UNL     1      27.352  -0.093  54.998  1.00  0.00    -0.360 OA
HETATM   19  C15 UNL     1      28.628   0.078  54.498  1.00  0.00     0.205 C 
ENDBRANCH   8  18
BRANCH   1  20
HETATM   20  O1  UNL     1      24.824  -1.296  55.291  1.00  0.00    -0.355 OA
HETATM   21  C1  UNL     1      23.493  -1.552  55.706  1.00  0.00     0.209 C 
ENDBRANCH   1  20
TORSDOF 10
ENDMDL
MODEL 2
REMARK VINA RESULT:      -5.6      2.585      4.897
REMARK  10 active torsions:
REMARK  status: ('A' for Active; 'I' for Inactive)
REMARK    1  A    between atoms: O1_2  and  C2_3 
REMARK    2  A    between atoms: C6_8  and  C7_9 
REMARK    3  A    between atoms: C7_9  and  C8_10 
REMARK    4  A    between atoms: C8_10  and  C9_11 
REMARK    5  A    between atoms: C9_11  and  C10_12 
REMARK    6  A    between atoms: C10_12  and  C11_13 
REMARK    7  A    between atoms: C11_13  and  C12_14 
REMARK    8  A    between atoms: C12_14  and  O2_15 
REMARK    9  A    between atoms: O2_15  and  C13_16 
REMARK   10  A    between atoms: C14_19  and  O4_20 
ROOT
HETATM    1  C2  UNL     1      26.588   1.018  53.098  1.00  0.00     0.102 C 
HETATM    2  C3  UNL     1      25.675   1.948  52.804  1.00  0.00     0.063 C 
HETATM    3  C4  UNL     1      24.222   1.967  52.980  1.00  0.00     0.030 C 
HETATM    4  C5  UNL     1      23.572   3.296  52.887  1.00  0.00     0.070 C 
HETATM    5  N1  UNL     1      23.546   0.888  53.204  1.00  0.00    -0.263 NA
HETATM    6  C6  UNL     1      23.930  -0.484  53.335  1.00  0.00     0.247 C 
HETATM    7  O3  UNL     1      25.198  -0.816  52.976  1.00  0.00    -0.329 OA
HETATM    8  C14 UNL     1      26.214  -0.301  53.729  1.00  0.00     0.319 C 
ENDROOT
BRANCH   6   9
HETATM    9  C7  UNL     1      23.503  -0.953  54.712  1.00  0.00     0.056 C 
BRANCH   9  10
HETATM   10  C8  UNL     1      22.051  -0.496  54.860  1.00  0.00     0.004 C 
BRANCH  10  11
HETATM   11  C9  UNL     1      21.085  -1.507  54.342  1.00  0.00     0.000 C 
BRANCH  11  12
HETATM   12  C10 UNL     1      20.080  -0.933  53.372  1.00  0.00     0.002 C 
BRANCH  12  13
HETATM   13  C11 UNL     1      20.067   0.562  53.352  1.00  0.00     0.026 C 
BRANCH  13  14
HETATM   14  C12 UNL     1      20.080   1.029  51.914  1.00  0.00     0.170 C 
BRANCH  14  15
HETATM   15  O2  UNL     1      20.951   0.207  51.187  1.00  0.00    -0.362 OA
BRANCH  15  16
HETATM   16  C13 UNL     1      21.338   0.824  49.993  1.00  0.00     0.391 C 
HETATM   17  F1  UNL     1      22.653   1.215  50.130  1.00  0.00    -0.227 F 
ENDBRANCH  15  16
ENDBRANCH  14  15
ENDBRANCH  13  14
ENDBRANCH  12  13
ENDBRANCH  11  12
ENDBRANCH  10  11
ENDBRANCH   9  10
ENDBRANCH   6   9
BRANCH   8  18
HETATM   18  O4  UNL     1      27.323  -1.129  53.823  1.00  0.00    -0.360 OA
HETATM   19  C15 UNL     1      27.301  -2.057  52.801  1.00  0.00     0.205 C 
ENDBRANCH   8  18
BRANCH   1  20
HETATM   20  O1  UNL     1      27.874   1.418  52.758  1.00  0.00    -0.355 OA
HETATM   21  C1  UNL     1      28.582   2.330  53.582  1.00  0.00     0.209 C 
ENDBRANCH   1  20
TORSDOF 10
ENDMDL
MODEL 3
REMARK VINA RESULT:      -5.6      3.294      5.661
REMARK  10 active torsions:
REMARK  status: ('A' for Active; 'I' for Inactive)
REMARK    1  A    between atoms: O1_2  and  C2_3 
REMARK    2  A    between atoms: C6_8  and  C7_9 
REMARK    3  A    between atoms: C7_9  and  C8_10 
REMARK    4  A    between atoms: C8_10  and  C9_11 
REMARK    5  A    between atoms: C9_11  and  C10_12 
REMARK    6  A    between atoms: C10_12  and  C11_13 
REMARK    7  A    between atoms: C11_13  and  C12_14 
REMARK    8  A    between atoms: C12_14  and  O2_15 
REMARK    9  A    between atoms: O2_15  and  C13_16 
REMARK   10  A    between atoms: C14_19  and  O4_20 
ROOT
HETATM    1  C2  UNL     1      20.443   0.182  52.146  1.00  0.00     0.102 C 
HETATM    2  C3  UNL     1      20.575   0.558  50.872  1.00  0.00     0.063 C 
HETATM    3  C4  UNL     1      21.713   1.121  50.142  1.00  0.00     0.030 C 
HETATM    4  C5  UNL     1      21.626   1.074  48.663  1.00  0.00     0.070 C 
HETATM    5  N1  UNL     1      22.734   1.627  50.752  1.00  0.00    -0.263 NA
HETATM    6  C6  UNL     1      23.051   1.787  52.138  1.00  0.00     0.247 C 
HETATM    7  O3  UNL     1      22.055   1.567  53.036  1.00  0.00    -0.329 OA
HETATM    8  C14 UNL     1      21.576   0.292  53.136  1.00  0.00     0.319 C 
ENDROOT
BRANCH   6   9
HETATM    9  C7  UNL     1      24.342   1.040  52.406  1.00  0.00     0.056 C 
BRANCH   9  10
HETATM   10  C8  UNL     1      25.402   1.758  51.570  1.00  0.00     0.004 C 
BRANCH  10  11
HETATM   11  C9  UNL     1      26.776   1.243  51.838  1.00  0.00     0.000 C 
BRANCH  11  12
HETATM   12  C10 UNL     1      27.576   2.124  52.767  1.00  0.00     0.002 C 
BRANCH  12  13
HETATM   13  C11 UNL     1      28.624   1.378  53.530  1.00  0.00     0.026 C 
BRANCH  13  14
HETATM   14  C12 UNL     1      27.943   0.467  54.527  1.00  0.00     0.170 C 
BRANCH  14  15
HETATM   15  O2  UNL     1      28.799  -0.605  54.807  1.00  0.00    -0.362 OA
BRANCH  15  16
HETATM   16  C13 UNL     1      29.550  -0.951  53.679  1.00  0.00     0.391 C 
HETATM   17  F1  UNL     1      28.886  -1.971  53.031  1.00  0.00    -0.227 F 
ENDBRANCH  15  16
ENDBRANCH  14  15
ENDBRANCH  13  14
ENDBRANCH  12  13
ENDBRANCH  11  12
ENDBRANCH  10  11
ENDBRANCH   9  10
ENDBRANCH   6   9
BRANCH   8  18
HETATM   18  O4  UNL     1      21.147  -0.052  54.410  1.00  0.00    -0.360 OA
HETATM   19  C15 UNL     1      21.799  -1.195  54.830  1.00  0.00     0.205 C 
ENDBRANCH   8  18
BRANCH   1  20
HETATM   20  O1  UNL     1      19.171  -0.305  52.421  1.00  0.00    -0.355 OA
HETATM   21  C1  UNL     1      18.089  -0.012  51.553  1.00  0.00     0.209 C 
ENDBRANCH   1  20
TORSDOF 10
ENDMDL
MODEL 4
REMARK VINA RESULT:      -5.5      3.713      5.923
REMARK  10 active torsions:
REMARK  status: ('A' for Active; 'I' for Inactive)
REMARK    1  A    between atoms: O1_2  and  C2_3 
REMARK    2  A    between atoms: C6_8  and  C7_9 
REMARK    3  A    between atoms: C7_9  and  C8_10 
REMARK    4  A    between atoms: C8_10  and  C9_11 
REMARK    5  A    between atoms: C9_11  and  C10_12 
REMARK    6  A    between atoms: C10_12  and  C11_13 
REMARK    7  A    between atoms: C11_13  and  C12_14 
REMARK    8  A    between atoms: C12_14  and  O2_15 
REMARK    9  A    between atoms: O2_15  and  C13_16 
REMARK   10  A    between atoms: C14_19  and  O4_20 
ROOT
HETATM    1  C2  UNL     1      19.295  -1.134  53.433  1.00  0.00     0.102 C 
HETATM    2  C3  UNL     1      18.640  -0.523  52.442  1.00  0.00     0.063 C 
HETATM    3  C4  UNL     1      19.086   0.453  51.446  1.00  0.00     0.030 C 
HETATM    4  C5  UNL     1      18.197   0.638  50.273  1.00  0.00     0.070 C 
HETATM    5  N1  UNL     1      20.190   1.112  51.579  1.00  0.00    -0.263 NA
HETATM    6  C6  UNL     1      21.198   1.115  52.594  1.00  0.00     0.247 C 
HETATM    7  O3  UNL     1      20.914   0.473  53.759  1.00  0.00    -0.329 OA
HETATM    8  C14 UNL     1      20.759  -0.882  53.702  1.00  0.00     0.319 C 
ENDROOT
BRANCH   6   9
HETATM    9  C7  UNL     1      22.509   0.725  51.943  1.00  0.00     0.056 C 
BRANCH   9  10
HETATM   10  C8  UNL     1      23.525   1.754  52.438  1.00  0.00     0.004 C 
BRANCH  10  11
HETATM   11  C9  UNL     1      24.618   1.130  53.239  1.00  0.00     0.000 C 
BRANCH  11  12
HETATM   12  C10 UNL     1      25.681   0.472  52.391  1.00  0.00     0.002 C 
BRANCH  12  13
HETATM   13  C11 UNL     1      26.079  -0.881  52.889  1.00  0.00     0.026 C 
BRANCH  13  14
HETATM   14  C12 UNL     1      27.585  -0.927  53.017  1.00  0.00     0.170 C 
BRANCH  14  15
HETATM   15  O2  UNL     1      27.927  -0.659  54.348  1.00  0.00    -0.362 OA
BRANCH  15  16
HETATM   16  C13 UNL     1      28.976   0.264  54.416  1.00  0.00     0.391 C 
HETATM   17  F1  UNL     1      28.930   1.035  53.273  1.00  0.00    -0.227 F 
ENDBRANCH  15  16
ENDBRANCH  14  15
ENDBRANCH  13  14
ENDBRANCH  12  13
ENDBRANCH  11  12
ENDBRANCH  10  11
ENDBRANCH   9  10
ENDBRANCH   6   9
BRANCH   8  18
HETATM   18  O4  UNL     1      21.166  -1.547  54.850  1.00  0.00    -0.360 OA
HETATM   19  C15 UNL     1      22.513  -1.334  55.059  1.00  0.00     0.205 C 
ENDBRANCH   8  18
BRANCH   1  20
HETATM   20  O1  UNL     1      18.476  -1.997  54.150  1.00  0.00    -0.355 OA
HETATM   21  C1  UNL     1      17.585  -2.867  53.472  1.00  0.00     0.209 C 
ENDBRANCH   1  20
TORSDOF 10
ENDMDL
MODEL 5
REMARK VINA RESULT:      -5.5      2.798      5.408
REMARK  10 active torsions:
REMARK  status: ('A' for Active; 'I' for Inactive)
REMARK    1  A    between atoms: O1_2  and  C2_3 
REMARK    2  A    between atoms: C6_8  and  C7_9 
REMARK    3  A    between atoms: C7_9  and  C8_10 
REMARK    4  A    between atoms: C8_10  and  C9_11 
REMARK    5  A    between atoms: C9_11  and  C10_12 
REMARK    6  A    between atoms: C10_12  and  C11_13 
REMARK    7  A    between atoms: C11_13  and  C12_14 
REMARK    8  A    between atoms: C12_14  and  O2_15 
REMARK    9  A    between atoms: O2_15  and  C13_16 
REMARK   10  A    between atoms: C14_19  and  O4_20 
ROOT
HETATM    1  C2  UNL     1      21.119   0.826  52.109  1.00  0.00     0.102 C 
HETATM    2  C3  UNL     1      21.405  -0.086  53.041  1.00  0.00     0.063 C 
HETATM    3  C4  UNL     1      22.630  -0.340  53.802  1.00  0.00     0.030 C 
HETATM    4  C5  UNL     1      22.483  -1.186  55.010  1.00  0.00     0.070 C 
HETATM    5  N1  UNL     1      23.773   0.145  53.441  1.00  0.00    -0.263 NA
HETATM    6  C6  UNL     1      24.169   0.970  52.342  1.00  0.00     0.247 C 
HETATM    7  O3  UNL     1      23.267   1.156  51.342  1.00  0.00    -0.329 OA
HETATM    8  C14 UNL     1      22.131   1.848  51.650  1.00  0.00     0.319 C 
ENDROOT
BRANCH   6   9
HETATM    9  C7  UNL     1      24.776   2.237  52.910  1.00  0.00     0.056 C 
BRANCH   9  10
HETATM   10  C8  UNL     1      25.696   2.770  51.812  1.00  0.00     0.004 C 
BRANCH  10  11
HETATM   11  C9  UNL     1      27.071   2.199  51.900  1.00  0.00     0.000 C 
BRANCH  11  12
HETATM   12  C10 UNL     1      27.638   2.215  53.299  1.00  0.00     0.002 C 
BRANCH  12  13
HETATM   13  C11 UNL     1      28.480   1.018  53.608  1.00  0.00     0.026 C 
BRANCH  13  14
HETATM   14  C12 UNL     1      27.581  -0.092  54.103  1.00  0.00     0.170 C 
BRANCH  14  15
HETATM   15  O2  UNL     1      27.977  -1.290  53.494  1.00  0.00    -0.362 OA
BRANCH  15  16
HETATM   16  C13 UNL     1      26.934  -1.833  52.738  1.00  0.00     0.391 C 
HETATM   17  F1  UNL     1      26.671  -0.963  51.701  1.00  0.00    -0.227 F 
ENDBRANCH  15  16
ENDBRANCH  14  15
ENDBRANCH  13  14
ENDBRANCH  12  13
ENDBRANCH  11  12
ENDBRANCH  10  11
ENDBRANCH   9  10
ENDBRANCH   6   9
BRANCH   8  18
HETATM   18  O4  UNL     1      21.624   2.598  50.597  1.00  0.00    -0.360 OA
HETATM   19  C15 UNL     1      22.574   2.708  49.602  1.00  0.00     0.205 C 
ENDBRANCH   8  18
BRANCH   1  20
HETATM   20  O1  UNL     1      19.816   0.710  51.642  1.00  0.00    -0.355 OA
HETATM   21  C1  UNL     1      18.915  -0.200  52.252  1.00  0.00     0.209 C 
ENDBRANCH   1  20
TORSDOF 10
ENDMDL
MODEL 6
REMARK VINA RESULT:      -5.4      2.544      4.798
REMARK  10 active torsions:
REMARK  status: ('A' for Active; 'I' for Inactive)
REMARK    1  A    between atoms: O1_2  and  C2_3 
REMARK    2  A    between atoms: C6_8  and  C7_9 
REMARK    3  A    between atoms: C7_9  and  C8_10 
REMARK    4  A    between atoms: C8_10  and  C9_11 
REMARK    5  A    between atoms: C9_11  and  C10_12 
REMARK    6  A    between atoms: C10_12  and  C11_13 
REMARK    7  A    between atoms: C11_13  and  C12_14 
REMARK    8  A    between atoms: C12_14  and  O2_15 
REMARK    9  A    between atoms: O2_15  and  C13_16 
REMARK   10  A    between atoms: C14_19  and  O4_20 
ROOT
HETATM    1  C2  UNL     1      26.952   0.124  53.898  1.00  0.00     0.102 C 
HETATM    2  C3  UNL     1      27.226   0.901  52.847  1.00  0.00     0.063 C 
HETATM    3  C4  UNL     1      26.350   1.624  51.923  1.00  0.00     0.030 C 
HETATM    4  C5  UNL     1      26.995   2.679  51.105  1.00  0.00     0.070 C 
HETATM    5  N1  UNL     1      25.088   1.358  51.828  1.00  0.00    -0.263 NA
HETATM    6  C6  UNL     1      24.247   0.410  52.491  1.00  0.00     0.247 C 
HETATM    7  O3  UNL     1      24.855  -0.556  53.229  1.00  0.00    -0.329 OA
HETATM    8  C14 UNL     1      25.537  -0.154  54.341  1.00  0.00     0.319 C 
ENDROOT
BRANCH   6   9
HETATM    9  C7  UNL     1      23.156   1.181  53.206  1.00  0.00     0.056 C 
BRANCH   9  10
HETATM   10  C8  UNL     1      22.308   1.801  52.095  1.00  0.00     0.004 C 
BRANCH  10  11
HETATM   11  C9  UNL     1      21.934   0.807  51.048  1.00  0.00     0.000 C 
BRANCH  11  12
HETATM   12  C10 UNL     1      20.462   0.468  51.043  1.00  0.00     0.002 C 
BRANCH  12  13
HETATM   13  C11 UNL     1      19.761   0.868  52.302  1.00  0.00     0.026 C 
BRANCH  13  14
HETATM   14  C12 UNL     1      19.436  -0.380  53.093  1.00  0.00     0.170 C 
BRANCH  14  15
HETATM   15  O2  UNL     1      20.266  -0.420  54.220  1.00  0.00    -0.362 OA
BRANCH  15  16
HETATM   16  C13 UNL     1      20.892  -1.666  54.333  1.00  0.00     0.391 C 
HETATM   17  F1  UNL     1      21.835  -1.753  53.331  1.00  0.00    -0.227 F 
ENDBRANCH  15  16
ENDBRANCH  14  15
ENDBRANCH  13  14
ENDBRANCH  12  13
ENDBRANCH  11  12
ENDBRANCH  10  11
ENDBRANCH   9  10
ENDBRANCH   6   9
BRANCH   8  18
HETATM   18  O4  UNL     1      25.522  -1.077  55.378  1.00  0.00    -0.360 OA
HETATM   19  C15 UNL     1      24.218  -1.384  55.711  1.00  0.00     0.205 C 
ENDBRANCH   8  18
BRANCH   1  20
HETATM   20  O1  UNL     1      28.102  -0.370  54.501  1.00  0.00    -0.355 OA
HETATM   21  C1  UNL     1      29.256  -0.646  53.724  1.00  0.00     0.209 C 
ENDBRANCH   1  20
TORSDOF 10
ENDMDL
MODEL 7
REMARK VINA RESULT:      -5.4      2.902      5.960
REMARK  10 active torsions:
REMARK  status: ('A' for Active; 'I' for Inactive)
REMARK    1  A    between atoms: O1_2  and  C2_3 
REMARK    2  A    between atoms: C6_8  and  C7_9 
REMARK    3  A    between atoms: C7_9  and  C8_10 
REMARK    4  A    between atoms: C8_10  and  C9_11 
REMARK    5  A    between atoms: C9_11  and  C10_12 
REMARK    6  A    between atoms: C10_12  and  C11_13 
REMARK    7  A    between atoms: C11_13  and  C12_14 
REMARK    8  A    between atoms: C12_14  and  O2_15 
REMARK    9  A    between atoms: O2_15  and  C13_16 
REMARK   10  A    between atoms: C14_19  and  O4_20 
ROOT
HETATM    1  C2  UNL     1      20.237   2.953  52.421  1.00  0.00     0.102 C 
HETATM    2  C3  UNL     1      20.297   1.733  52.959  1.00  0.00     0.063 C 
HETATM    3  C4  UNL     1      21.438   0.913  53.372  1.00  0.00     0.030 C 
HETATM    4  C5  UNL     1      21.130  -0.228  54.267  1.00  0.00     0.070 C 
HETATM    5  N1  UNL     1      22.643   1.170  52.980  1.00  0.00    -0.263 NA
HETATM    6  C6  UNL     1      23.188   2.188  52.136  1.00  0.00     0.247 C 
HETATM    7  O3  UNL     1      22.312   2.944  51.421  1.00  0.00    -0.329 OA
HETATM    8  C14 UNL     1      21.477   3.762  52.126  1.00  0.00     0.319 C 
ENDROOT
BRANCH   6   9
HETATM    9  C7  UNL     1      24.202   2.967  52.949  1.00  0.00     0.056 C 
BRANCH   9  10
HETATM   10  C8  UNL     1      25.363   1.998  53.178  1.00  0.00     0.004 C 
BRANCH  10  11
HETATM   11  C9  UNL     1      25.864   1.405  51.905  1.00  0.00     0.000 C 
BRANCH  11  12
HETATM   12  C10 UNL     1      26.905   0.331  52.112  1.00  0.00     0.002 C 
BRANCH  12  13
HETATM   13  C11 UNL     1      26.792  -0.351  53.439  1.00  0.00     0.026 C 
BRANCH  13  14
HETATM   14  C12 UNL     1      28.084  -0.150  54.199  1.00  0.00     0.170 C 
BRANCH  14  15
HETATM   15  O2  UNL     1      28.914   0.692  53.450  1.00  0.00    -0.362 OA
BRANCH  15  16
HETATM   16  C13 UNL     1      29.332   1.787  54.214  1.00  0.00     0.391 C 
HETATM   17  F1  UNL     1      28.468   2.831  53.957  1.00  0.00    -0.227 F 
ENDBRANCH  15  16
ENDBRANCH  14  15
ENDBRANCH  13  14
ENDBRANCH  12  13
ENDBRANCH  11  12
ENDBRANCH  10  11
ENDBRANCH   9  10
ENDBRANCH   6   9
BRANCH   8  18
HETATM   18  O4  UNL     1      21.147   4.937  51.465  1.00  0.00    -0.360 OA
HETATM   19  C15 UNL     1      22.273   5.725  51.325  1.00  0.00     0.205 C 
ENDBRANCH   8  18
BRANCH   1  20
HETATM   20  O1  UNL     1      18.929   3.359  52.183  1.00  0.00    -0.355 OA
HETATM   21  C1  UNL     1      18.124   2.663  51.247  1.00  0.00     0.209 C 
ENDBRANCH   1  20
TORSDOF 10
ENDMDL
MODEL 8
REMARK VINA RESULT:      -5.4      2.450      3.579
REMARK  10 active torsions:
REMARK  status: ('A' for Active; 'I' for Inactive)
REMARK    1  A    between atoms: O1_2  and  C2_3 
REMARK    2  A    between atoms: C6_8  and  C7_9 
REMARK    3  A    between atoms: C7_9  and  C8_10 
REMARK    4  A    between atoms: C8_10  and  C9_11 
REMARK    5  A    between atoms: C9_11  and  C10_12 
REMARK    6  A    between atoms: C10_12  and  C11_13 
REMARK    7  A    between atoms: C11_13  and  C12_14 
REMARK    8  A    between atoms: C12_14  and  O2_15 
REMARK    9  A    between atoms: O2_15  and  C13_16 
REMARK   10  A    between atoms: C14_19  and  O4_20 
ROOT
HETATM    1  C2  UNL     1      25.391  -0.227  53.466  1.00  0.00     0.102 C 
HETATM    2  C3  UNL     1      24.296  -0.543  54.162  1.00  0.00     0.063 C 
HETATM    3  C4  UNL     1      22.885  -0.217  53.946  1.00  0.00     0.030 C 
HETATM    4  C5  UNL     1      21.904  -1.036  54.698  1.00  0.00     0.070 C 
HETATM    5  N1  UNL     1      22.516   0.730  53.146  1.00  0.00    -0.263 NA
HETATM    6  C6  UNL     1      23.251   1.642  52.325  1.00  0.00     0.247 C 
HETATM    7  O3  UNL     1      24.594   1.716  52.519  1.00  0.00    -0.329 OA
HETATM    8  C14 UNL     1      25.330   0.608  52.211  1.00  0.00     0.319 C 
ENDROOT
BRANCH   6   9
HETATM    9  C7  UNL     1      22.815   1.425  50.889  1.00  0.00     0.056 C 
BRANCH   9  10
HETATM   10  C8  UNL     1      22.618   2.827  50.313  1.00  0.00     0.004 C 
BRANCH  10  11
HETATM   11  C9  UNL     1      23.479   3.074  49.120  1.00  0.00     0.000 C 
BRANCH  11  12
HETATM   12  C10 UNL     1      24.761   3.802  49.447  1.00  0.00     0.002 C 
BRANCH  12  13
HETATM   13  C11 UNL     1      24.703   5.265  49.140  1.00  0.00     0.026 C 
BRANCH  13  14
HETATM   14  C12 UNL     1      26.115   5.784  48.988  1.00  0.00     0.170 C 
BRANCH  14  15
HETATM   15  O2  UNL     1      26.963   4.700  48.732  1.00  0.00    -0.362 OA
BRANCH  15  16
HETATM   16  C13 UNL     1      28.269   5.136  48.486  1.00  0.00     0.391 C 
HETATM   17  F1  UNL     1      28.194   6.245  47.671  1.00  0.00    -0.227 F 
ENDBRANCH  15  16
ENDBRANCH  14  15
ENDBRANCH  13  14
ENDBRANCH  12  13
ENDBRANCH  11  12
ENDBRANCH  10  11
ENDBRANCH   9  10
ENDBRANCH   6   9
BRANCH   8  18
HETATM   18  O4  UNL     1      26.609   0.889  51.749  1.00  0.00    -0.360 OA
HETATM   19  C15 UNL     1      26.879   2.233  51.914  1.00  0.00     0.205 C 
ENDBRANCH   8  18
BRANCH   1  20
HETATM   20  O1  UNL     1      26.544  -0.753  54.035  1.00  0.00    -0.355 OA
HETATM   21  C1  UNL     1      27.321   0.026  54.929  1.00  0.00     0.209 C 
ENDBRANCH   1  20
TORSDOF 10
ENDMDL
MODEL 9
REMARK VINA RESULT:      -5.3      2.306      3.961
REMARK  10 active torsions:
REMARK  status: ('A' for Active; 'I' for Inactive)
REMARK    1  A    between atoms: O1_2  and  C2_3 
REMARK    2  A    between atoms: C6_8  and  C7_9 
REMARK    3  A    between atoms: C7_9  and  C8_10 
REMARK    4  A    between atoms: C8_10  and  C9_11 
REMARK    5  A    between atoms: C9_11  and  C10_12 
REMARK    6  A    between atoms: C10_12  and  C11_13 
REMARK    7  A    between atoms: C11_13  and  C12_14 
REMARK    8  A    between atoms: C12_14  and  O2_15 
REMARK    9  A    between atoms: O2_15  and  C13_16 
REMARK   10  A    between atoms: C14_19  and  O4_20 
ROOT
HETATM    1  C2  UNL     1      25.715  -0.226  53.475  1.00  0.00     0.102 C 
HETATM    2  C3  UNL     1      24.647  -0.656  54.152  1.00  0.00     0.063 C 
HETATM    3  C4  UNL     1      23.217  -0.407  53.965  1.00  0.00     0.030 C 
HETATM    4  C5  UNL     1      22.297  -1.335  54.664  1.00  0.00     0.070 C 
HETATM    5  N1  UNL     1      22.782   0.565  53.230  1.00  0.00    -0.263 NA
HETATM    6  C6  UNL     1      23.451   1.575  52.469  1.00  0.00     0.247 C 
HETATM    7  O3  UNL     1      24.789   1.721  52.662  1.00  0.00    -0.329 OA
HETATM    8  C14 UNL     1      25.591   0.685  52.278  1.00  0.00     0.319 C 
ENDROOT
BRANCH   6   9
HETATM    9  C7  UNL     1      23.018   1.425  51.024  1.00  0.00     0.056 C 
BRANCH   9  10
HETATM   10  C8  UNL     1      21.716   0.625  51.076  1.00  0.00     0.004 C 
BRANCH  10  11
HETATM   11  C9  UNL     1      20.947   0.715  49.801  1.00  0.00     0.000 C 
BRANCH  11  12
HETATM   12  C10 UNL     1      19.511   1.138  49.996  1.00  0.00     0.002 C 
BRANCH  12  13
HETATM   13  C11 UNL     1      19.130   1.286  51.435  1.00  0.00     0.026 C 
BRANCH  13  14
HETATM   14  C12 UNL     1      18.846   2.746  51.714  1.00  0.00     0.170 C 
BRANCH  14  15
HETATM   15  O2  UNL     1      19.847   3.240  52.559  1.00  0.00    -0.362 OA
BRANCH  15  16
HETATM   16  C13 UNL     1      20.676   4.137  51.877  1.00  0.00     0.391 C 
HETATM   17  F1  UNL     1      19.922   4.737  50.891  1.00  0.00    -0.227 F 
ENDBRANCH  15  16
ENDBRANCH  14  15
ENDBRANCH  13  14
ENDBRANCH  12  13
ENDBRANCH  11  12
ENDBRANCH  10  11
ENDBRANCH   9  10
ENDBRANCH   6   9
BRANCH   8  18
HETATM   18  O4  UNL     1      26.845   1.077  51.831  1.00  0.00    -0.360 OA
HETATM   19  C15 UNL     1      26.850   2.436  51.588  1.00  0.00     0.205 C 
ENDBRANCH   8  18
BRANCH   1  20
HETATM   20  O1  UNL     1      26.904  -0.713  54.002  1.00  0.00    -0.355 OA
HETATM   21  C1  UNL     1      27.699   0.102  54.847  1.00  0.00     0.209 C 
ENDBRANCH   1  20
TORSDOF 10
ENDMDL
