MODEL 1
REMARK VINA RESULT:      -7.9      0.000      0.000
REMARK  3 active torsions:
REMARK  status: ('A' for Active; 'I' for Inactive)
REMARK    1  A    between atoms: C2_2  and  C3_4 
REMARK    2  A    between atoms: C4_6  and  C5_7 
REMARK    3  A    between atoms: N1_8  and  C6_9 
ROOT
HETATM    1  C6  UNL     1      24.132  -0.034  53.373  1.00  0.00     0.181 A 
HETATM    2  N2  UNL     1      24.764  -0.670  54.394  1.00  0.00    -0.220 NA
HETATM    3  C7  UNL     1      24.105  -1.327  55.365  1.00  0.00     0.238 A 
HETATM    4  N3  UNL     1      22.742  -1.379  55.360  1.00  0.00    -0.215 NA
HETATM    5  C8  UNL     1      22.039  -0.771  54.376  1.00  0.00     0.202 A 
HETATM    6  C9  UNL     1      22.746  -0.093  53.377  1.00  0.00     0.130 A 
HETATM    7  N4  UNL     1      22.160   0.602  52.269  1.00  0.00    -0.379 N 
HETATM    8  C10 UNL     1      20.862   1.220  52.109  1.00  0.00     0.161 C 
HETATM    9  C11 UNL     1      19.799   0.240  52.448  1.00  0.00    -0.007 A 
HETATM   10  C12 UNL     1      18.781   0.357  51.498  1.00  0.00     0.011 A 
HETATM   11  C13 UNL     1      17.668  -0.444  51.580  1.00  0.00     0.001 A 
HETATM   12  C14 UNL     1      17.577  -1.359  52.613  1.00  0.00     0.003 A 
HETATM   13  C15 UNL     1      18.596  -1.447  53.528  1.00  0.00     0.038 A 
HETATM   14  C16 UNL     1      19.741  -0.662  53.491  1.00  0.00     0.086 A 
HETATM   15  O1  UNL     1      20.646  -0.921  54.521  1.00  0.00    -0.289 OA
HETATM   16  H6  UNL     1      22.829   0.643  51.458  1.00  0.00     0.160 HD
ENDROOT
BRANCH   1  17
HETATM   17  N1  UNL     1      24.805   0.664  52.342  1.00  0.00    -0.239 NA
HETATM   18  C5  UNL     1      25.663   1.593  52.657  1.00  0.00     0.122 C 
BRANCH  18  19
HETATM   19  C4  UNL     1      26.271   2.218  51.501  1.00  0.00     0.063 C 
HETATM   20  C3  UNL     1      25.586   3.239  51.043  1.00  0.00     0.135 C 
HETATM   21  F1  UNL     1      24.421   3.747  51.520  1.00  0.00    -0.205 F 
BRANCH  20  22
HETATM   22  C2  UNL     1      25.924   4.086  49.893  1.00  0.00     0.050 C 
HETATM   23  C1  UNL     1      25.304   5.006  49.165  1.00  0.00     0.060 C 
HETATM   24 CL1  UNL     1      27.344   4.308  48.883  1.00  0.00    -0.086 Cl
ENDBRANCH  20  22
ENDBRANCH  18  19
ENDBRANCH   1  17
TORSDOF 3
ENDMDL
MODEL 2
REMARK VINA RESULT:      -7.9      1.910      2.730
REMARK  3 active torsions:
REMARK  status: ('A' for Active; 'I' for Inactive)
REMARK    1  A    between atoms: C2_2  and  C3_4 
REMARK    2  A    between atoms: C4_6  and  C5_7 
REMARK    3  A    between atoms: N1_8  and  C6_9 
ROOT
HETATM    1  C6  UNL     1      26.135   0.920  51.964  1.00  0.00     0.181 A 
HETATM    2  N2  UNL     1      27.273   0.323  52.406  1.00  0.00    -0.220 NA
HETATM    3  C7  UNL     1      27.290  -0.558  53.422  1.00  0.00     0.238 A 
HETATM    4  N3  UNL     1      26.133  -0.893  54.063  1.00  0.00    -0.215 NA
HETATM    5  C8  UNL     1      24.957  -0.342  53.683  1.00  0.00     0.202 A 
HETATM    6  C9  UNL     1      24.964   0.572  52.623  1.00  0.00     0.130 A 
HETATM    7  N4  UNL     1      23.814   1.245  52.097  1.00  0.00    -0.379 N 
HETATM    8  C10 UNL     1      22.549   1.592  52.707  1.00  0.00     0.161 C 
HETATM    9  C11 UNL     1      21.941   0.381  53.314  1.00  0.00    -0.007 A 
HETATM   10  C12 UNL     1      20.576   0.385  53.016  1.00  0.00     0.011 A 
HETATM   11  C13 UNL     1      19.771  -0.634  53.463  1.00  0.00     0.001 A 
HETATM   12  C14 UNL     1      20.335  -1.655  54.207  1.00  0.00     0.003 A 
HETATM   13  C15 UNL     1      21.679  -1.626  54.481  1.00  0.00     0.038 A 
HETATM   14  C16 UNL     1      22.535  -0.620  54.053  1.00  0.00     0.086 A 
HETATM   15  O1  UNL     1      23.864  -0.795  54.447  1.00  0.00    -0.289 OA
HETATM   16  H6  UNL     1      23.965   1.512  51.091  1.00  0.00     0.160 HD
ENDROOT
BRANCH   1  17
HETATM   17  N1  UNL     1      26.095   1.849  50.898  1.00  0.00    -0.239 NA
HETATM   18  C5  UNL     1      26.792   2.947  50.985  1.00  0.00     0.122 C 
BRANCH  18  19
HETATM   19  C4  UNL     1      26.653   3.800  49.822  1.00  0.00     0.063 C 
HETATM   20  C3  UNL     1      25.692   4.685  49.941  1.00  0.00     0.135 C 
HETATM   21  F1  UNL     1      24.854   4.876  50.992  1.00  0.00    -0.205 F 
BRANCH  20  22
HETATM   22  C2  UNL     1      25.291   5.693  48.952  1.00  0.00     0.050 C 
HETATM   23  C1  UNL     1      25.880   6.694  48.311  1.00  0.00     0.060 C 
HETATM   24 CL1  UNL     1      23.802   6.085  48.105  1.00  0.00    -0.086 Cl
ENDBRANCH  20  22
ENDBRANCH  18  19
ENDBRANCH   1  17
TORSDOF 3
ENDMDL
MODEL 3
REMARK VINA RESULT:      -7.8      4.033      5.900
REMARK  3 active torsions:
REMARK  status: ('A' for Active; 'I' for Inactive)
REMARK    1  A    between atoms: C2_2  and  C3_4 
REMARK    2  A    between atoms: C4_6  and  C5_7 
REMARK    3  A    between atoms: N1_8  and  C6_9 
ROOT
HETATM    1  C6  UNL     1      24.331   5.085  50.886  1.00  0.00     0.181 A 
HETATM    2  N2  UNL     1      23.108   5.647  51.068  1.00  0.00    -0.220 NA
HETATM    3  C7  UNL     1      22.079   4.993  51.636  1.00  0.00     0.238 A 
HETATM    4  N3  UNL     1      22.231   3.705  52.060  1.00  0.00    -0.215 NA
HETATM    5  C8  UNL     1      23.419   3.074  51.915  1.00  0.00     0.202 A 
HETATM    6  C9  UNL     1      24.475   3.774  51.322  1.00  0.00     0.130 A 
HETATM    7  N4  UNL     1      25.792   3.258  51.092  1.00  0.00    -0.379 N 
HETATM    8  C10 UNL     1      26.267   1.904  50.910  1.00  0.00     0.161 C 
HETATM    9  C11 UNL     1      25.802   1.057  52.037  1.00  0.00    -0.007 A 
HETATM   10  C12 UNL     1      26.860   0.235  52.429  1.00  0.00     0.011 A 
HETATM   11  C13 UNL     1      26.695  -0.655  53.463  1.00  0.00     0.001 A 
HETATM   12  C14 UNL     1      25.470  -0.719  54.101  1.00  0.00     0.003 A 
HETATM   13  C15 UNL     1      24.452   0.105  53.690  1.00  0.00     0.038 A 
HETATM   14  C16 UNL     1      24.567   1.020  52.652  1.00  0.00     0.086 A 
HETATM   15  O1  UNL     1      23.405   1.753  52.404  1.00  0.00    -0.289 OA
HETATM   16  H6  UNL     1      26.498   4.037  51.060  1.00  0.00     0.160 HD
ENDROOT
BRANCH   1  17
HETATM   17  N1  UNL     1      25.426   5.754  50.291  1.00  0.00    -0.239 NA
HETATM   18  C5  UNL     1      25.492   5.836  48.992  1.00  0.00     0.122 C 
BRANCH  18  19
HETATM   19  C4  UNL     1      26.666   6.547  48.528  1.00  0.00     0.063 C 
HETATM   20  C3  UNL     1      27.711   5.771  48.364  1.00  0.00     0.135 C 
HETATM   21  F1  UNL     1      27.802   4.433  48.574  1.00  0.00    -0.205 F 
BRANCH  20  22
HETATM   22  C2  UNL     1      29.047   6.174  47.908  1.00  0.00     0.050 C 
HETATM   23  C1  UNL     1      29.589   7.258  47.369  1.00  0.00     0.060 C 
HETATM   24 CL1  UNL     1      30.626   5.405  47.844  1.00  0.00    -0.086 Cl
ENDBRANCH  20  22
ENDBRANCH  18  19
ENDBRANCH   1  17
TORSDOF 3
ENDMDL
MODEL 4
REMARK VINA RESULT:      -7.7      3.526      7.290
REMARK  3 active torsions:
REMARK  status: ('A' for Active; 'I' for Inactive)
REMARK    1  A    between atoms: C2_2  and  C3_4 
REMARK    2  A    between atoms: C4_6  and  C5_7 
REMARK    3  A    between atoms: N1_8  and  C6_9 
ROOT
HETATM    1  C6  UNL     1      24.907   1.654  52.692  1.00  0.00     0.181 A 
HETATM    2  N2  UNL     1      25.979   1.143  53.353  1.00  0.00    -0.220 NA
HETATM    3  C7  UNL     1      27.249   1.414  53.005  1.00  0.00     0.238 A 
HETATM    4  N3  UNL     1      27.515   2.232  51.947  1.00  0.00    -0.215 NA
HETATM    5  C8  UNL     1      26.502   2.781  51.237  1.00  0.00     0.202 A 
HETATM    6  C9  UNL     1      25.188   2.485  51.617  1.00  0.00     0.130 A 
HETATM    7  N4  UNL     1      24.005   2.979  50.977  1.00  0.00    -0.379 N 
HETATM    8  C10 UNL     1      23.769   3.426  49.621  1.00  0.00     0.161 C 
HETATM    9  C11 UNL     1      24.765   4.465  49.260  1.00  0.00    -0.007 A 
HETATM   10  C12 UNL     1      24.101   5.483  48.571  1.00  0.00     0.011 A 
HETATM   11  C13 UNL     1      24.798   6.577  48.119  1.00  0.00     0.001 A 
HETATM   12  C14 UNL     1      26.159   6.649  48.358  1.00  0.00     0.003 A 
HETATM   13  C15 UNL     1      26.778   5.631  49.039  1.00  0.00     0.038 A 
HETATM   14  C16 UNL     1      26.121   4.506  49.516  1.00  0.00     0.086 A 
HETATM   15  O1  UNL     1      26.949   3.598  50.180  1.00  0.00    -0.289 OA
HETATM   16  H6  UNL     1      23.197   3.000  51.651  1.00  0.00     0.160 HD
ENDROOT
BRANCH   1  17
HETATM   17  N1  UNL     1      23.563   1.382  53.041  1.00  0.00    -0.239 NA
HETATM   18  C5  UNL     1      23.178   0.144  53.176  1.00  0.00     0.122 C 
BRANCH  18  19
HETATM   19  C4  UNL     1      21.780   0.021  53.533  1.00  0.00     0.063 C 
HETATM   20  C3  UNL     1      20.985  -0.064  52.493  1.00  0.00     0.135 C 
HETATM   21  F1  UNL     1      21.321  -0.048  51.178  1.00  0.00    -0.205 F 
BRANCH  20  22
HETATM   22  C2  UNL     1      19.523  -0.197  52.508  1.00  0.00     0.050 C 
HETATM   23  C1  UNL     1      18.501   0.400  51.909  1.00  0.00     0.060 C 
HETATM   24 CL1  UNL     1      18.374  -1.232  53.341  1.00  0.00    -0.086 Cl
ENDBRANCH  20  22
ENDBRANCH  18  19
ENDBRANCH   1  17
TORSDOF 3
ENDMDL
MODEL 5
REMARK VINA RESULT:      -7.6      3.233      4.448
REMARK  3 active torsions:
REMARK  status: ('A' for Active; 'I' for Inactive)
REMARK    1  A    between atoms: C2_2  and  C3_4 
REMARK    2  A    between atoms: C4_6  and  C5_7 
REMARK    3  A    between atoms: N1_8  and  C6_9 
ROOT
HETATM    1  C6  UNL     1      23.054   0.129  53.388  1.00  0.00     0.181 A 
HETATM    2  N2  UNL     1      22.440  -0.912  54.010  1.00  0.00    -0.220 NA
HETATM    3  C7  UNL     1      21.117  -0.942  54.251  1.00  0.00     0.238 A 
HETATM    4  N3  UNL     1      20.323   0.099  53.869  1.00  0.00    -0.215 NA
HETATM    5  C8  UNL     1      20.858   1.173  53.243  1.00  0.00     0.202 A 
HETATM    6  C9  UNL     1      22.236   1.182  53.003  1.00  0.00     0.130 A 
HETATM    7  N4  UNL     1      22.962   2.236  52.356  1.00  0.00    -0.379 N 
HETATM    8  C10 UNL     1      22.685   3.651  52.237  1.00  0.00     0.161 C 
HETATM    9  C11 UNL     1      21.318   3.846  51.694  1.00  0.00    -0.007 A 
HETATM   10  C12 UNL     1      21.369   4.869  50.744  1.00  0.00     0.011 A 
HETATM   11  C13 UNL     1      20.228   5.253  50.083  1.00  0.00     0.001 A 
HETATM   12  C14 UNL     1      19.038   4.612  50.375  1.00  0.00     0.003 A 
HETATM   13  C15 UNL     1      19.024   3.612  51.314  1.00  0.00     0.038 A 
HETATM   14  C16 UNL     1      20.148   3.187  52.010  1.00  0.00     0.086 A 
HETATM   15  O1  UNL     1      19.902   2.154  52.918  1.00  0.00    -0.289 OA
HETATM   16  H6  UNL     1      23.837   1.864  51.906  1.00  0.00     0.160 HD
ENDROOT
BRANCH   1  17
HETATM   17  N1  UNL     1      24.443   0.182  53.126  1.00  0.00    -0.239 NA
HETATM   18  C5  UNL     1      25.179  -0.864  53.379  1.00  0.00     0.122 C 
BRANCH  18  19
HETATM   19  C4  UNL     1      26.578  -0.662  53.062  1.00  0.00     0.063 C 
HETATM   20  C3  UNL     1      27.240  -0.039  54.007  1.00  0.00     0.135 C 
HETATM   21  F1  UNL     1      26.771   0.416  55.197  1.00  0.00    -0.205 F 
BRANCH  20  22
HETATM   22  C2  UNL     1      28.664   0.319  54.001  1.00  0.00     0.050 C 
HETATM   23  C1  UNL     1      29.391   1.364  54.373  1.00  0.00     0.060 C 
HETATM   24 CL1  UNL     1      30.145  -0.473  53.487  1.00  0.00    -0.086 Cl
ENDBRANCH  20  22
ENDBRANCH  18  19
ENDBRANCH   1  17
TORSDOF 3
ENDMDL
MODEL 6
REMARK VINA RESULT:      -7.5      2.946      5.955
REMARK  3 active torsions:
REMARK  status: ('A' for Active; 'I' for Inactive)
REMARK    1  A    between atoms: C2_2  and  C3_4 
REMARK    2  A    between atoms: C4_6  and  C5_7 
REMARK    3  A    between atoms: N1_8  and  C6_9 
ROOT
HETATM    1  C6  UNL     1      22.392   1.326  52.599  1.00  0.00     0.181 A 
HETATM    2  N2  UNL     1      21.492   0.438  53.097  1.00  0.00    -0.220 NA
HETATM    3  C7  UNL     1      21.851  -0.661  53.783  1.00  0.00     0.238 A 
HETATM    4  N3  UNL     1      23.168  -0.933  54.009  1.00  0.00    -0.215 NA
HETATM    5  C8  UNL     1      24.128  -0.098  53.547  1.00  0.00     0.202 A 
HETATM    6  C9  UNL     1      23.730   1.040  52.836  1.00  0.00     0.130 A 
HETATM    7  N4  UNL     1      24.611   2.023  52.277  1.00  0.00    -0.379 N 
HETATM    8  C10 UNL     1      25.987   1.932  51.840  1.00  0.00     0.161 C 
HETATM    9  C11 UNL     1      26.819   1.362  52.929  1.00  0.00    -0.007 A 
HETATM   10  C12 UNL     1      28.010   2.089  52.991  1.00  0.00     0.011 A 
HETATM   11  C13 UNL     1      28.967   1.765  53.922  1.00  0.00     0.001 A 
HETATM   12  C14 UNL     1      28.728   0.713  54.789  1.00  0.00     0.003 A 
HETATM   13  C15 UNL     1      27.546   0.021  54.699  1.00  0.00     0.038 A 
HETATM   14  C16 UNL     1      26.548   0.308  53.777  1.00  0.00     0.086 A 
HETATM   15  O1  UNL     1      25.431  -0.525  53.866  1.00  0.00    -0.289 OA
HETATM   16  H6  UNL     1      24.127   2.953  52.193  1.00  0.00     0.160 HD
ENDROOT
BRANCH   1  17
HETATM   17  N1  UNL     1      22.037   2.487  51.875  1.00  0.00    -0.239 NA
HETATM   18  C5  UNL     1      21.106   3.270  52.343  1.00  0.00     0.122 C 
BRANCH  18  19
HETATM   19  C4  UNL     1      20.850   4.417  51.497  1.00  0.00     0.063 C 
HETATM   20  C3  UNL     1      21.788   5.331  51.565  1.00  0.00     0.135 C 
HETATM   21  F1  UNL     1      22.921   5.314  52.312  1.00  0.00    -0.205 F 
BRANCH  20  22
HETATM   22  C2  UNL     1      21.834   6.606  50.838  1.00  0.00     0.050 C 
HETATM   23  C1  UNL     1      21.000   7.310  50.086  1.00  0.00     0.060 C 
HETATM   24 CL1  UNL     1      23.042   7.859  50.595  1.00  0.00    -0.086 Cl
ENDBRANCH  20  22
ENDBRANCH  18  19
ENDBRANCH   1  17
TORSDOF 3
ENDMDL
MODEL 7
REMARK VINA RESULT:      -7.4      2.910      4.503
REMARK  3 active torsions:
REMARK  status: ('A' for Active; 'I' for Inactive)
REMARK    1  A    between atoms: C2_2  and  C3_4 
REMARK    2  A    between atoms: C4_6  and  C5_7 
REMARK    3  A    between atoms: N1_8  and  C6_9 
ROOT
HETATM    1  C6  UNL     1      24.039   2.386  50.768  1.00  0.00     0.181 A 
HETATM    2  N2  UNL     1      24.128   3.213  49.693  1.00  0.00    -0.220 NA
HETATM    3  C7  UNL     1      23.136   3.356  48.796  1.00  0.00     0.238 A 
HETATM    4  N3  UNL     1      21.973   2.656  48.937  1.00  0.00    -0.215 NA
HETATM    5  C8  UNL     1      21.806   1.811  49.981  1.00  0.00     0.202 A 
HETATM    6  C9  UNL     1      22.852   1.679  50.901  1.00  0.00     0.130 A 
HETATM    7  N4  UNL     1      22.842   0.832  52.057  1.00  0.00    -0.379 N 
HETATM    8  C10 UNL     1      22.114  -0.386  52.341  1.00  0.00     0.161 C 
HETATM    9  C11 UNL     1      20.664  -0.162  52.115  1.00  0.00    -0.007 A 
HETATM   10  C12 UNL     1      19.963  -0.769  53.161  1.00  0.00     0.011 A 
HETATM   11  C13 UNL     1      18.591  -0.711  53.195  1.00  0.00     0.001 A 
HETATM   12  C14 UNL     1      17.924  -0.046  52.182  1.00  0.00     0.003 A 
HETATM   13  C15 UNL     1      18.645   0.539  51.171  1.00  0.00     0.038 A 
HETATM   14  C16 UNL     1      20.030   0.509  51.090  1.00  0.00     0.086 A 
HETATM   15  O1  UNL     1      20.553   1.170  49.976  1.00  0.00    -0.289 OA
HETATM   16  H6  UNL     1      23.491   1.203  52.797  1.00  0.00     0.160 HD
ENDROOT
BRANCH   1  17
HETATM   17  N1  UNL     1      25.070   2.220  51.722  1.00  0.00    -0.239 NA
HETATM   18  C5  UNL     1      26.312   2.255  51.330  1.00  0.00     0.122 C 
BRANCH  18  19
HETATM   19  C4  UNL     1      27.254   2.071  52.414  1.00  0.00     0.063 C 
HETATM   20  C3  UNL     1      27.569   0.814  52.620  1.00  0.00     0.135 C 
HETATM   21  F1  UNL     1      27.123  -0.281  51.953  1.00  0.00    -0.205 F 
BRANCH  20  22
HETATM   22  C2  UNL     1      28.490   0.288  53.635  1.00  0.00     0.050 C 
HETATM   23  C1  UNL     1      28.529   0.239  54.960  1.00  0.00     0.060 C 
HETATM   24 CL1  UNL     1      30.031  -0.554  53.602  1.00  0.00    -0.086 Cl
ENDBRANCH  20  22
ENDBRANCH  18  19
ENDBRANCH   1  17
TORSDOF 3
ENDMDL
MODEL 8
REMARK VINA RESULT:      -7.3      7.961     10.807
REMARK  3 active torsions:
REMARK  status: ('A' for Active; 'I' for Inactive)
REMARK    1  A    between atoms: C2_2  and  C3_4 
REMARK    2  A    between atoms: C4_6  and  C5_7 
REMARK    3  A    between atoms: N1_8  and  C6_9 
ROOT
HETATM    1  C6  UNL     1      30.710   8.310  48.842  1.00  0.00     0.181 A 
HETATM    2  N2  UNL     1      30.789   9.662  48.946  1.00  0.00    -0.220 NA
HETATM    3  C7  UNL     1      29.705  10.452  49.053  1.00  0.00     0.238 A 
HETATM    4  N3  UNL     1      28.454   9.908  49.061  1.00  0.00    -0.215 NA
HETATM    5  C8  UNL     1      28.291   8.568  48.962  1.00  0.00     0.202 A 
HETATM    6  C9  UNL     1      29.432   7.767  48.852  1.00  0.00     0.130 A 
HETATM    7  N4  UNL     1      29.439   6.338  48.737  1.00  0.00    -0.379 N 
HETATM    8  C10 UNL     1      28.446   5.418  48.228  1.00  0.00     0.161 C 
HETATM    9  C11 UNL     1      27.147   5.662  48.904  1.00  0.00    -0.007 A 
HETATM   10  C12 UNL     1      26.579   4.424  49.214  1.00  0.00     0.011 A 
HETATM   11  C13 UNL     1      25.364   4.365  49.850  1.00  0.00     0.001 A 
HETATM   12  C14 UNL     1      24.719   5.545  50.174  1.00  0.00     0.003 A 
HETATM   13  C15 UNL     1      25.307   6.743  49.854  1.00  0.00     0.038 A 
HETATM   14  C16 UNL     1      26.532   6.858  49.212  1.00  0.00     0.086 A 
HETATM   15  O1  UNL     1      26.939   8.175  48.986  1.00  0.00    -0.289 OA
HETATM   16  H6  UNL     1      30.342   5.939  49.100  1.00  0.00     0.160 HD
ENDROOT
BRANCH   1  17
HETATM   17  N1  UNL     1      31.836   7.461  48.727  1.00  0.00    -0.239 NA
HETATM   18  C5  UNL     1      32.628   7.590  47.701  1.00  0.00     0.122 C 
BRANCH  18  19
HETATM   19  C4  UNL     1      33.735   6.655  47.718  1.00  0.00     0.063 C 
HETATM   20  C3  UNL     1      33.475   5.533  47.090  1.00  0.00     0.135 C 
HETATM   21  F1  UNL     1      32.330   5.173  46.455  1.00  0.00    -0.205 F 
BRANCH  20  22
HETATM   22  C2  UNL     1      34.375   4.385  46.924  1.00  0.00     0.050 C 
HETATM   23  C1  UNL     1      34.874   3.437  47.706  1.00  0.00     0.060 C 
HETATM   24 CL1  UNL     1      35.260   3.679  45.579  1.00  0.00    -0.086 Cl
ENDBRANCH  20  22
ENDBRANCH  18  19
ENDBRANCH   1  17
TORSDOF 3
ENDMDL
MODEL 9
REMARK VINA RESULT:      -7.3      6.177      8.913
REMARK  3 active torsions:
REMARK  status: ('A' for Active; 'I' for Inactive)
REMARK    1  A    between atoms: C2_2  and  C3_4 
REMARK    2  A    between atoms: C4_6  and  C5_7 
REMARK    3  A    between atoms: N1_8  and  C6_9 
ROOT
HETATM    1  C6  UNL     1      28.429   5.985  48.106  1.00  0.00     0.181 A 
HETATM    2  N2  UNL     1      28.405   7.184  47.468  1.00  0.00    -0.220 NA
HETATM    3  C7  UNL     1      27.315   7.972  47.433  1.00  0.00     0.238 A 
HETATM    4  N3  UNL     1      26.164   7.584  48.053  1.00  0.00    -0.215 NA
HETATM    5  C8  UNL     1      26.107   6.402  48.711  1.00  0.00     0.202 A 
HETATM    6  C9  UNL     1      27.252   5.600  48.734  1.00  0.00     0.130 A 
HETATM    7  N4  UNL     1      27.364   4.325  49.381  1.00  0.00    -0.379 N 
HETATM    8  C10 UNL     1      26.365   3.331  49.707  1.00  0.00     0.161 C 
HETATM    9  C11 UNL     1      25.263   3.966  50.474  1.00  0.00    -0.007 A 
HETATM   10  C12 UNL     1      24.911   3.108  51.519  1.00  0.00     0.011 A 
HETATM   11  C13 UNL     1      23.908   3.459  52.389  1.00  0.00     0.001 A 
HETATM   12  C14 UNL     1      23.259   4.667  52.210  1.00  0.00     0.003 A 
HETATM   13  C15 UNL     1      23.632   5.485  51.173  1.00  0.00     0.038 A 
HETATM   14  C16 UNL     1      24.638   5.178  50.267  1.00  0.00     0.086 A 
HETATM   15  O1  UNL     1      24.848   6.156  49.292  1.00  0.00    -0.289 OA
HETATM   16  H6  UNL     1      28.362   4.126  49.643  1.00  0.00     0.160 HD
ENDROOT
BRANCH   1  17
HETATM   17  N1  UNL     1      29.563   5.141  48.155  1.00  0.00    -0.239 NA
HETATM   18  C5  UNL     1      30.702   5.578  47.696  1.00  0.00     0.122 C 
BRANCH  18  19
HETATM   19  C4  UNL     1      31.770   4.606  47.812  1.00  0.00     0.063 C 
HETATM   20  C3  UNL     1      32.791   4.862  47.028  1.00  0.00     0.135 C 
HETATM   21  F1  UNL     1      32.942   5.895  46.160  1.00  0.00    -0.205 F 
BRANCH  20  22
HETATM   22  C2  UNL     1      34.027   4.080  46.904  1.00  0.00     0.050 C 
HETATM   23  C1  UNL     1      34.837   3.430  47.729  1.00  0.00     0.060 C 
HETATM   24 CL1  UNL     1      35.073   3.606  45.574  1.00  0.00    -0.086 Cl
ENDBRANCH  20  22
ENDBRANCH  18  19
ENDBRANCH   1  17
TORSDOF 3
ENDMDL
