MODEL 1
REMARK VINA RESULT:      -9.5      0.000      0.000
REMARK  3 active torsions:
REMARK  status: ('A' for Active; 'I' for Inactive)
REMARK    1  A    between atoms: O1_2  and  C2_3 
REMARK    2  A    between atoms: C8_11  and  N3_12 
REMARK    3  A    between atoms: N3_12  and  C9_13 
ROOT
HETATM    1  C2  UNL     1      23.309   2.695  50.638  1.00  0.00     0.126 C 
HETATM    2  C3  UNL     1      23.500   2.230  51.842  1.00  0.00     0.086 A 
HETATM    3  C4  UNL     1      23.346   1.460  53.009  1.00  0.00    -0.030 A 
HETATM    4  C5  UNL     1      22.633   0.313  53.492  1.00  0.00     0.033 A 
HETATM    5  C6  UNL     1      21.438   0.132  52.826  1.00  0.00     0.133 A 
HETATM    6  N1  UNL     1      20.653  -0.915  53.174  1.00  0.00    -0.253 NA
HETATM    7  C7  UNL     1      21.063  -1.749  54.161  1.00  0.00     0.234 A 
HETATM    8  N2  UNL     1      22.225  -1.551  54.787  1.00  0.00    -0.224 NA
HETATM    9  C8  UNL     1      23.009  -0.534  54.459  1.00  0.00     0.141 A 
HETATM   10  C15 UNL     1      24.299   2.275  53.380  1.00  0.00     0.138 A 
HETATM   11  N4  UNL     1      24.938   3.309  52.714  1.00  0.00    -0.325 N 
HETATM   12  N5  UNL     1      24.245   4.432  53.212  1.00  0.00    -0.118 NA
HETATM   13  O2  UNL     1      23.032   4.665  52.720  1.00  0.00    -0.287 OA
HETATM   14  C16 UNL     1      22.963   5.800  51.958  1.00  0.00     0.197 C 
HETATM   15  C17 UNL     1      22.022   5.930  50.825  1.00  0.00     0.048 C 
HETATM   16  C18 UNL     1      22.059   5.155  49.596  1.00  0.00     0.119 C 
HETATM   17  N6  UNL     1      21.716   3.871  49.326  1.00  0.00    -0.401 N 
HETATM   18  C19 UNL     1      20.671   3.650  48.352  1.00  0.00     0.143 C 
HETATM   19  C20 UNL     1      21.095   2.630  47.343  1.00  0.00     0.187 C 
HETATM   20  O3  UNL     1      21.253   1.356  47.911  1.00  0.00    -0.387 OA
HETATM   21  C21 UNL     1      21.657   1.476  49.247  1.00  0.00     0.195 C 
HETATM   22  C22 UNL     1      22.568   2.724  49.376  1.00  0.00     0.141 C 
HETATM   23  H13 UNL     1      25.534   2.587  52.262  1.00  0.00     0.177 HD
HETATM   24  H14 UNL     1      24.828   5.272  53.255  1.00  0.00     0.180 HD
ENDROOT
BRANCH   1  25
HETATM   25  O1  UNL     1      24.182   3.697  50.224  1.00  0.00    -0.379 OA
HETATM   26  C1  UNL     1      25.317   3.555  49.441  1.00  0.00     0.202 C 
ENDBRANCH   1  25
BRANCH   9  27
HETATM   27  N3  UNL     1      24.288  -0.427  55.023  1.00  0.00    -0.340 N 
HETATM   28  H7  UNL     1      24.446  -0.173  56.015  1.00  0.00     0.167 HD
BRANCH  27  29
HETATM   29  C9  UNL     1      25.583  -0.543  54.471  1.00  0.00     0.033 A 
HETATM   30  C10 UNL     1      26.010  -1.145  53.338  1.00  0.00     0.031 A 
HETATM   31  C11 UNL     1      27.281  -1.216  52.850  1.00  0.00     0.026 A 
HETATM   32  C12 UNL     1      28.249  -0.597  53.607  1.00  0.00     0.034 A 
HETATM   33 CL1  UNL     1      29.896  -0.680  52.989  1.00  0.00    -0.084 Cl
HETATM   34  C13 UNL     1      27.915   0.057  54.799  1.00  0.00     0.026 A 
HETATM   35  C14 UNL     1      26.588   0.080  55.223  1.00  0.00     0.031 A 
ENDBRANCH  27  29
ENDBRANCH   9  27
TORSDOF 3
ENDMDL
MODEL 2
REMARK VINA RESULT:      -9.1      1.858      2.220
REMARK  3 active torsions:
REMARK  status: ('A' for Active; 'I' for Inactive)
REMARK    1  A    between atoms: O1_2  and  C2_3 
REMARK    2  A    between atoms: C8_11  and  N3_12 
REMARK    3  A    between atoms: N3_12  and  C9_13 
ROOT
HETATM    1  C2  UNL     1      23.340   4.631  49.199  1.00  0.00     0.126 C 
HETATM    2  C3  UNL     1      23.423   4.067  50.373  1.00  0.00     0.086 A 
HETATM    3  C4  UNL     1      23.231   3.153  51.424  1.00  0.00    -0.030 A 
HETATM    4  C5  UNL     1      22.666   1.858  51.676  1.00  0.00     0.033 A 
HETATM    5  C6  UNL     1      21.638   1.567  50.802  1.00  0.00     0.133 A 
HETATM    6  N1  UNL     1      21.007   0.375  50.919  1.00  0.00    -0.253 NA
HETATM    7  C7  UNL     1      21.401  -0.492  51.884  1.00  0.00     0.234 A 
HETATM    8  N2  UNL     1      22.400  -0.183  52.714  1.00  0.00    -0.224 NA
HETATM    9  C8  UNL     1      23.033   0.977  52.615  1.00  0.00     0.141 A 
HETATM   10  C15 UNL     1      23.957   4.061  52.022  1.00  0.00     0.138 A 
HETATM   11  N4  UNL     1      24.497   5.254  51.568  1.00  0.00    -0.325 N 
HETATM   12  N5  UNL     1      23.549   6.186  52.037  1.00  0.00    -0.118 NA
HETATM   13  O2  UNL     1      22.404   6.278  51.368  1.00  0.00    -0.287 OA
HETATM   14  C16 UNL     1      22.253   7.468  50.708  1.00  0.00     0.197 C 
HETATM   15  C17 UNL     1      21.489   7.575  49.447  1.00  0.00     0.048 C 
HETATM   16  C18 UNL     1      21.850   6.963  48.178  1.00  0.00     0.119 C 
HETATM   17  N6  UNL     1      21.784   5.680  47.742  1.00  0.00    -0.401 N 
HETATM   18  C19 UNL     1      20.956   5.409  46.590  1.00  0.00     0.143 C 
HETATM   19  C20 UNL     1      21.703   4.593  45.582  1.00  0.00     0.187 C 
HETATM   20  O3  UNL     1      21.995   3.305  46.055  1.00  0.00    -0.387 OA
HETATM   21  C21 UNL     1      22.163   3.332  47.445  1.00  0.00     0.195 C 
HETATM   22  C22 UNL     1      22.808   4.687  47.836  1.00  0.00     0.141 C 
HETATM   23  H13 UNL     1      25.274   4.693  51.162  1.00  0.00     0.177 HD
HETATM   24  H14 UNL     1      23.961   7.098  52.253  1.00  0.00     0.180 HD
ENDROOT
BRANCH   1  25
HETATM   25  O1  UNL     1      24.075   5.801  49.029  1.00  0.00    -0.379 OA
HETATM   26  C1  UNL     1      25.386   5.916  48.590  1.00  0.00     0.202 C 
ENDBRANCH   1  25
BRANCH   9  27
HETATM   27  N3  UNL     1      24.171   1.221  53.395  1.00  0.00    -0.340 N 
HETATM   28  H7  UNL     1      24.200   1.945  54.136  1.00  0.00     0.167 HD
BRANCH  27  29
HETATM   29  C9  UNL     1      25.477   0.682  53.368  1.00  0.00     0.033 A 
HETATM   30  C10 UNL     1      25.922  -0.534  52.978  1.00  0.00     0.031 A 
HETATM   31  C11 UNL     1      27.205  -0.996  52.966  1.00  0.00     0.026 A 
HETATM   32  C12 UNL     1      28.165  -0.114  53.406  1.00  0.00     0.034 A 
HETATM   33 CL1  UNL     1      29.826  -0.697  53.396  1.00  0.00    -0.084 Cl
HETATM   34  C13 UNL     1      27.811   1.172  53.833  1.00  0.00     0.026 A 
HETATM   35  C14 UNL     1      26.474   1.561  53.812  1.00  0.00     0.031 A 
ENDBRANCH  27  29
ENDBRANCH   9  27
TORSDOF 3
ENDMDL
MODEL 3
REMARK VINA RESULT:      -9.0      1.648      2.065
REMARK  3 active torsions:
REMARK  status: ('A' for Active; 'I' for Inactive)
REMARK    1  A    between atoms: O1_2  and  C2_3 
REMARK    2  A    between atoms: C8_11  and  N3_12 
REMARK    3  A    between atoms: N3_12  and  C9_13 
ROOT
HETATM    1  C2  UNL     1      21.811   3.096  50.186  1.00  0.00     0.126 C 
HETATM    2  C3  UNL     1      22.596   2.389  50.952  1.00  0.00     0.086 A 
HETATM    3  C4  UNL     1      23.028   1.517  51.968  1.00  0.00    -0.030 A 
HETATM    4  C5  UNL     1      22.502   0.599  52.937  1.00  0.00     0.033 A 
HETATM    5  C6  UNL     1      21.223   0.941  53.327  1.00  0.00     0.133 A 
HETATM    6  N1  UNL     1      20.595   0.164  54.240  1.00  0.00    -0.253 NA
HETATM    7  C7  UNL     1      21.237  -0.920  54.742  1.00  0.00     0.234 A 
HETATM    8  N2  UNL     1      22.474  -1.227  54.344  1.00  0.00    -0.224 NA
HETATM    9  C8  UNL     1      23.105  -0.481  53.449  1.00  0.00     0.141 A 
HETATM   10  C15 UNL     1      24.176   1.896  51.468  1.00  0.00     0.138 A 
HETATM   11  N4  UNL     1      24.488   2.765  50.435  1.00  0.00    -0.325 N 
HETATM   12  N5  UNL     1      24.790   3.945  51.145  1.00  0.00    -0.118 NA
HETATM   13  O2  UNL     1      23.767   4.646  51.624  1.00  0.00    -0.287 OA
HETATM   14  C16 UNL     1      23.602   5.857  51.008  1.00  0.00     0.197 C 
HETATM   15  C17 UNL     1      22.272   6.487  50.857  1.00  0.00     0.048 C 
HETATM   16  C18 UNL     1      21.175   5.973  50.053  1.00  0.00     0.119 C 
HETATM   17  N6  UNL     1      20.316   4.941  50.248  1.00  0.00    -0.401 N 
HETATM   18  C19 UNL     1      18.907   5.251  50.321  1.00  0.00     0.143 C 
HETATM   19  C20 UNL     1      18.120   4.344  49.429  1.00  0.00     0.187 C 
HETATM   20  O3  UNL     1      18.159   3.010  49.861  1.00  0.00    -0.387 OA
HETATM   21  C21 UNL     1      19.376   2.752  50.503  1.00  0.00     0.195 C 
HETATM   22  C22 UNL     1      20.484   3.590  49.814  1.00  0.00     0.141 C 
HETATM   23  H13 UNL     1      24.299   1.980  49.780  1.00  0.00     0.177 HD
HETATM   24  H14 UNL     1      25.488   4.527  50.671  1.00  0.00     0.180 HD
ENDROOT
BRANCH   1  25
HETATM   25  O1  UNL     1      22.434   3.814  49.169  1.00  0.00    -0.379 OA
HETATM   26  C1  UNL     1      22.454   3.514  47.816  1.00  0.00     0.202 C 
ENDBRANCH   1  25
BRANCH   9  27
HETATM   27  N3  UNL     1      24.341  -0.900  52.936  1.00  0.00    -0.340 N 
HETATM   28  H7  UNL     1      24.425  -1.603  52.179  1.00  0.00     0.167 HD
BRANCH  27  29
HETATM   29  C9  UNL     1      25.673  -0.595  53.293  1.00  0.00     0.033 A 
HETATM   30  C10 UNL     1      26.167   0.305  54.174  1.00  0.00     0.031 A 
HETATM   31  C11 UNL     1      27.471   0.549  54.485  1.00  0.00     0.026 A 
HETATM   32  C12 UNL     1      28.401  -0.217  53.817  1.00  0.00     0.034 A 
HETATM   33 CL1  UNL     1      30.090   0.087  54.209  1.00  0.00    -0.084 Cl
HETATM   34  C13 UNL     1      27.996  -1.179  52.884  1.00  0.00     0.026 A 
HETATM   35  C14 UNL     1      26.639  -1.361  52.628  1.00  0.00     0.031 A 
ENDBRANCH  27  29
ENDBRANCH   9  27
TORSDOF 3
ENDMDL
MODEL 4
REMARK VINA RESULT:      -8.8      3.872      6.565
REMARK  3 active torsions:
REMARK  status: ('A' for Active; 'I' for Inactive)
REMARK    1  A    between atoms: O1_2  and  C2_3 
REMARK    2  A    between atoms: C8_11  and  N3_12 
REMARK    3  A    between atoms: N3_12  and  C9_13 
ROOT
HETATM    1  C2  UNL     1      21.166   3.178  50.964  1.00  0.00     0.126 C 
HETATM    2  C3  UNL     1      20.564   2.085  51.344  1.00  0.00     0.086 A 
HETATM    3  C4  UNL     1      20.322   0.854  51.981  1.00  0.00    -0.030 A 
HETATM    4  C5  UNL     1      20.895  -0.013  52.970  1.00  0.00     0.033 A 
HETATM    5  C6  UNL     1      22.267   0.121  53.037  1.00  0.00     0.133 A 
HETATM    6  N1  UNL     1      22.949  -0.636  53.928  1.00  0.00    -0.253 NA
HETATM    7  C7  UNL     1      22.268  -1.497  54.724  1.00  0.00     0.234 A 
HETATM    8  N2  UNL     1      20.940  -1.604  54.637  1.00  0.00    -0.224 NA
HETATM    9  C8  UNL     1      20.254  -0.870  53.773  1.00  0.00     0.141 A 
HETATM   10  C15 UNL     1      19.225   0.985  51.280  1.00  0.00     0.138 A 
HETATM   11  N4  UNL     1      18.803   1.976  50.408  1.00  0.00    -0.325 N 
HETATM   12  N5  UNL     1      19.133   1.409  49.160  1.00  0.00    -0.118 NA
HETATM   13  O2  UNL     1      20.413   1.432  48.801  1.00  0.00    -0.287 OA
HETATM   14  C16 UNL     1      20.666   2.257  47.738  1.00  0.00     0.197 C 
HETATM   15  C17 UNL     1      21.958   2.955  47.575  1.00  0.00     0.048 C 
HETATM   16  C18 UNL     1      22.481   3.991  48.452  1.00  0.00     0.119 C 
HETATM   17  N6  UNL     1      23.025   3.935  49.693  1.00  0.00    -0.401 N 
HETATM   18  C19 UNL     1      24.384   4.402  49.848  1.00  0.00     0.143 C 
HETATM   19  C20 UNL     1      24.490   5.349  51.001  1.00  0.00     0.187 C 
HETATM   20  O3  UNL     1      24.245   4.717  52.230  1.00  0.00    -0.387 OA
HETATM   21  C21 UNL     1      23.340   3.663  52.054  1.00  0.00     0.195 C 
HETATM   22  C22 UNL     1      22.336   4.058  50.940  1.00  0.00     0.141 C 
HETATM   23  H13 UNL     1      18.505   2.518  51.244  1.00  0.00     0.177 HD
HETATM   24  H14 UNL     1      18.501   1.703  48.410  1.00  0.00     0.180 HD
ENDROOT
BRANCH   1  25
HETATM   25  O1  UNL     1      20.433   4.023  50.135  1.00  0.00    -0.379 OA
HETATM   26  C1  UNL     1      19.810   5.211  50.482  1.00  0.00     0.202 C 
ENDBRANCH   1  25
BRANCH   9  27
HETATM   27  N3  UNL     1      18.853  -0.888  53.800  1.00  0.00    -0.340 N 
HETATM   28  H7  UNL     1      18.287  -0.086  54.134  1.00  0.00     0.167 HD
BRANCH  27  29
HETATM   29  C9  UNL     1      17.907  -1.892  53.495  1.00  0.00     0.033 A 
HETATM   30  C10 UNL     1      17.873  -3.203  53.827  1.00  0.00     0.031 A 
HETATM   31  C11 UNL     1      16.923  -4.127  53.508  1.00  0.00     0.026 A 
HETATM   32  C12 UNL     1      15.867  -3.667  52.754  1.00  0.00     0.034 A 
HETATM   33 CL1  UNL     1      14.632  -4.849  52.335  1.00  0.00    -0.084 Cl
HETATM   34  C13 UNL     1      15.804  -2.326  52.357  1.00  0.00     0.026 A 
HETATM   35  C14 UNL     1      16.822  -1.449  52.728  1.00  0.00     0.031 A 
ENDBRANCH  27  29
ENDBRANCH   9  27
TORSDOF 3
ENDMDL
MODEL 5
REMARK VINA RESULT:      -8.7      7.559     10.657
REMARK  3 active torsions:
REMARK  status: ('A' for Active; 'I' for Inactive)
REMARK    1  A    between atoms: O1_2  and  C2_3 
REMARK    2  A    between atoms: C8_11  and  N3_12 
REMARK    3  A    between atoms: N3_12  and  C9_13 
ROOT
HETATM    1  C2  UNL     1      31.691   7.342  46.685  1.00  0.00     0.126 C 
HETATM    2  C3  UNL     1      30.694   6.833  47.355  1.00  0.00     0.086 A 
HETATM    3  C4  UNL     1      29.505   6.736  48.100  1.00  0.00    -0.030 A 
HETATM    4  C5  UNL     1      28.397   7.543  48.526  1.00  0.00     0.033 A 
HETATM    5  C6  UNL     1      28.745   8.873  48.642  1.00  0.00     0.133 A 
HETATM    6  N1  UNL     1      27.799   9.758  49.037  1.00  0.00    -0.253 NA
HETATM    7  C7  UNL     1      26.547   9.313  49.304  1.00  0.00     0.234 A 
HETATM    8  N2  UNL     1      26.239   8.020  49.181  1.00  0.00    -0.224 NA
HETATM    9  C8  UNL     1      27.149   7.138  48.794  1.00  0.00     0.141 A 
HETATM   10  C15 UNL     1      29.886   5.485  48.089  1.00  0.00     0.138 A 
HETATM   11  N4  UNL     1      30.993   4.865  47.531  1.00  0.00    -0.325 N 
HETATM   12  N5  UNL     1      31.848   4.765  48.647  1.00  0.00    -0.118 NA
HETATM   13  O2  UNL     1      32.477   5.870  49.033  1.00  0.00    -0.287 OA
HETATM   14  C16 UNL     1      33.831   5.824  48.835  1.00  0.00     0.197 C 
HETATM   15  C17 UNL     1      34.625   7.037  48.545  1.00  0.00     0.048 C 
HETATM   16  C18 UNL     1      34.519   7.856  47.348  1.00  0.00     0.119 C 
HETATM   17  N6  UNL     1      33.584   8.753  46.947  1.00  0.00    -0.401 N 
HETATM   18  C19 UNL     1      34.015  10.115  46.731  1.00  0.00     0.143 C 
HETATM   19  C20 UNL     1      33.531  10.620  45.408  1.00  0.00     0.187 C 
HETATM   20  O3  UNL     1      32.133  10.735  45.365  1.00  0.00    -0.387 OA
HETATM   21  C21 UNL     1      31.548   9.768  46.192  1.00  0.00     0.195 C 
HETATM   22  C22 UNL     1      32.426   8.490  46.151  1.00  0.00     0.141 C 
HETATM   23  H13 UNL     1      30.479   4.867  46.627  1.00  0.00     0.177 HD
HETATM   24  H14 UNL     1      32.464   3.948  48.604  1.00  0.00     0.180 HD
ENDROOT
BRANCH   1  25
HETATM   25  O1  UNL     1      32.614   6.432  46.177  1.00  0.00    -0.379 OA
HETATM   26  C1  UNL     1      32.778   6.048  44.855  1.00  0.00     0.202 C 
ENDBRANCH   1  25
BRANCH   9  27
HETATM   27  N3  UNL     1      26.772   5.815  48.528  1.00  0.00    -0.340 N 
HETATM   28  H7  UNL     1      26.946   5.353  47.617  1.00  0.00     0.167 HD
BRANCH  27  29
HETATM   29  C9  UNL     1      26.066   4.856  49.289  1.00  0.00     0.033 A 
HETATM   30  C10 UNL     1      24.775   4.823  49.690  1.00  0.00     0.031 A 
HETATM   31  C11 UNL     1      24.145   3.860  50.420  1.00  0.00     0.026 A 
HETATM   32  C12 UNL     1      24.921   2.786  50.793  1.00  0.00     0.034 A 
HETATM   33 CL1  UNL     1      24.120   1.532  51.735  1.00  0.00    -0.084 Cl
HETATM   34  C13 UNL     1      26.271   2.719  50.428  1.00  0.00     0.026 A 
HETATM   35  C14 UNL     1      26.834   3.752  49.681  1.00  0.00     0.031 A 
ENDBRANCH  27  29
ENDBRANCH   9  27
TORSDOF 3
ENDMDL
MODEL 6
REMARK VINA RESULT:      -8.3      4.699      6.553
REMARK  3 active torsions:
REMARK  status: ('A' for Active; 'I' for Inactive)
REMARK    1  A    between atoms: O1_2  and  C2_3 
REMARK    2  A    between atoms: C8_11  and  N3_12 
REMARK    3  A    between atoms: N3_12  and  C9_13 
ROOT
HETATM    1  C2  UNL     1      16.703   1.100  51.208  1.00  0.00     0.126 C 
HETATM    2  C3  UNL     1      17.989   1.324  51.209  1.00  0.00     0.086 A 
HETATM    3  C4  UNL     1      19.357   1.211  51.515  1.00  0.00    -0.030 A 
HETATM    4  C5  UNL     1      20.269   0.347  52.209  1.00  0.00     0.033 A 
HETATM    5  C6  UNL     1      19.650  -0.333  53.238  1.00  0.00     0.133 A 
HETATM    6  N1  UNL     1      20.386  -1.188  53.985  1.00  0.00    -0.253 NA
HETATM    7  C7  UNL     1      21.702  -1.351  53.701  1.00  0.00     0.234 A 
HETATM    8  N2  UNL     1      22.274  -0.681  52.698  1.00  0.00    -0.224 NA
HETATM    9  C8  UNL     1      21.569   0.159  51.953  1.00  0.00     0.141 A 
HETATM   10  C15 UNL     1      19.372   2.249  50.719  1.00  0.00     0.138 A 
HETATM   11  N4  UNL     1      18.353   2.913  50.054  1.00  0.00    -0.325 N 
HETATM   12  N5  UNL     1      18.121   4.003  50.919  1.00  0.00    -0.118 NA
HETATM   13  O2  UNL     1      17.437   3.760  52.033  1.00  0.00    -0.287 OA
HETATM   14  C16 UNL     1      16.200   4.347  52.051  1.00  0.00     0.197 C 
HETATM   15  C17 UNL     1      15.056   3.747  52.770  1.00  0.00     0.048 C 
HETATM   16  C18 UNL     1      14.410   2.487  52.439  1.00  0.00     0.119 C 
HETATM   17  N6  UNL     1      14.794   1.199  52.618  1.00  0.00    -0.401 N 
HETATM   18  C19 UNL     1      13.953   0.359  53.440  1.00  0.00     0.143 C 
HETATM   19  C20 UNL     1      13.666  -0.937  52.750  1.00  0.00     0.187 C 
HETATM   20  O3  UNL     1      14.819  -1.723  52.597  1.00  0.00    -0.387 OA
HETATM   21  C21 UNL     1      15.943  -0.899  52.462  1.00  0.00     0.195 C 
HETATM   22  C22 UNL     1      15.525   0.384  51.698  1.00  0.00     0.141 C 
HETATM   23  H13 UNL     1      18.409   2.173  49.327  1.00  0.00     0.177 HD
HETATM   24  H14 UNL     1      17.799   4.840  50.426  1.00  0.00     0.180 HD
ENDROOT
BRANCH   1  25
HETATM   25  O1  UNL     1      15.944   1.900  50.358  1.00  0.00    -0.379 OA
HETATM   26  C1  UNL     1      15.413   1.553  49.126  1.00  0.00     0.202 C 
ENDBRANCH   1  25
BRANCH   9  27
HETATM   27  N3  UNL     1      22.148   0.739  50.816  1.00  0.00    -0.340 N 
HETATM   28  H7  UNL     1      21.972   0.391  49.856  1.00  0.00     0.167 HD
BRANCH  27  29
HETATM   29  C9  UNL     1      23.083   1.785  50.652  1.00  0.00     0.033 A 
HETATM   30  C10 UNL     1      24.129   2.164  51.422  1.00  0.00     0.031 A 
HETATM   31  C11 UNL     1      25.007   3.184  51.206  1.00  0.00     0.026 A 
HETATM   32  C12 UNL     1      24.803   3.918  50.060  1.00  0.00     0.034 A 
HETATM   33 CL1  UNL     1      25.931   5.239  49.767  1.00  0.00    -0.084 Cl
HETATM   34  C13 UNL     1      23.750   3.609  49.191  1.00  0.00     0.026 A 
HETATM   35  C14 UNL     1      22.898   2.548  49.492  1.00  0.00     0.031 A 
ENDBRANCH  27  29
ENDBRANCH   9  27
TORSDOF 3
ENDMDL
MODEL 7
REMARK VINA RESULT:      -8.3      2.376      2.985
REMARK  3 active torsions:
REMARK  status: ('A' for Active; 'I' for Inactive)
REMARK    1  A    between atoms: O1_2  and  C2_3 
REMARK    2  A    between atoms: C8_11  and  N3_12 
REMARK    3  A    between atoms: N3_12  and  C9_13 
ROOT
HETATM    1  C2  UNL     1      22.221   5.036  49.438  1.00  0.00     0.126 C 
HETATM    2  C3  UNL     1      22.783   4.144  50.207  1.00  0.00     0.086 A 
HETATM    3  C4  UNL     1      22.947   3.141  51.179  1.00  0.00    -0.030 A 
HETATM    4  C5  UNL     1      22.169   2.276  52.019  1.00  0.00     0.033 A 
HETATM    5  C6  UNL     1      20.940   2.825  52.324  1.00  0.00     0.133 A 
HETATM    6  N1  UNL     1      20.093   2.121  53.111  1.00  0.00    -0.253 NA
HETATM    7  C7  UNL     1      20.475   0.905  53.573  1.00  0.00     0.234 A 
HETATM    8  N2  UNL     1      21.670   0.398  53.260  1.00  0.00    -0.224 NA
HETATM    9  C8  UNL     1      22.512   1.070  52.489  1.00  0.00     0.141 A 
HETATM   10  C15 UNL     1      24.188   3.330  50.814  1.00  0.00     0.138 A 
HETATM   11  N4  UNL     1      24.755   4.192  49.889  1.00  0.00    -0.325 N 
HETATM   12  N5  UNL     1      25.192   5.244  50.719  1.00  0.00    -0.118 NA
HETATM   13  O2  UNL     1      24.270   6.091  51.165  1.00  0.00    -0.287 OA
HETATM   14  C16 UNL     1      24.389   7.351  50.641  1.00  0.00     0.197 C 
HETATM   15  C17 UNL     1      23.217   8.227  50.429  1.00  0.00     0.048 C 
HETATM   16  C18 UNL     1      22.131   7.984  49.493  1.00  0.00     0.119 C 
HETATM   17  N6  UNL     1      21.085   7.121  49.526  1.00  0.00    -0.401 N 
HETATM   18  C19 UNL     1      19.755   7.684  49.503  1.00  0.00     0.143 C 
HETATM   19  C20 UNL     1      18.910   7.003  48.472  1.00  0.00     0.187 C 
HETATM   20  O3  UNL     1      18.664   5.659  48.792  1.00  0.00    -0.387 OA
HETATM   21  C21 UNL     1      19.744   5.135  49.513  1.00  0.00     0.195 C 
HETATM   22  C22 UNL     1      21.048   5.794  48.996  1.00  0.00     0.141 C 
HETATM   23  H13 UNL     1      24.493   3.502  49.156  1.00  0.00     0.177 HD
HETATM   24  H14 UNL     1      26.027   5.715  50.358  1.00  0.00     0.180 HD
ENDROOT
BRANCH   1  25
HETATM   25  O1  UNL     1      23.062   5.691  48.543  1.00  0.00    -0.379 OA
HETATM   26  C1  UNL     1      23.003   5.665  47.158  1.00  0.00     0.202 C 
ENDBRANCH   1  25
BRANCH   9  27
HETATM   27  N3  UNL     1      23.696   0.461  52.051  1.00  0.00    -0.340 N 
HETATM   28  H7  UNL     1      23.751  -0.101  51.182  1.00  0.00     0.167 HD
BRANCH  27  29
HETATM   29  C9  UNL     1      24.988   0.373  52.617  1.00  0.00     0.033 A 
HETATM   30  C10 UNL     1      26.206   0.604  52.078  1.00  0.00     0.031 A 
HETATM   31  C11 UNL     1      27.425   0.510  52.681  1.00  0.00     0.026 A 
HETATM   32  C12 UNL     1      27.411   0.134  54.005  1.00  0.00     0.034 A 
HETATM   33 CL1  UNL     1      28.979   0.010  54.798  1.00  0.00    -0.084 Cl
HETATM   34  C13 UNL     1      26.203  -0.128  54.661  1.00  0.00     0.026 A 
HETATM   35  C14 UNL     1      25.002  -0.008  53.965  1.00  0.00     0.031 A 
ENDBRANCH  27  29
ENDBRANCH   9  27
TORSDOF 3
ENDMDL
MODEL 8
REMARK VINA RESULT:      -8.2      4.761      7.881
REMARK  3 active torsions:
REMARK  status: ('A' for Active; 'I' for Inactive)
REMARK    1  A    between atoms: O1_2  and  C2_3 
REMARK    2  A    between atoms: C8_11  and  N3_12 
REMARK    3  A    between atoms: N3_12  and  C9_13 
ROOT
HETATM    1  C2  UNL     1      23.950   5.879  50.241  1.00  0.00     0.126 C 
HETATM    2  C3  UNL     1      25.153   5.684  49.774  1.00  0.00     0.086 A 
HETATM    3  C4  UNL     1      26.330   5.855  49.024  1.00  0.00    -0.030 A 
HETATM    4  C5  UNL     1      26.952   6.797  48.138  1.00  0.00     0.033 A 
HETATM    5  C6  UNL     1      26.021   7.551  47.454  1.00  0.00     0.133 A 
HETATM    6  N1  UNL     1      26.461   8.485  46.578  1.00  0.00    -0.253 NA
HETATM    7  C7  UNL     1      27.795   8.651  46.402  1.00  0.00     0.234 A 
HETATM    8  N2  UNL     1      28.673   7.908  47.080  1.00  0.00    -0.224 NA
HETATM    9  C8  UNL     1      28.263   6.990  47.943  1.00  0.00     0.141 A 
HETATM   10  C15 UNL     1      26.610   4.751  49.668  1.00  0.00     0.138 A 
HETATM   11  N4  UNL     1      25.879   4.008  50.582  1.00  0.00    -0.325 N 
HETATM   12  N5  UNL     1      25.350   2.994  49.756  1.00  0.00    -0.118 NA
HETATM   13  O2  UNL     1      24.325   3.319  48.976  1.00  0.00    -0.287 OA
HETATM   14  C16 UNL     1      23.153   2.709  49.334  1.00  0.00     0.197 C 
HETATM   15  C17 UNL     1      21.836   3.345  49.114  1.00  0.00     0.048 C 
HETATM   16  C18 UNL     1      21.358   4.555  49.762  1.00  0.00     0.119 C 
HETATM   17  N6  UNL     1      21.669   5.863  49.578  1.00  0.00    -0.401 N 
HETATM   18  C19 UNL     1      20.603   6.753  49.179  1.00  0.00     0.143 C 
HETATM   19  C20 UNL     1      20.585   7.977  50.039  1.00  0.00     0.187 C 
HETATM   20  O3  UNL     1      21.728   8.771  49.853  1.00  0.00    -0.387 OA
HETATM   21  C21 UNL     1      22.821   7.964  49.515  1.00  0.00     0.195 C 
HETATM   22  C22 UNL     1      22.681   6.609  50.257  1.00  0.00     0.141 C 
HETATM   23  H13 UNL     1      26.192   4.682  51.309  1.00  0.00     0.177 HD
HETATM   24  H14 UNL     1      25.212   2.109  50.253  1.00  0.00     0.180 HD
ENDROOT
BRANCH   1  25
HETATM   25  O1  UNL     1      23.525   4.990  51.225  1.00  0.00    -0.379 OA
HETATM   26  C1  UNL     1      23.438   5.222  52.589  1.00  0.00     0.202 C 
ENDBRANCH   1  25
BRANCH   9  27
HETATM   27  N3  UNL     1      29.195   6.325  48.752  1.00  0.00    -0.340 N 
HETATM   28  H7  UNL     1      29.034   6.139  49.759  1.00  0.00     0.167 HD
BRANCH  27  29
HETATM   29  C9  UNL     1      30.497   5.837  48.500  1.00  0.00     0.033 A 
HETATM   30  C10 UNL     1      30.934   4.896  47.632  1.00  0.00     0.031 A 
HETATM   31  C11 UNL     1      32.213   4.471  47.426  1.00  0.00     0.026 A 
HETATM   32  C12 UNL     1      33.178   5.076  48.199  1.00  0.00     0.034 A 
HETATM   33 CL1  UNL     1      34.835   4.537  47.944  1.00  0.00    -0.084 Cl
HETATM   34  C13 UNL     1      32.833   6.064  49.129  1.00  0.00     0.026 A 
HETATM   35  C14 UNL     1      31.498   6.437  49.274  1.00  0.00     0.031 A 
ENDBRANCH  27  29
ENDBRANCH   9  27
TORSDOF 3
ENDMDL
MODEL 9
REMARK VINA RESULT:      -8.1      7.434     10.432
REMARK  3 active torsions:
REMARK  status: ('A' for Active; 'I' for Inactive)
REMARK    1  A    between atoms: O1_2  and  C2_3 
REMARK    2  A    between atoms: C8_11  and  N3_12 
REMARK    3  A    between atoms: N3_12  and  C9_13 
ROOT
HETATM    1  C2  UNL     1      30.390   8.655  47.213  1.00  0.00     0.126 C 
HETATM    2  C3  UNL     1      29.177   8.591  47.690  1.00  0.00     0.086 A 
HETATM    3  C4  UNL     1      27.773   8.524  47.747  1.00  0.00    -0.030 A 
HETATM    4  C5  UNL     1      26.638   8.341  46.889  1.00  0.00     0.033 A 
HETATM    5  C6  UNL     1      26.889   8.775  45.604  1.00  0.00     0.133 A 
HETATM    6  N1  UNL     1      25.907   8.665  44.678  1.00  0.00    -0.253 NA
HETATM    7  C7  UNL     1      24.713   8.134  45.040  1.00  0.00     0.234 A 
HETATM    8  N2  UNL     1      24.499   7.720  46.291  1.00  0.00    -0.224 NA
HETATM    9  C8  UNL     1      25.448   7.817  47.211  1.00  0.00     0.141 A 
HETATM   10  C15 UNL     1      28.064   8.593  49.020  1.00  0.00     0.138 A 
HETATM   11  N4  UNL     1      29.278   8.688  49.683  1.00  0.00    -0.325 N 
HETATM   12  N5  UNL     1      29.349  10.073  49.937  1.00  0.00    -0.118 NA
HETATM   13  O2  UNL     1      29.674  10.863  48.919  1.00  0.00    -0.287 OA
HETATM   14  C16 UNL     1      30.901  11.455  49.059  1.00  0.00     0.197 C 
HETATM   15  C17 UNL     1      31.747  11.794  47.895  1.00  0.00     0.048 C 
HETATM   16  C18 UNL     1      32.356  10.841  46.980  1.00  0.00     0.119 C 
HETATM   17  N6  UNL     1      31.833  10.085  45.983  1.00  0.00    -0.401 N 
HETATM   18  C19 UNL     1      32.343  10.297  44.647  1.00  0.00     0.143 C 
HETATM   19  C20 UNL     1      32.704   8.995  44.005  1.00  0.00     0.187 C 
HETATM   20  O3  UNL     1      31.579   8.188  43.775  1.00  0.00    -0.387 OA
HETATM   21  C21 UNL     1      30.607   8.433  44.753  1.00  0.00     0.195 C 
HETATM   22  C22 UNL     1      31.323   8.754  46.090  1.00  0.00     0.141 C 
HETATM   23  H13 UNL     1      29.366   7.658  49.570  1.00  0.00     0.177 HD
HETATM   24  H14 UNL     1      29.862  10.294  50.795  1.00  0.00     0.180 HD
ENDROOT
BRANCH   1  25
HETATM   25  O1  UNL     1      31.417   8.657  48.152  1.00  0.00    -0.379 OA
HETATM   26  C1  UNL     1      32.241   7.597  48.501  1.00  0.00     0.202 C 
ENDBRANCH   1  25
BRANCH   9  27
HETATM   27  N3  UNL     1      25.257   7.243  48.476  1.00  0.00    -0.340 N 
HETATM   28  H7  UNL     1      24.822   7.755  49.265  1.00  0.00     0.167 HD
BRANCH  27  29
HETATM   29  C9  UNL     1      25.616   5.988  49.016  1.00  0.00     0.033 A 
HETATM   30  C10 UNL     1      26.678   5.190  48.765  1.00  0.00     0.031 A 
HETATM   31  C11 UNL     1      26.978   3.986  49.328  1.00  0.00     0.026 A 
HETATM   32  C12 UNL     1      26.086   3.526  50.271  1.00  0.00     0.034 A 
HETATM   33 CL1  UNL     1      26.460   1.971  51.008  1.00  0.00    -0.084 Cl
HETATM   34  C13 UNL     1      24.952   4.275  50.606  1.00  0.00     0.026 A 
HETATM   35  C14 UNL     1      24.724   5.498  49.979  1.00  0.00     0.031 A 
ENDBRANCH  27  29
ENDBRANCH   9  27
TORSDOF 3
ENDMDL
