MODEL 1
REMARK VINA RESULT:      -7.2      0.000      0.000
REMARK  9 active torsions:
REMARK  status: ('A' for Active; 'I' for Inactive)
REMARK    1  A    between atoms: C2_2  and  C3_4 
REMARK    2  A    between atoms: C3_4  and  N1_5 
REMARK    3  A    between atoms: C4_6  and  C5_7 
REMARK    4  A    between atoms: C5_7  and  C6_8 
REMARK    5  A    between atoms: C6_8  and  N2_9 
REMARK    6  A    between atoms: N2_9  and  C7_10 
REMARK    7  A    between atoms: C7_10  and  C8_11 
REMARK    8  A    between atoms: C8_11  and  N3_12 
REMARK    9  A    between atoms: C15_20  and  O2_21 
ROOT
HETATM    1  C7  UNL     1      23.723   2.134  50.907  1.00  0.00     0.045 C 
HETATM    2  C9  UNL     1      24.300   1.438  51.841  1.00  0.00    -0.003 C 
HETATM    3  C10 UNL     1      24.057   0.591  53.099  1.00  0.00     0.210 C 
HETATM    4  O1  UNL     1      25.157   0.371  53.889  1.00  0.00    -0.372 OA
HETATM    5  C11 UNL     1      26.120  -0.504  53.678  1.00  0.00     0.184 A 
HETATM    6  C12 UNL     1      26.435  -0.880  52.284  1.00  0.00     0.005 A 
HETATM    7  C13 UNL     1      26.603   0.480  52.310  1.00  0.00     0.056 A 
HETATM    8  C14 UNL     1      27.422   1.065  53.448  1.00  0.00     0.030 C 
HETATM    9  C15 UNL     1      27.585  -0.124  54.004  1.00  0.00     0.074 C 
HETATM   10  C17 UNL     1      25.819   1.559  51.536  1.00  0.00    -0.038 C 
HETATM   11  C18 UNL     1      26.560   2.354  50.834  1.00  0.00     0.021 C 
ENDROOT
BRANCH   1  12
HETATM   12  N2  UNL     1      24.167   2.873  49.782  1.00  0.00    -0.370 N 
HETATM   13  H8  UNL     1      24.590   2.493  48.926  1.00  0.00     0.164 HD
BRANCH  12  14
HETATM   14  C6  UNL     1      24.035   4.313  49.829  1.00  0.00     0.070 C 
BRANCH  14  15
HETATM   15  C5  UNL     1      24.237   5.613  49.884  1.00  0.00     0.061 C 
BRANCH  15  16
HETATM   16  C4  UNL     1      24.352   6.791  50.719  1.00  0.00     0.014 C 
HETATM   17  C3  UNL     1      25.593   7.074  50.291  1.00  0.00     0.040 C 
BRANCH  17  18
HETATM   18  C2  UNL     1      26.448   6.371  49.313  1.00  0.00     0.035 A 
HETATM   19  C1  UNL     1      27.101   6.732  48.194  1.00  0.00     0.155 A 
HETATM   20 CL1  UNL     1      27.323   5.062  48.552  1.00  0.00    -0.179 Cl
ENDBRANCH  17  18
BRANCH  17  21
HETATM   21  N1  UNL     1      26.403   8.188  50.719  1.00  0.00    -0.398 N 
HETATM   22  H3  UNL     1      26.035   8.271  51.709  1.00  0.00     0.156 HD
HETATM   23  H4  UNL     1      27.105   8.676  50.121  1.00  0.00     0.156 HD
ENDBRANCH  17  21
ENDBRANCH  15  16
ENDBRANCH  14  15
ENDBRANCH  12  14
ENDBRANCH   1  12
BRANCH   1  24
HETATM   24  C8  UNL     1      22.275   2.242  50.947  1.00  0.00     0.324 C 
BRANCH  24  25
HETATM   25  N3  UNL     1      21.574   1.162  50.311  1.00  0.00     0.083 N 
HETATM   26  H11 UNL     1      21.782   0.254  50.729  1.00  0.00     0.313 HD
HETATM   27  H12 UNL     1      20.568   1.427  50.237  1.00  0.00     0.313 HD
ENDBRANCH  24  25
ENDBRANCH   1  24
BRANCH   9  28
HETATM   28  O2  UNL     1      28.749  -0.570  54.583  1.00  0.00    -0.358 OA
HETATM   29  C16 UNL     1      29.866  -0.878  53.774  1.00  0.00     0.209 C 
ENDBRANCH   9  28
TORSDOF 9
ENDMDL
MODEL 2
REMARK VINA RESULT:      -7.2      3.623      7.235
REMARK  9 active torsions:
REMARK  status: ('A' for Active; 'I' for Inactive)
REMARK    1  A    between atoms: C2_2  and  C3_4 
REMARK    2  A    between atoms: C3_4  and  N1_5 
REMARK    3  A    between atoms: C4_6  and  C5_7 
REMARK    4  A    between atoms: C5_7  and  C6_8 
REMARK    5  A    between atoms: C6_8  and  N2_9 
REMARK    6  A    between atoms: N2_9  and  C7_10 
REMARK    7  A    between atoms: C7_10  and  C8_11 
REMARK    8  A    between atoms: C8_11  and  N3_12 
REMARK    9  A    between atoms: C15_20  and  O2_21 
ROOT
HETATM    1  C7  UNL     1      25.634   3.150  50.622  1.00  0.00     0.045 C 
HETATM    2  C9  UNL     1      24.355   3.292  50.440  1.00  0.00    -0.003 C 
HETATM    3  C10 UNL     1      23.267   3.596  49.399  1.00  0.00     0.210 C 
HETATM    4  O1  UNL     1      22.041   3.948  49.906  1.00  0.00    -0.372 OA
HETATM    5  C11 UNL     1      21.125   3.136  50.394  1.00  0.00     0.184 A 
HETATM    6  C12 UNL     1      21.567   1.870  51.016  1.00  0.00     0.005 A 
HETATM    7  C13 UNL     1      22.219   2.840  51.732  1.00  0.00     0.056 A 
HETATM    8  C14 UNL     1      21.397   4.018  52.226  1.00  0.00     0.030 C 
HETATM    9  C15 UNL     1      20.304   3.566  51.635  1.00  0.00     0.074 C 
HETATM   10  C17 UNL     1      23.735   3.090  51.850  1.00  0.00    -0.038 C 
HETATM   11  C18 UNL     1      24.177   3.120  53.066  1.00  0.00     0.021 C 
ENDROOT
BRANCH   1  12
HETATM   12  N2  UNL     1      26.467   2.855  51.730  1.00  0.00    -0.370 N 
HETATM   13  H8  UNL     1      26.878   3.530  52.386  1.00  0.00     0.164 HD
BRANCH  12  14
HETATM   14  C6  UNL     1      26.796   1.466  51.971  1.00  0.00     0.070 C 
BRANCH  14  15
HETATM   15  C5  UNL     1      26.892   0.239  52.438  1.00  0.00     0.061 C 
BRANCH  15  16
HETATM   16  C4  UNL     1      26.527  -1.153  52.280  1.00  0.00     0.014 C 
HETATM   17  C3  UNL     1      27.657  -1.600  52.853  1.00  0.00     0.040 C 
BRANCH  17  18
HETATM   18  C2  UNL     1      28.801  -0.853  53.413  1.00  0.00     0.035 A 
HETATM   19  C1  UNL     1      30.073  -1.161  53.724  1.00  0.00     0.155 A 
HETATM   20 CL1  UNL     1      29.714   0.489  54.067  1.00  0.00    -0.179 Cl
ENDBRANCH  17  18
BRANCH  17  21
HETATM   21  N1  UNL     1      28.015  -2.982  53.056  1.00  0.00    -0.398 N 
HETATM   22  H3  UNL     1      27.232  -3.245  53.719  1.00  0.00     0.156 HD
HETATM   23  H4  UNL     1      28.835  -3.454  52.615  1.00  0.00     0.156 HD
ENDBRANCH  17  21
ENDBRANCH  15  16
ENDBRANCH  14  15
ENDBRANCH  12  14
ENDBRANCH   1  12
BRANCH   1  24
HETATM   24  C8  UNL     1      26.500   3.323  49.468  1.00  0.00     0.324 C 
BRANCH  24  25
HETATM   25  N3  UNL     1      27.178   4.587  49.409  1.00  0.00     0.083 N 
HETATM   26  H11 UNL     1      28.191   4.498  49.489  1.00  0.00     0.313 HD
HETATM   27  H12 UNL     1      26.815   5.111  48.583  1.00  0.00     0.313 HD
ENDBRANCH  24  25
ENDBRANCH   1  24
BRANCH   9  28
HETATM   28  O2  UNL     1      19.042   3.605  52.177  1.00  0.00    -0.358 OA
HETATM   29  C16 UNL     1      17.940   3.118  51.438  1.00  0.00     0.209 C 
ENDBRANCH   9  28
TORSDOF 9
ENDMDL
MODEL 3
REMARK VINA RESULT:      -7.0      3.869      6.406
REMARK  9 active torsions:
REMARK  status: ('A' for Active; 'I' for Inactive)
REMARK    1  A    between atoms: C2_2  and  C3_4 
REMARK    2  A    between atoms: C3_4  and  N1_5 
REMARK    3  A    between atoms: C4_6  and  C5_7 
REMARK    4  A    between atoms: C5_7  and  C6_8 
REMARK    5  A    between atoms: C6_8  and  N2_9 
REMARK    6  A    between atoms: N2_9  and  C7_10 
REMARK    7  A    between atoms: C7_10  and  C8_11 
REMARK    8  A    between atoms: C8_11  and  N3_12 
REMARK    9  A    between atoms: C15_20  and  O2_21 
ROOT
HETATM    1  C7  UNL     1      22.901   1.850  52.460  1.00  0.00     0.045 C 
HETATM    2  C9  UNL     1      24.162   1.547  52.373  1.00  0.00    -0.003 C 
HETATM    3  C10 UNL     1      25.502   1.947  51.738  1.00  0.00     0.210 C 
HETATM    4  O1  UNL     1      26.485   0.989  51.771  1.00  0.00    -0.372 OA
HETATM    5  C11 UNL     1      27.247   0.673  52.799  1.00  0.00     0.184 A 
HETATM    6  C12 UNL     1      26.706   0.868  54.160  1.00  0.00     0.005 A 
HETATM    7  C13 UNL     1      25.807   0.024  53.561  1.00  0.00     0.056 A 
HETATM    8  C14 UNL     1      26.362  -1.178  52.817  1.00  0.00     0.030 C 
HETATM    9  C15 UNL     1      27.610  -0.810  53.055  1.00  0.00     0.074 C 
HETATM   10  C17 UNL     1      24.319   0.273  53.248  1.00  0.00    -0.038 C 
HETATM   11  C18 UNL     1      23.517  -0.622  53.729  1.00  0.00     0.021 C 
ENDROOT
BRANCH   1  12
HETATM   12  N2  UNL     1      21.781   1.313  53.143  1.00  0.00    -0.370 N 
HETATM   13  H8  UNL     1      21.748   1.013  54.125  1.00  0.00     0.164 HD
BRANCH  12  14
HETATM   14  C6  UNL     1      20.554   1.149  52.395  1.00  0.00     0.070 C 
BRANCH  14  15
HETATM   15  C5  UNL     1      19.617   0.794  51.541  1.00  0.00     0.061 C 
BRANCH  15  16
HETATM   16  C4  UNL     1      19.101   0.894  50.191  1.00  0.00     0.014 C 
HETATM   17  C3  UNL     1      18.018   0.148  50.462  1.00  0.00     0.040 C 
BRANCH  17  18
HETATM   18  C2  UNL     1      17.596  -0.498  51.721  1.00  0.00     0.035 A 
HETATM   19  C1  UNL     1      16.441  -0.568  52.409  1.00  0.00     0.155 A 
HETATM   20 CL1  UNL     1      17.706  -1.435  53.194  1.00  0.00    -0.179 Cl
ENDBRANCH  17  18
BRANCH  17  21
HETATM   21  N1  UNL     1      16.976  -0.204  49.528  1.00  0.00    -0.398 N 
HETATM   22  H3  UNL     1      17.191  -1.238  49.445  1.00  0.00     0.156 HD
HETATM   23  H4  UNL     1      16.284   0.468  49.130  1.00  0.00     0.156 HD
ENDBRANCH  17  21
ENDBRANCH  15  16
ENDBRANCH  14  15
ENDBRANCH  12  14
ENDBRANCH   1  12
BRANCH   1  24
HETATM   24  C8  UNL     1      22.433   2.999  51.704  1.00  0.00     0.324 C 
BRANCH  24  25
HETATM   25  N3  UNL     1      22.679   4.269  52.326  1.00  0.00     0.083 N 
HETATM   26  H11 UNL     1      22.037   4.465  53.095  1.00  0.00     0.313 HD
HETATM   27  H12 UNL     1      23.699   4.336  52.535  1.00  0.00     0.313 HD
ENDBRANCH  24  25
ENDBRANCH   1  24
BRANCH   9  28
HETATM   28  O2  UNL     1      28.634  -1.666  53.385  1.00  0.00    -0.358 OA
HETATM   29  C16 UNL     1      29.903  -1.148  53.730  1.00  0.00     0.209 C 
ENDBRANCH   9  28
TORSDOF 9
ENDMDL
MODEL 4
REMARK VINA RESULT:      -7.0      3.676      7.446
REMARK  9 active torsions:
REMARK  status: ('A' for Active; 'I' for Inactive)
REMARK    1  A    between atoms: C2_2  and  C3_4 
REMARK    2  A    between atoms: C3_4  and  N1_5 
REMARK    3  A    between atoms: C4_6  and  C5_7 
REMARK    4  A    between atoms: C5_7  and  C6_8 
REMARK    5  A    between atoms: C6_8  and  N2_9 
REMARK    6  A    between atoms: N2_9  and  C7_10 
REMARK    7  A    between atoms: C7_10  and  C8_11 
REMARK    8  A    between atoms: C8_11  and  N3_12 
REMARK    9  A    between atoms: C15_20  and  O2_21 
ROOT
HETATM    1  C7  UNL     1      24.829   2.537  51.041  1.00  0.00     0.045 C 
HETATM    2  C9  UNL     1      23.715   2.539  50.370  1.00  0.00    -0.003 C 
HETATM    3  C10 UNL     1      23.063   2.914  49.031  1.00  0.00     0.210 C 
HETATM    4  O1  UNL     1      21.692   2.972  49.033  1.00  0.00    -0.372 OA
HETATM    5  C11 UNL     1      20.857   1.953  48.974  1.00  0.00     0.184 A 
HETATM    6  C12 UNL     1      21.294   0.654  49.527  1.00  0.00     0.005 A 
HETATM    7  C13 UNL     1      21.401   1.520  50.584  1.00  0.00     0.056 A 
HETATM    8  C14 UNL     1      20.221   2.435  50.864  1.00  0.00     0.030 C 
HETATM    9  C15 UNL     1      19.557   1.979  49.815  1.00  0.00     0.074 C 
HETATM   10  C17 UNL     1      22.668   1.945  51.352  1.00  0.00    -0.038 C 
HETATM   11  C18 UNL     1      22.600   1.764  52.632  1.00  0.00     0.021 C 
ENDROOT
BRANCH   1  12
HETATM   12  N2  UNL     1      25.224   2.120  52.336  1.00  0.00    -0.370 N 
HETATM   13  H8  UNL     1      24.928   2.531  53.230  1.00  0.00     0.164 HD
BRANCH  12  14
HETATM   14  C6  UNL     1      26.153   1.014  52.431  1.00  0.00     0.070 C 
BRANCH  14  15
HETATM   15  C5  UNL     1      26.751  -0.157  52.390  1.00  0.00     0.061 C 
BRANCH  15  16
HETATM   16  C4  UNL     1      26.605  -1.594  52.284  1.00  0.00     0.014 C 
HETATM   17  C3  UNL     1      27.785  -1.841  52.876  1.00  0.00     0.040 C 
BRANCH  17  18
HETATM   18  C2  UNL     1      28.797  -0.908  53.410  1.00  0.00     0.035 A 
HETATM   19  C1  UNL     1      30.124  -0.968  53.619  1.00  0.00     0.155 A 
HETATM   20 CL1  UNL     1      29.472   0.556  54.091  1.00  0.00    -0.179 Cl
ENDBRANCH  17  18
BRANCH  17  21
HETATM   21  N1  UNL     1      28.348  -3.144  53.131  1.00  0.00    -0.398 N 
HETATM   22  H3  UNL     1      28.635  -2.989  54.140  1.00  0.00     0.156 HD
HETATM   23  H4  UNL     1      28.396  -3.918  52.433  1.00  0.00     0.156 HD
ENDBRANCH  17  21
ENDBRANCH  15  16
ENDBRANCH  14  15
ENDBRANCH  12  14
ENDBRANCH   1  12
BRANCH   1  24
HETATM   24  C8  UNL     1      26.007   3.080  50.386  1.00  0.00     0.324 C 
BRANCH  24  25
HETATM   25  N3  UNL     1      26.078   4.514  50.368  1.00  0.00     0.083 N 
HETATM   26  H11 UNL     1      26.058   4.900  49.424  1.00  0.00     0.313 HD
HETATM   27  H12 UNL     1      25.373   4.882  51.043  1.00  0.00     0.313 HD
ENDBRANCH  24  25
ENDBRANCH   1  24
BRANCH   9  28
HETATM   28  O2  UNL     1      18.207   1.723  49.787  1.00  0.00    -0.358 OA
HETATM   29  C16 UNL     1      17.733   0.411  50.011  1.00  0.00     0.209 C 
ENDBRANCH   9  28
TORSDOF 9
ENDMDL
MODEL 5
REMARK VINA RESULT:      -6.8      2.675      3.592
REMARK  9 active torsions:
REMARK  status: ('A' for Active; 'I' for Inactive)
REMARK    1  A    between atoms: C2_2  and  C3_4 
REMARK    2  A    between atoms: C3_4  and  N1_5 
REMARK    3  A    between atoms: C4_6  and  C5_7 
REMARK    4  A    between atoms: C5_7  and  C6_8 
REMARK    5  A    between atoms: C6_8  and  N2_9 
REMARK    6  A    between atoms: N2_9  and  C7_10 
REMARK    7  A    between atoms: C7_10  and  C8_11 
REMARK    8  A    between atoms: C8_11  and  N3_12 
REMARK    9  A    between atoms: C15_20  and  O2_21 
ROOT
HETATM    1  C7  UNL     1      22.451   0.666  53.179  1.00  0.00     0.045 C 
HETATM    2  C9  UNL     1      23.615   0.199  53.522  1.00  0.00    -0.003 C 
HETATM    3  C10 UNL     1      24.340  -0.961  54.221  1.00  0.00     0.210 C 
HETATM    4  O1  UNL     1      25.643  -0.719  54.577  1.00  0.00    -0.372 OA
HETATM    5  C11 UNL     1      26.697  -0.745  53.786  1.00  0.00     0.184 A 
HETATM    6  C12 UNL     1      26.511  -0.419  52.357  1.00  0.00     0.005 A 
HETATM    7  C13 UNL     1      26.052   0.692  53.015  1.00  0.00     0.056 A 
HETATM    8  C14 UNL     1      26.928   1.267  54.116  1.00  0.00     0.030 C 
HETATM    9  C15 UNL     1      27.821   0.302  53.974  1.00  0.00     0.074 C 
HETATM   10  C17 UNL     1      24.626   1.275  53.036  1.00  0.00    -0.038 C 
HETATM   11  C18 UNL     1      24.554   2.520  52.690  1.00  0.00     0.021 C 
ENDROOT
BRANCH   1  12
HETATM   12  N2  UNL     1      21.989   1.822  52.502  1.00  0.00    -0.370 N 
HETATM   13  H8  UNL     1      21.798   2.742  52.918  1.00  0.00     0.164 HD
BRANCH  12  14
HETATM   14  C6  UNL     1      21.740   1.713  51.081  1.00  0.00     0.070 C 
BRANCH  14  15
HETATM   15  C5  UNL     1      21.825   1.696  49.767  1.00  0.00     0.061 C 
BRANCH  15  16
HETATM   16  C4  UNL     1      21.120   1.720  48.503  1.00  0.00     0.014 C 
HETATM   17  C3  UNL     1      21.936   2.645  47.971  1.00  0.00     0.040 C 
BRANCH  17  18
HETATM   18  C2  UNL     1      23.109   3.329  48.552  1.00  0.00     0.035 A 
HETATM   19  C1  UNL     1      23.472   4.614  48.713  1.00  0.00     0.155 A 
HETATM   20 CL1  UNL     1      24.662   3.532  49.332  1.00  0.00    -0.179 Cl
ENDBRANCH  17  18
BRANCH  17  21
HETATM   21  N1  UNL     1      21.837   3.199  46.643  1.00  0.00    -0.398 N 
HETATM   22  H3  UNL     1      21.342   2.386  46.177  1.00  0.00     0.156 HD
HETATM   23  H4  UNL     1      22.193   4.139  46.363  1.00  0.00     0.156 HD
ENDBRANCH  17  21
ENDBRANCH  15  16
ENDBRANCH  14  15
ENDBRANCH  12  14
ENDBRANCH   1  12
BRANCH   1  24
HETATM   24  C8  UNL     1      21.281  -0.117  53.540  1.00  0.00     0.324 C 
BRANCH  24  25
HETATM   25  N3  UNL     1      20.833   0.061  54.892  1.00  0.00     0.083 N 
HETATM   26  H11 UNL     1      19.851  -0.187  55.020  1.00  0.00     0.313 HD
HETATM   27  H12 UNL     1      21.522  -0.400  55.526  1.00  0.00     0.313 HD
ENDBRANCH  24  25
ENDBRANCH   1  24
BRANCH   9  28
HETATM   28  O2  UNL     1      29.184   0.477  54.026  1.00  0.00    -0.358 OA
HETATM   29  C16 UNL     1      30.045  -0.545  53.567  1.00  0.00     0.209 C 
ENDBRANCH   9  28
TORSDOF 9
ENDMDL
MODEL 6
REMARK VINA RESULT:      -6.7      3.116      5.186
REMARK  9 active torsions:
REMARK  status: ('A' for Active; 'I' for Inactive)
REMARK    1  A    between atoms: C2_2  and  C3_4 
REMARK    2  A    between atoms: C3_4  and  N1_5 
REMARK    3  A    between atoms: C4_6  and  C5_7 
REMARK    4  A    between atoms: C5_7  and  C6_8 
REMARK    5  A    between atoms: C6_8  and  N2_9 
REMARK    6  A    between atoms: N2_9  and  C7_10 
REMARK    7  A    between atoms: C7_10  and  C8_11 
REMARK    8  A    between atoms: C8_11  and  N3_12 
REMARK    9  A    between atoms: C15_20  and  O2_21 
ROOT
HETATM    1  C7  UNL     1      24.476   1.989  52.775  1.00  0.00     0.045 C 
HETATM    2  C9  UNL     1      23.658   1.018  53.053  1.00  0.00    -0.003 C 
HETATM    3  C10 UNL     1      23.564  -0.443  53.518  1.00  0.00     0.210 C 
HETATM    4  O1  UNL     1      22.357  -1.059  53.300  1.00  0.00    -0.372 OA
HETATM    5  C11 UNL     1      21.260  -0.926  54.019  1.00  0.00     0.184 A 
HETATM    6  C12 UNL     1      21.038   0.350  54.731  1.00  0.00     0.005 A 
HETATM    7  C13 UNL     1      21.164   0.718  53.417  1.00  0.00     0.056 A 
HETATM    8  C14 UNL     1      20.362  -0.062  52.389  1.00  0.00     0.030 C 
HETATM    9  C15 UNL     1      19.883  -0.878  53.313  1.00  0.00     0.074 C 
HETATM   10  C17 UNL     1      22.247   1.603  52.768  1.00  0.00    -0.038 C 
HETATM   11  C18 UNL     1      21.782   2.610  52.102  1.00  0.00     0.021 C 
ENDROOT
BRANCH   1  12
HETATM   12  N2  UNL     1      24.336   3.330  52.338  1.00  0.00    -0.370 N 
HETATM   13  H8  UNL     1      23.891   4.099  52.853  1.00  0.00     0.164 HD
BRANCH  12  14
HETATM   14  C6  UNL     1      24.854   3.667  51.030  1.00  0.00     0.070 C 
BRANCH  14  15
HETATM   15  C5  UNL     1      25.607   3.980  49.996  1.00  0.00     0.061 C 
BRANCH  15  16
HETATM   16  C4  UNL     1      26.872   3.800  49.315  1.00  0.00     0.014 C 
HETATM   17  C3  UNL     1      26.967   5.096  48.974  1.00  0.00     0.040 C 
BRANCH  17  18
HETATM   18  C2  UNL     1      26.052   6.222  49.247  1.00  0.00     0.035 A 
HETATM   19  C1  UNL     1      26.204   7.475  49.715  1.00  0.00     0.155 A 
HETATM   20 CL1  UNL     1      24.555   7.122  49.359  1.00  0.00    -0.179 Cl
ENDBRANCH  17  18
BRANCH  17  21
HETATM   21  N1  UNL     1      28.043   5.699  48.226  1.00  0.00    -0.398 N 
HETATM   22  H3  UNL     1      27.473   6.065  47.412  1.00  0.00     0.156 HD
HETATM   23  H4  UNL     1      29.044   5.697  48.520  1.00  0.00     0.156 HD
ENDBRANCH  17  21
ENDBRANCH  15  16
ENDBRANCH  14  15
ENDBRANCH  12  14
ENDBRANCH   1  12
BRANCH   1  24
HETATM   24  C8  UNL     1      25.899   1.727  52.912  1.00  0.00     0.324 C 
BRANCH  24  25
HETATM   25  N3  UNL     1      26.537   2.423  53.994  1.00  0.00     0.083 N 
HETATM   26  H11 UNL     1      25.949   2.487  54.826  1.00  0.00     0.313 HD
HETATM   27  H12 UNL     1      27.490   2.020  54.120  1.00  0.00     0.313 HD
ENDBRANCH  24  25
ENDBRANCH   1  24
BRANCH   9  28
HETATM   28  O2  UNL     1      18.590  -1.343  53.360  1.00  0.00    -0.358 OA
HETATM   29  C16 UNL     1      17.577  -0.686  52.627  1.00  0.00     0.209 C 
ENDBRANCH   9  28
TORSDOF 9
ENDMDL
MODEL 7
REMARK VINA RESULT:      -6.7      4.190      6.528
REMARK  9 active torsions:
REMARK  status: ('A' for Active; 'I' for Inactive)
REMARK    1  A    between atoms: C2_2  and  C3_4 
REMARK    2  A    between atoms: C3_4  and  N1_5 
REMARK    3  A    between atoms: C4_6  and  C5_7 
REMARK    4  A    between atoms: C5_7  and  C6_8 
REMARK    5  A    between atoms: C6_8  and  N2_9 
REMARK    6  A    between atoms: N2_9  and  C7_10 
REMARK    7  A    between atoms: C7_10  and  C8_11 
REMARK    8  A    between atoms: C8_11  and  N3_12 
REMARK    9  A    between atoms: C15_20  and  O2_21 
ROOT
HETATM    1  C7  UNL     1      22.381   0.228  52.940  1.00  0.00     0.045 C 
HETATM    2  C9  UNL     1      23.585   0.005  53.375  1.00  0.00    -0.003 C 
HETATM    3  C10 UNL     1      24.416  -0.763  54.414  1.00  0.00     0.210 C 
HETATM    4  O1  UNL     1      25.700  -0.314  54.598  1.00  0.00    -0.372 OA
HETATM    5  C11 UNL     1      26.740  -0.554  53.823  1.00  0.00     0.184 A 
HETATM    6  C12 UNL     1      26.503  -0.789  52.383  1.00  0.00     0.005 A 
HETATM    7  C13 UNL     1      25.964   0.450  52.612  1.00  0.00     0.056 A 
HETATM    8  C14 UNL     1      26.807   1.450  53.386  1.00  0.00     0.030 C 
HETATM    9  C15 UNL     1      27.776   0.567  53.564  1.00  0.00     0.074 C 
HETATM   10  C17 UNL     1      24.495   0.896  52.484  1.00  0.00    -0.038 C 
HETATM   11  C18 UNL     1      24.314   1.919  51.712  1.00  0.00     0.021 C 
ENDROOT
BRANCH   1  12
HETATM   12  N2  UNL     1      21.814   1.019  51.910  1.00  0.00    -0.370 N 
HETATM   13  H8  UNL     1      22.289   1.748  51.363  1.00  0.00     0.164 HD
BRANCH  12  14
HETATM   14  C6  UNL     1      20.418   0.805  51.591  1.00  0.00     0.070 C 
BRANCH  14  15
HETATM   15  C5  UNL     1      19.271   0.487  51.029  1.00  0.00     0.061 C 
BRANCH  15  16
HETATM   16  C4  UNL     1      18.301   0.782  49.995  1.00  0.00     0.014 C 
HETATM   17  C3  UNL     1      17.325   0.083  50.596  1.00  0.00     0.040 C 
BRANCH  17  18
HETATM   18  C2  UNL     1      17.339  -0.679  51.861  1.00  0.00     0.035 A 
HETATM   19  C1  UNL     1      16.427  -0.953  52.812  1.00  0.00     0.155 A 
HETATM   20 CL1  UNL     1      17.956  -1.659  53.172  1.00  0.00    -0.179 Cl
ENDBRANCH  17  18
BRANCH  17  21
HETATM   21  N1  UNL     1      15.978  -0.084  50.107  1.00  0.00    -0.398 N 
HETATM   22  H3  UNL     1      15.844  -1.099  50.380  1.00  0.00     0.156 HD
HETATM   23  H4  UNL     1      15.419   0.662  49.640  1.00  0.00     0.156 HD
ENDBRANCH  17  21
ENDBRANCH  15  16
ENDBRANCH  14  15
ENDBRANCH  12  14
ENDBRANCH   1  12
BRANCH   1  24
HETATM   24  C8  UNL     1      21.287  -0.449  53.614  1.00  0.00     0.324 C 
BRANCH  24  25
HETATM   25  N3  UNL     1      20.950   0.088  54.902  1.00  0.00     0.083 N 
HETATM   26  H11 UNL     1      19.950   0.046  55.100  1.00  0.00     0.313 HD
HETATM   27  H12 UNL     1      21.589  -0.338  55.609  1.00  0.00     0.313 HD
ENDBRANCH  24  25
ENDBRANCH   1  24
BRANCH   9  28
HETATM   28  O2  UNL     1      29.120   0.846  53.486  1.00  0.00    -0.358 OA
HETATM   29  C16 UNL     1      30.061  -0.208  53.494  1.00  0.00     0.209 C 
ENDBRANCH   9  28
TORSDOF 9
ENDMDL
MODEL 8
REMARK VINA RESULT:      -6.6      3.875      7.718
REMARK  9 active torsions:
REMARK  status: ('A' for Active; 'I' for Inactive)
REMARK    1  A    between atoms: C2_2  and  C3_4 
REMARK    2  A    between atoms: C3_4  and  N1_5 
REMARK    3  A    between atoms: C4_6  and  C5_7 
REMARK    4  A    between atoms: C5_7  and  C6_8 
REMARK    5  A    between atoms: C6_8  and  N2_9 
REMARK    6  A    between atoms: N2_9  and  C7_10 
REMARK    7  A    between atoms: C7_10  and  C8_11 
REMARK    8  A    between atoms: C8_11  and  N3_12 
REMARK    9  A    between atoms: C15_20  and  O2_21 
ROOT
HETATM    1  C7  UNL     1      25.372   4.006  49.570  1.00  0.00     0.045 C 
HETATM    2  C9  UNL     1      25.273   5.265  49.263  1.00  0.00    -0.003 C 
HETATM    3  C10 UNL     1      24.298   6.443  49.120  1.00  0.00     0.210 C 
HETATM    4  O1  UNL     1      24.765   7.517  48.405  1.00  0.00    -0.372 OA
HETATM    5  C11 UNL     1      25.587   8.455  48.832  1.00  0.00     0.184 A 
HETATM    6  C12 UNL     1      26.562   8.107  49.886  1.00  0.00     0.005 A 
HETATM    7  C13 UNL     1      26.836   7.225  48.873  1.00  0.00     0.056 A 
HETATM    8  C14 UNL     1      26.968   7.789  47.469  1.00  0.00     0.030 C 
HETATM    9  C15 UNL     1      26.674   9.011  47.881  1.00  0.00     0.074 C 
HETATM   10  C17 UNL     1      26.718   5.689  48.880  1.00  0.00    -0.038 C 
HETATM   11  C18 UNL     1      27.802   5.069  48.539  1.00  0.00     0.021 C 
ENDROOT
BRANCH   1  12
HETATM   12  N2  UNL     1      26.431   3.066  49.638  1.00  0.00    -0.370 N 
HETATM   13  H8  UNL     1      27.130   2.876  48.909  1.00  0.00     0.164 HD
BRANCH  12  14
HETATM   14  C6  UNL     1      26.547   2.271  50.841  1.00  0.00     0.070 C 
BRANCH  14  15
HETATM   15  C5  UNL     1      26.602   1.303  51.731  1.00  0.00     0.061 C 
BRANCH  15  16
HETATM   16  C4  UNL     1      25.888   0.263  52.442  1.00  0.00     0.014 C 
HETATM   17  C3  UNL     1      26.718   0.300  53.497  1.00  0.00     0.040 C 
BRANCH  17  18
HETATM   18  C2  UNL     1      27.906   1.141  53.747  1.00  0.00     0.035 A 
HETATM   19  C1  UNL     1      29.142   0.916  54.229  1.00  0.00     0.155 A 
HETATM   20 CL1  UNL     1      28.910   2.572  53.815  1.00  0.00    -0.179 Cl
ENDBRANCH  17  18
BRANCH  17  21
HETATM   21  N1  UNL     1      26.622  -0.520  54.680  1.00  0.00    -0.398 N 
HETATM   22  H3  UNL     1      27.647  -0.771  54.774  1.00  0.00     0.156 HD
HETATM   23  H4  UNL     1      25.735  -0.724  55.191  1.00  0.00     0.156 HD
ENDBRANCH  17  21
ENDBRANCH  15  16
ENDBRANCH  14  15
ENDBRANCH  12  14
ENDBRANCH   1  12
BRANCH   1  24
HETATM   24  C8  UNL     1      24.153   3.308  49.942  1.00  0.00     0.324 C 
BRANCH  24  25
HETATM   25  N3  UNL     1      23.343   2.880  48.837  1.00  0.00     0.083 N 
HETATM   26  H11 UNL     1      23.172   1.874  48.836  1.00  0.00     0.313 HD
HETATM   27  H12 UNL     1      22.506   3.501  48.789  1.00  0.00     0.313 HD
ENDBRANCH  24  25
ENDBRANCH   1  24
BRANCH   9  28
HETATM   28  O2  UNL     1      27.285  10.160  47.438  1.00  0.00    -0.358 OA
HETATM   29  C16 UNL     1      26.854  11.418  47.914  1.00  0.00     0.209 C 
ENDBRANCH   9  28
TORSDOF 9
ENDMDL
MODEL 9
REMARK VINA RESULT:      -6.5      2.133      3.449
REMARK  9 active torsions:
REMARK  status: ('A' for Active; 'I' for Inactive)
REMARK    1  A    between atoms: C2_2  and  C3_4 
REMARK    2  A    between atoms: C3_4  and  N1_5 
REMARK    3  A    between atoms: C4_6  and  C5_7 
REMARK    4  A    between atoms: C5_7  and  C6_8 
REMARK    5  A    between atoms: C6_8  and  N2_9 
REMARK    6  A    between atoms: N2_9  and  C7_10 
REMARK    7  A    between atoms: C7_10  and  C8_11 
REMARK    8  A    between atoms: C8_11  and  N3_12 
REMARK    9  A    between atoms: C15_20  and  O2_21 
ROOT
HETATM    1  C7  UNL     1      24.422   5.450  50.264  1.00  0.00     0.045 C 
HETATM    2  C9  UNL     1      24.315   4.532  51.179  1.00  0.00    -0.003 C 
HETATM    3  C10 UNL     1      23.652   4.172  52.516  1.00  0.00     0.210 C 
HETATM    4  O1  UNL     1      24.215   3.120  53.195  1.00  0.00    -0.372 OA
HETATM    5  C11 UNL     1      24.046   1.837  52.946  1.00  0.00     0.184 A 
HETATM    6  C12 UNL     1      23.752   1.423  51.558  1.00  0.00     0.005 A 
HETATM    7  C13 UNL     1      24.945   2.090  51.462  1.00  0.00     0.056 A 
HETATM    8  C14 UNL     1      26.035   1.725  52.455  1.00  0.00     0.030 C 
HETATM    9  C15 UNL     1      25.245   0.867  53.079  1.00  0.00     0.074 C 
HETATM   10  C17 UNL     1      25.258   3.393  50.700  1.00  0.00    -0.038 C 
HETATM   11  C18 UNL     1      26.240   3.298  49.862  1.00  0.00     0.021 C 
ENDROOT
BRANCH   1  12
HETATM   12  N2  UNL     1      25.131   5.578  49.044  1.00  0.00    -0.370 N 
HETATM   13  H8  UNL     1      25.034   4.984  48.212  1.00  0.00     0.164 HD
BRANCH  12  14
HETATM   14  C6  UNL     1      26.109   6.640  48.946  1.00  0.00     0.070 C 
BRANCH  14  15
HETATM   15  C5  UNL     1      26.889   7.681  49.150  1.00  0.00     0.061 C 
BRANCH  15  16
HETATM   16  C4  UNL     1      27.195   8.825  49.983  1.00  0.00     0.014 C 
HETATM   17  C3  UNL     1      28.448   8.938  49.511  1.00  0.00     0.040 C 
BRANCH  17  18
HETATM   18  C2  UNL     1      29.161   8.131  48.501  1.00  0.00     0.035 A 
HETATM   19  C1  UNL     1      30.234   8.331  47.714  1.00  0.00     0.155 A 
HETATM   20 CL1  UNL     1      29.547   6.770  47.471  1.00  0.00    -0.179 Cl
ENDBRANCH  17  18
BRANCH  17  21
HETATM   21  N1  UNL     1      29.419   9.926  49.912  1.00  0.00    -0.398 N 
HETATM   22  H3  UNL     1      28.824  10.790  49.767  1.00  0.00     0.156 HD
HETATM   23  H4  UNL     1      30.389   9.710  50.230  1.00  0.00     0.156 HD
ENDBRANCH  17  21
ENDBRANCH  15  16
ENDBRANCH  14  15
ENDBRANCH  12  14
ENDBRANCH   1  12
BRANCH   1  24
HETATM   24  C8  UNL     1      23.670   6.678  50.456  1.00  0.00     0.324 C 
BRANCH  24  25
HETATM   25  N3  UNL     1      24.086   7.469  51.580  1.00  0.00     0.083 N 
HETATM   26  H11 UNL     1      23.456   7.385  52.378  1.00  0.00     0.313 HD
HETATM   27  H12 UNL     1      25.096   7.277  51.754  1.00  0.00     0.313 HD
ENDBRANCH  24  25
ENDBRANCH   1  24
BRANCH   9  28
HETATM   28  O2  UNL     1      25.638  -0.361  53.557  1.00  0.00    -0.358 OA
HETATM   29  C16 UNL     1      26.439  -1.207  52.758  1.00  0.00     0.209 C 
ENDBRANCH   9  28
TORSDOF 9
ENDMDL
