MODEL 1
REMARK VINA RESULT:      -7.7      0.000      0.000
REMARK  3 active torsions:
REMARK  status: ('A' for Active; 'I' for Inactive)
REMARK    1  A    between atoms: O1_2  and  C2_3 
REMARK    2  A    between atoms: C3_4  and  O2_5 
REMARK    3  A    between atoms: O2_5  and  C4_6 
ROOT
HETATM    1  C2  UNL     1      27.184   1.376  52.533  1.00  0.00     0.187 C 
HETATM    2  C3  UNL     1      26.562   2.223  51.450  1.00  0.00     0.086 C 
HETATM    3  C5  UNL     1      25.310   2.007  51.013  1.00  0.00     0.066 C 
HETATM    4  C6  UNL     1      24.382   1.428  51.978  1.00  0.00     0.055 C 
HETATM    5  C7  UNL     1      24.922   1.194  53.189  1.00  0.00     0.014 C 
HETATM    6  C8  UNL     1      26.140   0.345  52.911  1.00  0.00     0.080 C 
HETATM    7  C9  UNL     1      26.407  -0.342  54.189  1.00  0.00     0.246 C 
HETATM    8  N2  UNL     1      25.470  -0.865  54.898  1.00  0.00     0.034 NA
HETATM    9  C10 UNL     1      24.111  -0.835  54.534  1.00  0.00     0.728 C 
HETATM   10  C11 UNL     1      22.818  -1.038  54.457  1.00  0.00     0.131 C 
HETATM   11  F1  UNL     1      22.236  -1.925  55.346  1.00  0.00    -0.208 F 
HETATM   12  C12 UNL     1      22.006  -0.369  53.494  1.00  0.00     0.041 C 
HETATM   13  C13 UNL     1      21.412   0.313  52.568  1.00  0.00     0.022 C 
HETATM   14  C14 UNL     1      22.012   1.246  51.637  1.00  0.00     0.117 C 
HETATM   15  N3  UNL     1      23.096   0.954  52.224  1.00  0.00    -0.261 NA
ENDROOT
BRANCH   2  16
HETATM   16  O2  UNL     1      27.094   3.295  50.745  1.00  0.00    -0.306 OA
BRANCH  16  17
HETATM   17  C4  UNL     1      26.457   3.942  49.712  1.00  0.00     0.249 C 
HETATM   18  N1  UNL     1      27.545   4.520  49.345  1.00  0.00    -0.289 NA
HETATM   19  H6  UNL     1      27.544   5.172  48.519  1.00  0.00     0.188 HD
ENDBRANCH  16  17
ENDBRANCH   2  16
BRANCH   1  20
HETATM   20  O1  UNL     1      27.390   2.151  53.691  1.00  0.00    -0.383 OA
HETATM   21  C1  UNL     1      28.740   2.470  53.747  1.00  0.00     0.202 C 
ENDBRANCH   1  20
TORSDOF 3
ENDMDL
MODEL 2
REMARK VINA RESULT:      -7.0      2.539      4.109
REMARK  3 active torsions:
REMARK  status: ('A' for Active; 'I' for Inactive)
REMARK    1  A    between atoms: O1_2  and  C2_3 
REMARK    2  A    between atoms: C3_4  and  O2_5 
REMARK    3  A    between atoms: O2_5  and  C4_6 
ROOT
HETATM    1  C2  UNL     1      25.584   1.374  53.081  1.00  0.00     0.187 C 
HETATM    2  C3  UNL     1      25.757   0.010  53.703  1.00  0.00     0.086 C 
HETATM    3  C5  UNL     1      24.726  -0.656  54.248  1.00  0.00     0.066 C 
HETATM    4  C6  UNL     1      23.409  -0.376  53.686  1.00  0.00     0.055 C 
HETATM    5  C7  UNL     1      23.419   0.520  52.681  1.00  0.00     0.014 C 
HETATM    6  C8  UNL     1      24.122   1.730  53.250  1.00  0.00     0.080 C 
HETATM    7  C9  UNL     1      23.672   2.848  52.399  1.00  0.00     0.246 C 
HETATM    8  N2  UNL     1      22.445   2.990  52.041  1.00  0.00     0.034 NA
HETATM    9  C10 UNL     1      21.418   2.104  52.417  1.00  0.00     0.728 C 
HETATM   10  C11 UNL     1      20.258   1.533  52.637  1.00  0.00     0.131 C 
HETATM   11  F1  UNL     1      19.110   2.209  52.263  1.00  0.00    -0.208 F 
HETATM   12  C12 UNL     1      20.155   0.245  53.239  1.00  0.00     0.041 C 
HETATM   13  C13 UNL     1      20.231  -0.923  53.793  1.00  0.00     0.022 C 
HETATM   14  C14 UNL     1      21.428  -1.639  54.183  1.00  0.00     0.117 C 
HETATM   15  N3  UNL     1      22.039  -0.624  53.737  1.00  0.00    -0.261 NA
ENDROOT
BRANCH   2  16
HETATM   16  O2  UNL     1      26.900  -0.770  53.832  1.00  0.00    -0.306 OA
BRANCH  16  17
HETATM   17  C4  UNL     1      28.186  -0.293  53.731  1.00  0.00     0.249 C 
HETATM   18  N1  UNL     1      28.293  -0.183  55.006  1.00  0.00    -0.289 NA
HETATM   19  H6  UNL     1      29.186   0.174  55.432  1.00  0.00     0.188 HD
ENDBRANCH  16  17
ENDBRANCH   2  16
BRANCH   1  20
HETATM   20  O1  UNL     1      25.800   1.299  51.691  1.00  0.00    -0.383 OA
HETATM   21  C1  UNL     1      26.820   2.187  51.376  1.00  0.00     0.202 C 
ENDBRANCH   1  20
TORSDOF 3
ENDMDL
MODEL 3
REMARK VINA RESULT:      -7.0      1.809      3.591
REMARK  3 active torsions:
REMARK  status: ('A' for Active; 'I' for Inactive)
REMARK    1  A    between atoms: O1_2  and  C2_3 
REMARK    2  A    between atoms: C3_4  and  O2_5 
REMARK    3  A    between atoms: O2_5  and  C4_6 
ROOT
HETATM    1  C2  UNL     1      24.946   2.905  51.893  1.00  0.00     0.187 C 
HETATM    2  C3  UNL     1      26.071   2.150  52.559  1.00  0.00     0.086 C 
HETATM    3  C5  UNL     1      25.847   1.281  53.558  1.00  0.00     0.066 C 
HETATM    4  C6  UNL     1      24.550   0.613  53.552  1.00  0.00     0.055 C 
HETATM    5  C7  UNL     1      23.753   0.967  52.525  1.00  0.00     0.014 C 
HETATM    6  C8  UNL     1      23.677   2.474  52.598  1.00  0.00     0.080 C 
HETATM    7  C9  UNL     1      22.439   2.813  51.871  1.00  0.00     0.246 C 
HETATM    8  N2  UNL     1      21.345   2.156  52.030  1.00  0.00     0.034 NA
HETATM    9  C10 UNL     1      21.217   1.059  52.903  1.00  0.00     0.728 C 
HETATM   10  C11 UNL     1      20.757   0.083  53.648  1.00  0.00     0.131 C 
HETATM   11  F1  UNL     1      19.389  -0.124  53.693  1.00  0.00    -0.208 F 
HETATM   12  C12 UNL     1      21.625  -0.765  54.399  1.00  0.00     0.041 C 
HETATM   13  C13 UNL     1      22.539  -1.442  55.017  1.00  0.00     0.022 C 
HETATM   14  C14 UNL     1      23.972  -1.236  54.972  1.00  0.00     0.117 C 
HETATM   15  N3  UNL     1      23.692  -0.280  54.189  1.00  0.00    -0.261 NA
ENDROOT
BRANCH   2  16
HETATM   16  O2  UNL     1      27.437   2.188  52.308  1.00  0.00    -0.306 OA
BRANCH  16  17
HETATM   17  C4  UNL     1      28.408   1.869  53.228  1.00  0.00     0.249 C 
HETATM   18  N1  UNL     1      29.040   2.965  53.008  1.00  0.00    -0.289 NA
HETATM   19  H6  UNL     1      29.927   3.178  53.532  1.00  0.00     0.188 HD
ENDBRANCH  16  17
ENDBRANCH   2  16
BRANCH   1  20
HETATM   20  O1  UNL     1      24.804   2.478  50.559  1.00  0.00    -0.383 OA
HETATM   21  C1  UNL     1      25.402   3.433  49.748  1.00  0.00     0.202 C 
ENDBRANCH   1  20
TORSDOF 3
ENDMDL
MODEL 4
REMARK VINA RESULT:      -6.9      3.565      6.542
REMARK  3 active torsions:
REMARK  status: ('A' for Active; 'I' for Inactive)
REMARK    1  A    between atoms: O1_2  and  C2_3 
REMARK    2  A    between atoms: C3_4  and  O2_5 
REMARK    3  A    between atoms: O2_5  and  C4_6 
ROOT
HETATM    1  C2  UNL     1      20.718   0.871  51.756  1.00  0.00     0.187 C 
HETATM    2  C3  UNL     1      20.560  -0.135  52.871  1.00  0.00     0.086 C 
HETATM    3  C5  UNL     1      21.614  -0.787  53.391  1.00  0.00     0.066 C 
HETATM    4  C6  UNL     1      22.892  -0.086  53.343  1.00  0.00     0.055 C 
HETATM    5  C7  UNL     1      22.830   1.136  52.780  1.00  0.00     0.014 C 
HETATM    6  C8  UNL     1      22.196   0.905  51.428  1.00  0.00     0.080 C 
HETATM    7  C9  UNL     1      22.608   2.073  50.628  1.00  0.00     0.246 C 
HETATM    8  N2  UNL     1      23.809   2.533  50.648  1.00  0.00     0.034 NA
HETATM    9  C10 UNL     1      24.841   1.978  51.428  1.00  0.00     0.728 C 
HETATM   10  C11 UNL     1      26.001   1.672  51.957  1.00  0.00     0.131 C 
HETATM   11  F1  UNL     1      27.134   2.299  51.469  1.00  0.00    -0.208 F 
HETATM   12  C12 UNL     1      26.119   0.724  53.017  1.00  0.00     0.041 C 
HETATM   13  C13 UNL     1      26.057  -0.152  53.968  1.00  0.00     0.022 C 
HETATM   14  C14 UNL     1      24.876  -0.809  54.488  1.00  0.00     0.117 C 
HETATM   15  N3  UNL     1      24.256  -0.123  53.622  1.00  0.00    -0.261 NA
ENDROOT
BRANCH   2  16
HETATM   16  O2  UNL     1      19.413  -0.559  53.530  1.00  0.00    -0.306 OA
BRANCH  16  17
HETATM   17  C4  UNL     1      18.252  -0.947  52.904  1.00  0.00     0.249 C 
HETATM   18  N1  UNL     1      17.733  -1.338  54.012  1.00  0.00    -0.289 NA
HETATM   19  H6  UNL     1      16.763  -1.745  54.026  1.00  0.00     0.188 HD
ENDBRANCH  16  17
ENDBRANCH   2  16
BRANCH   1  20
HETATM   20  O1  UNL     1      20.402   2.161  52.225  1.00  0.00    -0.383 OA
HETATM   21  C1  UNL     1      19.140   2.483  51.745  1.00  0.00     0.202 C 
ENDBRANCH   1  20
TORSDOF 3
ENDMDL
MODEL 5
REMARK VINA RESULT:      -6.8      2.742      4.741
REMARK  3 active torsions:
REMARK  status: ('A' for Active; 'I' for Inactive)
REMARK    1  A    between atoms: O1_2  and  C2_3 
REMARK    2  A    between atoms: C3_4  and  O2_5 
REMARK    3  A    between atoms: O2_5  and  C4_6 
ROOT
HETATM    1  C2  UNL     1      25.192  -0.719  53.548  1.00  0.00     0.187 C 
HETATM    2  C3  UNL     1      26.598  -0.609  53.010  1.00  0.00     0.086 C 
HETATM    3  C5  UNL     1      26.899   0.183  51.968  1.00  0.00     0.066 C 
HETATM    4  C6  UNL     1      26.057   1.362  51.792  1.00  0.00     0.055 C 
HETATM    5  C7  UNL     1      25.088   1.490  52.718  1.00  0.00     0.014 C 
HETATM    6  C8  UNL     1      24.339   0.179  52.676  1.00  0.00     0.080 C 
HETATM    7  C9  UNL     1      23.017   0.495  53.249  1.00  0.00     0.246 C 
HETATM    8  N2  UNL     1      22.366   1.558  52.935  1.00  0.00     0.034 NA
HETATM    9  C10 UNL     1      22.843   2.520  52.025  1.00  0.00     0.728 C 
HETATM   10  C11 UNL     1      22.958   3.534  51.201  1.00  0.00     0.131 C 
HETATM   11  F1  UNL     1      21.848   4.330  50.977  1.00  0.00    -0.208 F 
HETATM   12  C12 UNL     1      24.187   3.836  50.544  1.00  0.00     0.041 C 
HETATM   13  C13 UNL     1      25.367   3.975  50.029  1.00  0.00     0.022 C 
HETATM   14  C14 UNL     1      26.534   3.150  50.261  1.00  0.00     0.117 C 
HETATM   15  N3  UNL     1      25.771   2.490  51.027  1.00  0.00    -0.261 NA
ENDROOT
BRANCH   2  16
HETATM   16  O2  UNL     1      27.763  -1.238  53.433  1.00  0.00    -0.306 OA
BRANCH  16  17
HETATM   17  C4  UNL     1      28.887  -0.581  53.876  1.00  0.00     0.249 C 
HETATM   18  N1  UNL     1      28.315  -0.255  54.980  1.00  0.00    -0.289 NA
HETATM   19  H6  UNL     1      28.838   0.305  55.700  1.00  0.00     0.188 HD
ENDBRANCH  16  17
ENDBRANCH   2  16
BRANCH   1  20
HETATM   20  O1  UNL     1      25.128  -0.167  54.842  1.00  0.00    -0.383 OA
HETATM   21  C1  UNL     1      24.843  -1.200  55.724  1.00  0.00     0.202 C 
ENDBRANCH   1  20
TORSDOF 3
ENDMDL
MODEL 6
REMARK VINA RESULT:      -6.7      2.248      4.209
REMARK  3 active torsions:
REMARK  status: ('A' for Active; 'I' for Inactive)
REMARK    1  A    between atoms: O1_2  and  C2_3 
REMARK    2  A    between atoms: C3_4  and  O2_5 
REMARK    3  A    between atoms: O2_5  and  C4_6 
ROOT
HETATM    1  C2  UNL     1      22.978   3.014  51.195  1.00  0.00     0.187 C 
HETATM    2  C3  UNL     1      24.266   2.636  51.885  1.00  0.00     0.086 C 
HETATM    3  C5  UNL     1      24.284   1.832  52.962  1.00  0.00     0.066 C 
HETATM    4  C6  UNL     1      23.203   0.857  53.055  1.00  0.00     0.055 C 
HETATM    5  C7  UNL     1      22.332   0.900  52.029  1.00  0.00     0.014 C 
HETATM    6  C8  UNL     1      21.870   2.337  51.976  1.00  0.00     0.080 C 
HETATM    7  C9  UNL     1      20.580   2.280  51.264  1.00  0.00     0.246 C 
HETATM    8  N2  UNL     1      19.694   1.382  51.514  1.00  0.00     0.034 NA
HETATM    9  C10 UNL     1      19.862   0.373  52.481  1.00  0.00     0.728 C 
HETATM   10  C11 UNL     1      19.677  -0.616  53.322  1.00  0.00     0.131 C 
HETATM   11  F1  UNL     1      18.409  -1.160  53.429  1.00  0.00    -0.208 F 
HETATM   12  C12 UNL     1      20.741  -1.141  54.113  1.00  0.00     0.041 C 
HETATM   13  C13 UNL     1      21.806  -1.501  54.756  1.00  0.00     0.022 C 
HETATM   14  C14 UNL     1      23.136  -0.941  54.646  1.00  0.00     0.117 C 
HETATM   15  N3  UNL     1      22.611  -0.164  53.795  1.00  0.00    -0.261 NA
ENDROOT
BRANCH   2  16
HETATM   16  O2  UNL     1      25.574   2.999  51.587  1.00  0.00    -0.306 OA
BRANCH  16  17
HETATM   17  C4  UNL     1      26.559   2.121  51.201  1.00  0.00     0.249 C 
HETATM   18  N1  UNL     1      27.474   2.837  51.748  1.00  0.00    -0.289 NA
HETATM   19  H6  UNL     1      28.480   2.533  51.705  1.00  0.00     0.188 HD
ENDBRANCH  16  17
ENDBRANCH   2  16
BRANCH   1  20
HETATM   20  O1  UNL     1      22.938   2.445  49.907  1.00  0.00    -0.383 OA
HETATM   21  C1  UNL     1      23.309   3.430  49.002  1.00  0.00     0.202 C 
ENDBRANCH   1  20
TORSDOF 3
ENDMDL
MODEL 7
REMARK VINA RESULT:      -6.7      2.935      5.025
REMARK  3 active torsions:
REMARK  status: ('A' for Active; 'I' for Inactive)
REMARK    1  A    between atoms: O1_2  and  C2_3 
REMARK    2  A    between atoms: C3_4  and  O2_5 
REMARK    3  A    between atoms: O2_5  and  C4_6 
ROOT
HETATM    1  C2  UNL     1      23.566   3.510  50.857  1.00  0.00     0.187 C 
HETATM    2  C3  UNL     1      22.363   2.843  51.479  1.00  0.00     0.086 C 
HETATM    3  C5  UNL     1      22.447   1.640  52.072  1.00  0.00     0.066 C 
HETATM    4  C6  UNL     1      23.738   1.303  52.664  1.00  0.00     0.055 C 
HETATM    5  C7  UNL     1      24.672   2.264  52.533  1.00  0.00     0.014 C 
HETATM    6  C8  UNL     1      24.723   2.552  51.050  1.00  0.00     0.080 C 
HETATM    7  C9  UNL     1      26.050   3.161  50.842  1.00  0.00     0.246 C 
HETATM    8  N2  UNL     1      27.116   2.696  51.392  1.00  0.00     0.034 NA
HETATM    9  C10 UNL     1      27.125   1.573  52.241  1.00  0.00     0.728 C 
HETATM   10  C11 UNL     1      27.481   0.555  52.988  1.00  0.00     0.131 C 
HETATM   11  F1  UNL     1      28.829   0.272  53.116  1.00  0.00    -0.208 F 
HETATM   12  C12 UNL     1      26.521  -0.252  53.667  1.00  0.00     0.041 C 
HETATM   13  C13 UNL     1      25.533  -0.884  54.215  1.00  0.00     0.022 C 
HETATM   14  C14 UNL     1      24.120  -0.592  54.089  1.00  0.00     0.117 C 
HETATM   15  N3  UNL     1      24.502   0.354  53.338  1.00  0.00    -0.261 NA
ENDROOT
BRANCH   2  16
HETATM   16  O2  UNL     1      21.047   3.281  51.563  1.00  0.00    -0.306 OA
BRANCH  16  17
HETATM   17  C4  UNL     1      20.079   2.699  52.347  1.00  0.00     0.249 C 
HETATM   18  N1  UNL     1      19.217   3.595  52.025  1.00  0.00    -0.289 NA
HETATM   19  H6  UNL     1      18.242   3.556  52.420  1.00  0.00     0.188 HD
ENDBRANCH  16  17
ENDBRANCH   2  16
BRANCH   1  20
HETATM   20  O1  UNL     1      23.904   4.667  51.586  1.00  0.00    -0.383 OA
HETATM   21  C1  UNL     1      23.411   5.760  50.888  1.00  0.00     0.202 C 
ENDBRANCH   1  20
TORSDOF 3
ENDMDL
MODEL 8
REMARK VINA RESULT:      -6.7      1.646      3.583
REMARK  3 active torsions:
REMARK  status: ('A' for Active; 'I' for Inactive)
REMARK    1  A    between atoms: O1_2  and  C2_3 
REMARK    2  A    between atoms: C3_4  and  O2_5 
REMARK    3  A    between atoms: O2_5  and  C4_6 
ROOT
HETATM    1  C2  UNL     1      24.129   3.457  50.633  1.00  0.00     0.187 C 
HETATM    2  C3  UNL     1      25.605   3.139  50.657  1.00  0.00     0.086 C 
HETATM    3  C5  UNL     1      26.150   2.377  51.619  1.00  0.00     0.066 C 
HETATM    4  C6  UNL     1      25.275   1.378  52.222  1.00  0.00     0.055 C 
HETATM    5  C7  UNL     1      24.028   1.360  51.715  1.00  0.00     0.014 C 
HETATM    6  C8  UNL     1      23.535   2.781  51.852  1.00  0.00     0.080 C 
HETATM    7  C9  UNL     1      22.065   2.664  51.819  1.00  0.00     0.246 C 
HETATM    8  N2  UNL     1      21.432   1.753  52.469  1.00  0.00     0.034 NA
HETATM    9  C10 UNL     1      22.069   0.785  53.269  1.00  0.00     0.728 C 
HETATM   10  C11 UNL     1      22.333  -0.177  54.120  1.00  0.00     0.131 C 
HETATM   11  F1  UNL     1      21.281  -0.751  54.813  1.00  0.00    -0.208 F 
HETATM   12  C12 UNL     1      23.662  -0.644  54.340  1.00  0.00     0.041 C 
HETATM   13  C13 UNL     1      24.917  -0.953  54.425  1.00  0.00     0.022 C 
HETATM   14  C14 UNL     1      26.023  -0.361  53.701  1.00  0.00     0.117 C 
HETATM   15  N3  UNL     1      25.133   0.369  53.173  1.00  0.00    -0.261 NA
ENDROOT
BRANCH   2  16
HETATM   16  O2  UNL     1      26.611   3.526  49.780  1.00  0.00    -0.306 OA
BRANCH  16  17
HETATM   17  C4  UNL     1      26.658   4.737  49.132  1.00  0.00     0.249 C 
HETATM   18  N1  UNL     1      27.936   4.802  49.251  1.00  0.00    -0.289 NA
HETATM   19  H6  UNL     1      28.462   5.628  48.868  1.00  0.00     0.188 HD
ENDBRANCH  16  17
ENDBRANCH   2  16
BRANCH   1  20
HETATM   20  O1  UNL     1      23.522   2.840  49.522  1.00  0.00    -0.383 OA
HETATM   21  C1  UNL     1      23.166   3.842  48.630  1.00  0.00     0.202 C 
ENDBRANCH   1  20
TORSDOF 3
ENDMDL
MODEL 9
REMARK VINA RESULT:      -6.3      2.147      4.085
REMARK  3 active torsions:
REMARK  status: ('A' for Active; 'I' for Inactive)
REMARK    1  A    between atoms: O1_2  and  C2_3 
REMARK    2  A    between atoms: C3_4  and  O2_5 
REMARK    3  A    between atoms: O2_5  and  C4_6 
ROOT
HETATM    1  C2  UNL     1      22.346   3.758  51.276  1.00  0.00     0.187 C 
HETATM    2  C3  UNL     1      23.852   3.860  51.290  1.00  0.00     0.086 C 
HETATM    3  C5  UNL     1      24.603   3.136  52.136  1.00  0.00     0.066 C 
HETATM    4  C6  UNL     1      24.049   1.851  52.551  1.00  0.00     0.055 C 
HETATM    5  C7  UNL     1      22.848   1.570  52.012  1.00  0.00     0.014 C 
HETATM    6  C8  UNL     1      21.983   2.760  52.357  1.00  0.00     0.080 C 
HETATM    7  C9  UNL     1      20.603   2.249  52.265  1.00  0.00     0.246 C 
HETATM    8  N2  UNL     1      20.258   1.107  52.747  1.00  0.00     0.034 NA
HETATM    9  C10 UNL     1      21.151   0.239  53.402  1.00  0.00     0.728 C 
HETATM   10  C11 UNL     1      21.686  -0.735  54.099  1.00  0.00     0.131 C 
HETATM   11  F1  UNL     1      20.846  -1.679  54.664  1.00  0.00    -0.208 F 
HETATM   12  C12 UNL     1      23.096  -0.846  54.280  1.00  0.00     0.041 C 
HETATM   13  C13 UNL     1      24.388  -0.805  54.350  1.00  0.00     0.022 C 
HETATM   14  C14 UNL     1      25.274   0.175  53.758  1.00  0.00     0.117 C 
HETATM   15  N3  UNL     1      24.208   0.706  53.327  1.00  0.00    -0.261 NA
ENDROOT
BRANCH   2  16
HETATM   16  O2  UNL     1      24.697   4.643  50.513  1.00  0.00    -0.306 OA
BRANCH  16  17
HETATM   17  C4  UNL     1      25.907   4.224  50.012  1.00  0.00     0.249 C 
HETATM   18  N1  UNL     1      26.376   5.420  50.022  1.00  0.00    -0.289 NA
HETATM   19  H6  UNL     1      27.358   5.606  49.695  1.00  0.00     0.188 HD
ENDBRANCH  16  17
ENDBRANCH   2  16
BRANCH   1  20
HETATM   20  O1  UNL     1      21.915   3.182  50.065  1.00  0.00    -0.383 OA
HETATM   21  C1  UNL     1      21.470   4.210  49.247  1.00  0.00     0.202 C 
ENDBRANCH   1  20
TORSDOF 3
ENDMDL
