MODEL 1
REMARK VINA RESULT:      -9.2      0.000      0.000
REMARK  7 active torsions:
REMARK  status: ('A' for Active; 'I' for Inactive)
REMARK    1  A    between atoms: C16_17  and  O2_18 
REMARK    2  A    between atoms: O2_18  and  C17_19 
REMARK    3  A    between atoms: C17_19  and  C18_20 
REMARK    4  A    between atoms: C18_20  and  N1_21 
REMARK    5  A    between atoms: N1_21  and  C19_22 
REMARK    6  A    between atoms: N1_21  and  C21_24 
REMARK    7  A    between atoms: C23_26  and  C24_27 
ROOT
HETATM    1  C1  UNL     1      25.646  -0.787  55.487  1.00  0.00     0.021 C 
HETATM    2  C2  UNL     1      26.270  -0.138  54.564  1.00  0.00    -0.041 C 
HETATM    3  C3  UNL     1      27.234   0.855  54.122  1.00  0.00     0.023 C 
HETATM    4  C4  UNL     1      28.490   0.130  54.255  1.00  0.00     0.016 C 
HETATM    5  C5  UNL     1      28.292  -1.088  53.258  1.00  0.00    -0.002 C 
HETATM    6  C6  UNL     1      27.041  -1.015  52.609  1.00  0.00    -0.013 C 
HETATM    7  C7  UNL     1      25.860  -0.282  53.165  1.00  0.00     0.074 C 
HETATM    8  C8  UNL     1      25.496   1.074  52.597  1.00  0.00    -0.015 C 
HETATM    9  C9  UNL     1      26.477   2.058  52.379  1.00  0.00     0.131 C 
HETATM   10  O1  UNL     1      26.213   2.983  51.384  1.00  0.00    -0.310 OA
HETATM   11  C10 UNL     1      24.978   2.635  50.883  1.00  0.00     0.063 C 
HETATM   12  C11 UNL     1      24.671   3.051  49.672  1.00  0.00     0.013 C 
HETATM   13  C12 UNL     1      23.768   3.127  48.559  1.00  0.00     0.046 C 
HETATM   14  C13 UNL     1      22.628   2.656  48.226  1.00  0.00    -0.015 C 
HETATM   15  C14 UNL     1      21.315   1.851  48.331  1.00  0.00     0.003 C 
HETATM   16  C15 UNL     1      21.644   1.406  49.534  1.00  0.00     0.038 C 
HETATM   17  C16 UNL     1      22.137   0.987  50.870  1.00  0.00     0.073 C 
HETATM   18  C23 UNL     1      23.171   1.195  51.683  1.00  0.00     0.002 C 
HETATM   19  C26 UNL     1      24.412   1.866  52.025  1.00  0.00     0.112 C 
HETATM   20  C27 UNL     1      27.668   1.962  53.278  1.00  0.00     0.216 C 
HETATM   21  O5  UNL     1      28.712   2.609  53.323  1.00  0.00    -0.284 OA
ENDROOT
BRANCH  17  22
HETATM   22  O2  UNL     1      21.002   0.128  51.140  1.00  0.00    -0.349 OA
BRANCH  22  23
HETATM   23  C17 UNL     1      19.722   0.746  50.891  1.00  0.00     0.195 C 
BRANCH  23  24
HETATM   24  C18 UNL     1      19.194   1.502  52.081  1.00  0.00     0.143 C 
BRANCH  24  25
HETATM   25  N1  UNL     1      19.252   2.910  51.918  1.00  0.00    -0.411 N 
BRANCH  25  26
HETATM   26  C19 UNL     1      18.462   3.488  50.893  1.00  0.00     0.112 C 
HETATM   27  C20 UNL     1      17.140   3.968  51.503  1.00  0.00     0.026 C 
ENDBRANCH  25  26
BRANCH  25  28
HETATM   28  C21 UNL     1      20.405   3.601  52.344  1.00  0.00     0.112 C 
HETATM   29  C22 UNL     1      20.879   4.535  51.247  1.00  0.00     0.026 C 
ENDBRANCH  25  28
ENDBRANCH  24  25
ENDBRANCH  23  24
ENDBRANCH  22  23
ENDBRANCH  17  22
BRANCH  18  30
HETATM   30  C24 UNL     1      22.570   0.291  52.636  1.00  0.00    -0.002 A 
HETATM   31  O3  UNL     1      22.051  -0.395  53.441  1.00  0.00     0.000 OA
HETATM   32  C25 UNL     1      21.186  -0.560  54.549  1.00  0.00     0.000 A 
HETATM   33  O4  UNL     1      22.054  -0.619  53.479  1.00  0.00     0.000 OA
ENDBRANCH  18  30
TORSDOF 7
ENDMDL
MODEL 2
REMARK VINA RESULT:      -9.1      1.578      2.422
REMARK  7 active torsions:
REMARK  status: ('A' for Active; 'I' for Inactive)
REMARK    1  A    between atoms: C16_17  and  O2_18 
REMARK    2  A    between atoms: O2_18  and  C17_19 
REMARK    3  A    between atoms: C17_19  and  C18_20 
REMARK    4  A    between atoms: C18_20  and  N1_21 
REMARK    5  A    between atoms: N1_21  and  C19_22 
REMARK    6  A    between atoms: N1_21  and  C21_24 
REMARK    7  A    between atoms: C23_26  and  C24_27 
ROOT
HETATM    1  C1  UNL     1      25.649  -0.688  55.580  1.00  0.00     0.021 C 
HETATM    2  C2  UNL     1      26.212  -0.070  54.599  1.00  0.00    -0.041 C 
HETATM    3  C3  UNL     1      27.145   0.907  54.064  1.00  0.00     0.023 C 
HETATM    4  C4  UNL     1      28.407   0.186  54.140  1.00  0.00     0.016 C 
HETATM    5  C5  UNL     1      28.147  -1.065  53.198  1.00  0.00    -0.002 C 
HETATM    6  C6  UNL     1      26.857  -1.011  52.628  1.00  0.00    -0.013 C 
HETATM    7  C7  UNL     1      25.714  -0.259  53.234  1.00  0.00     0.074 C 
HETATM    8  C8  UNL     1      25.313   1.079  52.646  1.00  0.00    -0.015 C 
HETATM    9  C9  UNL     1      26.278   2.053  52.334  1.00  0.00     0.131 C 
HETATM   10  O1  UNL     1      25.950   2.946  51.329  1.00  0.00    -0.310 OA
HETATM   11  C10 UNL     1      24.685   2.584  50.919  1.00  0.00     0.063 C 
HETATM   12  C11 UNL     1      24.301   2.960  49.718  1.00  0.00     0.013 C 
HETATM   13  C12 UNL     1      23.329   3.001  48.662  1.00  0.00     0.046 C 
HETATM   14  C13 UNL     1      22.171   2.521  48.419  1.00  0.00    -0.015 C 
HETATM   15  C14 UNL     1      20.867   1.722  48.633  1.00  0.00     0.003 C 
HETATM   16  C15 UNL     1      21.273   1.316  49.827  1.00  0.00     0.038 C 
HETATM   17  C16 UNL     1      21.851   0.939  51.141  1.00  0.00     0.073 C 
HETATM   18  C23 UNL     1      22.935   1.172  51.879  1.00  0.00     0.002 C 
HETATM   19  C26 UNL     1      24.194   1.853  52.119  1.00  0.00     0.112 C 
HETATM   20  C27 UNL     1      27.523   1.986  53.159  1.00  0.00     0.216 C 
HETATM   21  O5  UNL     1      28.567   2.632  53.116  1.00  0.00    -0.284 OA
ENDROOT
BRANCH  17  22
HETATM   22  O2  UNL     1      20.737   0.091  51.511  1.00  0.00    -0.349 OA
BRANCH  22  23
HETATM   23  C17 UNL     1      19.454   0.753  51.477  1.00  0.00     0.195 C 
BRANCH  23  24
HETATM   24  C18 UNL     1      18.307  -0.201  51.281  1.00  0.00     0.143 C 
BRANCH  24  25
HETATM   25  N1  UNL     1      17.638  -0.525  52.488  1.00  0.00    -0.411 N 
BRANCH  25  26
HETATM   26  C19 UNL     1      18.354  -1.272  53.458  1.00  0.00     0.112 C 
HETATM   27  C20 UNL     1      17.720  -2.662  53.575  1.00  0.00     0.026 C 
ENDBRANCH  25  26
BRANCH  25  28
HETATM   28  C21 UNL     1      16.230  -0.601  52.492  1.00  0.00     0.112 C 
HETATM   29  C22 UNL     1      15.728  -0.927  51.099  1.00  0.00     0.026 C 
ENDBRANCH  25  28
ENDBRANCH  24  25
ENDBRANCH  23  24
ENDBRANCH  22  23
ENDBRANCH  17  22
BRANCH  18  30
HETATM   30  C24 UNL     1      22.397   0.301  52.898  1.00  0.00    -0.002 A 
HETATM   31  O3  UNL     1      22.006  -0.450  53.718  1.00  0.00     0.000 OA
HETATM   32  C25 UNL     1      22.138  -1.651  54.454  1.00  0.00     0.000 A 
HETATM   33  O4  UNL     1      21.829  -0.446  53.860  1.00  0.00     0.000 OA
ENDBRANCH  18  30
TORSDOF 7
ENDMDL
MODEL 3
REMARK VINA RESULT:      -8.3      2.819      5.846
REMARK  7 active torsions:
REMARK  status: ('A' for Active; 'I' for Inactive)
REMARK    1  A    between atoms: C16_17  and  O2_18 
REMARK    2  A    between atoms: O2_18  and  C17_19 
REMARK    3  A    between atoms: C17_19  and  C18_20 
REMARK    4  A    between atoms: C18_20  and  N1_21 
REMARK    5  A    between atoms: N1_21  and  C19_22 
REMARK    6  A    between atoms: N1_21  and  C21_24 
REMARK    7  A    between atoms: C23_26  and  C24_27 
ROOT
HETATM    1  C1  UNL     1      23.173   7.014  47.970  1.00  0.00     0.021 C 
HETATM    2  C2  UNL     1      24.332   6.717  48.453  1.00  0.00    -0.041 C 
HETATM    3  C3  UNL     1      25.774   6.585  48.339  1.00  0.00     0.023 C 
HETATM    4  C4  UNL     1      26.214   7.961  48.523  1.00  0.00     0.016 C 
HETATM    5  C5  UNL     1      25.695   8.296  49.984  1.00  0.00    -0.002 C 
HETATM    6  C6  UNL     1      25.053   7.181  50.563  1.00  0.00    -0.013 C 
HETATM    7  C7  UNL     1      24.433   6.075  49.767  1.00  0.00     0.074 C 
HETATM    8  C8  UNL     1      25.167   4.757  49.636  1.00  0.00    -0.015 C 
HETATM    9  C9  UNL     1      26.539   4.716  49.328  1.00  0.00     0.131 C 
HETATM   10  O1  UNL     1      27.238   3.608  49.774  1.00  0.00    -0.310 OA
HETATM   11  C10 UNL     1      26.307   2.826  50.422  1.00  0.00     0.063 C 
HETATM   12  C11 UNL     1      26.749   1.952  51.300  1.00  0.00     0.013 C 
HETATM   13  C12 UNL     1      26.523   0.922  52.274  1.00  0.00     0.046 C 
HETATM   14  C13 UNL     1      25.530   0.341  52.829  1.00  0.00    -0.015 C 
HETATM   15  C14 UNL     1      24.061   0.001  53.163  1.00  0.00     0.003 C 
HETATM   16  C15 UNL     1      23.620   0.908  52.304  1.00  0.00     0.038 C 
HETATM   17  C16 UNL     1      23.268   1.953  51.311  1.00  0.00     0.073 C 
HETATM   18  C23 UNL     1      23.862   2.790  50.462  1.00  0.00     0.002 C 
HETATM   19  C26 UNL     1      25.044   3.312  49.801  1.00  0.00     0.112 C 
HETATM   20  C27 UNL     1      27.037   5.886  48.541  1.00  0.00     0.216 C 
HETATM   21  O5  UNL     1      28.164   6.193  48.160  1.00  0.00    -0.284 OA
ENDROOT
BRANCH  17  22
HETATM   22  O2  UNL     1      21.841   1.824  51.519  1.00  0.00    -0.349 OA
BRANCH  22  23
HETATM   23  C17 UNL     1      21.331   0.491  51.304  1.00  0.00     0.195 C 
BRANCH  23  24
HETATM   24  C18 UNL     1      19.863   0.367  51.615  1.00  0.00     0.143 C 
BRANCH  24  25
HETATM   25  N1  UNL     1      19.602  -0.402  52.777  1.00  0.00    -0.411 N 
BRANCH  25  26
HETATM   26  C19 UNL     1      18.289  -0.909  52.951  1.00  0.00     0.112 C 
HETATM   27  C20 UNL     1      17.444  -0.509  51.736  1.00  0.00     0.026 C 
ENDBRANCH  25  26
BRANCH  25  28
HETATM   28  C21 UNL     1      20.399  -0.203  53.924  1.00  0.00     0.112 C 
HETATM   29  C22 UNL     1      21.007  -1.521  54.362  1.00  0.00     0.026 C 
ENDBRANCH  25  28
ENDBRANCH  24  25
ENDBRANCH  23  24
ENDBRANCH  22  23
ENDBRANCH  17  22
BRANCH  18  30
HETATM   30  C24 UNL     1      22.560   3.278  50.072  1.00  0.00    -0.002 A 
HETATM   31  O3  UNL     1      21.517   3.735  49.769  1.00  0.00     0.000 OA
HETATM   32  C25 UNL     1      20.657   4.847  49.609  1.00  0.00     0.000 A 
HETATM   33  O4  UNL     1      21.326   3.644  49.686  1.00  0.00     0.000 OA
ENDBRANCH  18  30
TORSDOF 7
ENDMDL
MODEL 4
REMARK VINA RESULT:      -8.2      1.887      4.346
REMARK  7 active torsions:
REMARK  status: ('A' for Active; 'I' for Inactive)
REMARK    1  A    between atoms: C16_17  and  O2_18 
REMARK    2  A    between atoms: O2_18  and  C17_19 
REMARK    3  A    between atoms: C17_19  and  C18_20 
REMARK    4  A    between atoms: C18_20  and  N1_21 
REMARK    5  A    between atoms: N1_21  and  C19_22 
REMARK    6  A    between atoms: N1_21  and  C21_24 
REMARK    7  A    between atoms: C23_26  and  C24_27 
ROOT
HETATM    1  C1  UNL     1      26.059   2.044  50.651  1.00  0.00     0.021 C 
HETATM    2  C2  UNL     1      25.634   1.556  51.766  1.00  0.00    -0.041 C 
HETATM    3  C3  UNL     1      25.775   0.688  52.923  1.00  0.00     0.023 C 
HETATM    4  C4  UNL     1      26.665   1.466  53.773  1.00  0.00     0.016 C 
HETATM    5  C5  UNL     1      25.824   2.787  54.035  1.00  0.00    -0.002 C 
HETATM    6  C6  UNL     1      24.563   2.719  53.405  1.00  0.00    -0.013 C 
HETATM    7  C7  UNL     1      24.273   1.850  52.221  1.00  0.00     0.074 C 
HETATM    8  C8  UNL     1      23.510   0.557  52.422  1.00  0.00    -0.015 C 
HETATM    9  C9  UNL     1      23.842  -0.328  53.462  1.00  0.00     0.131 C 
HETATM   10  O1  UNL     1      22.822  -1.135  53.935  1.00  0.00    -0.310 OA
HETATM   11  C10 UNL     1      21.717  -0.804  53.181  1.00  0.00     0.063 C 
HETATM   12  C11 UNL     1      20.531  -1.081  53.680  1.00  0.00     0.013 C 
HETATM   13  C12 UNL     1      19.098  -1.071  53.600  1.00  0.00     0.046 C 
HETATM   14  C13 UNL     1      18.194  -0.633  52.811  1.00  0.00    -0.015 C 
HETATM   15  C14 UNL     1      17.564   0.069  51.589  1.00  0.00     0.003 C 
HETATM   16  C15 UNL     1      18.759   0.378  51.108  1.00  0.00     0.038 C 
HETATM   17  C16 UNL     1      20.156   0.655  50.687  1.00  0.00     0.073 C 
HETATM   18  C23 UNL     1      21.404   0.410  51.082  1.00  0.00     0.002 C 
HETATM   19  C26 UNL     1      22.361  -0.222  51.972  1.00  0.00     0.112 C 
HETATM   20  C27 UNL     1      25.272  -0.274  53.896  1.00  0.00     0.216 C 
HETATM   21  O5  UNL     1      25.875  -0.856  54.795  1.00  0.00    -0.284 OA
ENDROOT
BRANCH  17  22
HETATM   22  O2  UNL     1      19.768   1.401  49.508  1.00  0.00    -0.349 OA
BRANCH  22  23
HETATM   23  C17 UNL     1      18.881   2.508  49.775  1.00  0.00     0.195 C 
BRANCH  23  24
HETATM   24  C18 UNL     1      19.359   3.801  49.171  1.00  0.00     0.143 C 
BRANCH  24  25
HETATM   25  N1  UNL     1      19.950   4.675  50.118  1.00  0.00    -0.411 N 
BRANCH  25  26
HETATM   26  C19 UNL     1      20.711   5.765  49.624  1.00  0.00     0.112 C 
HETATM   27  C20 UNL     1      20.613   5.779  48.094  1.00  0.00     0.026 C 
ENDBRANCH  25  26
BRANCH  25  28
HETATM   28  C21 UNL     1      20.238   4.191  51.411  1.00  0.00     0.112 C 
HETATM   29  C22 UNL     1      21.689   4.465  51.752  1.00  0.00     0.026 C 
ENDBRANCH  25  28
ENDBRANCH  24  25
ENDBRANCH  23  24
ENDBRANCH  22  23
ENDBRANCH  17  22
BRANCH  18  30
HETATM   30  C24 UNL     1      21.883   1.147  49.936  1.00  0.00    -0.002 A 
HETATM   31  O3  UNL     1      22.298   1.792  49.041  1.00  0.00     0.000 OA
HETATM   32  C25 UNL     1      22.991   2.925  48.555  1.00  0.00     0.000 A 
HETATM   33  O4  UNL     1      22.296   1.764  48.816  1.00  0.00     0.000 OA
ENDBRANCH  18  30
TORSDOF 7
ENDMDL
MODEL 5
REMARK VINA RESULT:      -7.5      2.286      5.203
REMARK  7 active torsions:
REMARK  status: ('A' for Active; 'I' for Inactive)
REMARK    1  A    between atoms: C16_17  and  O2_18 
REMARK    2  A    between atoms: O2_18  and  C17_19 
REMARK    3  A    between atoms: C17_19  and  C18_20 
REMARK    4  A    between atoms: C18_20  and  N1_21 
REMARK    5  A    between atoms: N1_21  and  C19_22 
REMARK    6  A    between atoms: N1_21  and  C21_24 
REMARK    7  A    between atoms: C23_26  and  C24_27 
ROOT
HETATM    1  C1  UNL     1      22.450   5.229  48.425  1.00  0.00     0.021 C 
HETATM    2  C2  UNL     1      23.456   4.873  49.148  1.00  0.00    -0.041 C 
HETATM    3  C3  UNL     1      24.862   4.546  49.320  1.00  0.00     0.023 C 
HETATM    4  C4  UNL     1      25.468   5.868  49.390  1.00  0.00     0.016 C 
HETATM    5  C5  UNL     1      24.775   6.497  50.671  1.00  0.00    -0.002 C 
HETATM    6  C6  UNL     1      23.887   5.580  51.271  1.00  0.00    -0.013 C 
HETATM    7  C7  UNL     1      23.245   4.445  50.534  1.00  0.00     0.074 C 
HETATM    8  C8  UNL     1      23.783   3.041  50.723  1.00  0.00    -0.015 C 
HETATM    9  C9  UNL     1      25.164   2.781  50.681  1.00  0.00     0.131 C 
HETATM   10  O1  UNL     1      25.607   1.682  51.395  1.00  0.00    -0.310 OA
HETATM   11  C10 UNL     1      24.476   1.137  51.963  1.00  0.00     0.063 C 
HETATM   12  C11 UNL     1      24.633   0.368  53.019  1.00  0.00     0.013 C 
HETATM   13  C12 UNL     1      24.098  -0.454  54.068  1.00  0.00     0.046 C 
HETATM   14  C13 UNL     1      22.952  -0.809  54.506  1.00  0.00    -0.015 C 
HETATM   15  C14 UNL     1      21.415  -0.905  54.609  1.00  0.00     0.003 C 
HETATM   16  C15 UNL     1      21.261  -0.102  53.567  1.00  0.00     0.038 C 
HETATM   17  C16 UNL     1      21.237   0.805  52.392  1.00  0.00     0.073 C 
HETATM   18  C23 UNL     1      22.080   1.412  51.559  1.00  0.00     0.002 C 
HETATM   19  C26 UNL     1      23.419   1.669  51.060  1.00  0.00     0.112 C 
HETATM   20  C27 UNL     1      25.955   3.737  49.845  1.00  0.00     0.216 C 
HETATM   21  O5  UNL     1      27.162   3.835  49.638  1.00  0.00    -0.284 OA
ENDROOT
BRANCH  17  22
HETATM   22  O2  UNL     1      19.792   0.890  52.350  1.00  0.00    -0.349 OA
BRANCH  22  23
HETATM   23  C17 UNL     1      19.127  -0.388  52.253  1.00  0.00     0.195 C 
BRANCH  23  24
HETATM   24  C18 UNL     1      17.627  -0.272  52.279  1.00  0.00     0.143 C 
BRANCH  24  25
HETATM   25  N1  UNL     1      17.115   0.579  51.267  1.00  0.00    -0.411 N 
BRANCH  25  26
HETATM   26  C19 UNL     1      16.046   1.444  51.612  1.00  0.00     0.112 C 
HETATM   27  C20 UNL     1      16.544   2.892  51.539  1.00  0.00     0.026 C 
ENDBRANCH  25  26
BRANCH  25  28
HETATM   28  C21 UNL     1      17.259   0.200  49.916  1.00  0.00     0.112 C 
HETATM   29  C22 UNL     1      16.094  -0.678  49.502  1.00  0.00     0.026 C 
ENDBRANCH  25  28
ENDBRANCH  24  25
ENDBRANCH  23  24
ENDBRANCH  22  23
ENDBRANCH  17  22
BRANCH  18  30
HETATM   30  C24 UNL     1      20.947   1.989  50.873  1.00  0.00    -0.002 A 
HETATM   31  O3  UNL     1      20.063   2.497  50.283  1.00  0.00     0.000 OA
HETATM   32  C25 UNL     1      19.594   3.427  49.325  1.00  0.00     0.000 A 
HETATM   33  O4  UNL     1      19.839   2.465  50.282  1.00  0.00     0.000 OA
ENDBRANCH  18  30
TORSDOF 7
ENDMDL
MODEL 6
REMARK VINA RESULT:      -7.2      2.474      8.022
REMARK  7 active torsions:
REMARK  status: ('A' for Active; 'I' for Inactive)
REMARK    1  A    between atoms: C16_17  and  O2_18 
REMARK    2  A    between atoms: O2_18  and  C17_19 
REMARK    3  A    between atoms: C17_19  and  C18_20 
REMARK    4  A    between atoms: C18_20  and  N1_21 
REMARK    5  A    between atoms: N1_21  and  C19_22 
REMARK    6  A    between atoms: N1_21  and  C21_24 
REMARK    7  A    between atoms: C23_26  and  C24_27 
ROOT
HETATM    1  C1  UNL     1      21.140   5.753  49.023  1.00  0.00     0.021 C 
HETATM    2  C2  UNL     1      20.363   4.784  49.369  1.00  0.00    -0.041 C 
HETATM    3  C3  UNL     1      19.076   4.260  49.793  1.00  0.00     0.023 C 
HETATM    4  C4  UNL     1      18.350   4.196  48.533  1.00  0.00     0.016 C 
HETATM    5  C5  UNL     1      19.227   3.185  47.680  1.00  0.00    -0.002 C 
HETATM    6  C6  UNL     1      20.325   2.710  48.428  1.00  0.00    -0.013 C 
HETATM    7  C7  UNL     1      20.918   3.445  49.589  1.00  0.00     0.074 C 
HETATM    8  C8  UNL     1      20.601   2.986  50.997  1.00  0.00    -0.015 C 
HETATM    9  C9  UNL     1      19.283   2.681  51.382  1.00  0.00     0.131 C 
HETATM   10  O1  UNL     1      19.137   1.769  52.412  1.00  0.00    -0.310 OA
HETATM   11  C10 UNL     1      20.420   1.420  52.775  1.00  0.00     0.063 C 
HETATM   12  C11 UNL     1      20.587   0.279  53.408  1.00  0.00     0.013 C 
HETATM   13  C12 UNL     1      21.428  -0.702  54.033  1.00  0.00     0.046 C 
HETATM   14  C13 UNL     1      22.675  -0.901  54.224  1.00  0.00    -0.015 C 
HETATM   15  C14 UNL     1      24.199  -0.658  54.169  1.00  0.00     0.003 C 
HETATM   16  C15 UNL     1      24.028   0.472  53.500  1.00  0.00     0.038 C 
HETATM   17  C16 UNL     1      23.692   1.714  52.759  1.00  0.00     0.073 C 
HETATM   18  C23 UNL     1      22.623   2.391  52.344  1.00  0.00     0.002 C 
HETATM   19  C26 UNL     1      21.187   2.594  52.275  1.00  0.00     0.112 C 
HETATM   20  C27 UNL     1      18.225   3.412  50.620  1.00  0.00     0.216 C 
HETATM   21  O5  UNL     1      16.999   3.345  50.657  1.00  0.00    -0.284 OA
ENDROOT
BRANCH  17  22
HETATM   22  O2  UNL     1      25.073   2.095  52.552  1.00  0.00    -0.349 OA
BRANCH  22  23
HETATM   23  C17 UNL     1      25.869   1.092  51.884  1.00  0.00     0.195 C 
BRANCH  23  24
HETATM   24  C18 UNL     1      27.345   1.262  52.121  1.00  0.00     0.143 C 
BRANCH  24  25
HETATM   25  N1  UNL     1      27.849   0.410  53.137  1.00  0.00    -0.411 N 
BRANCH  25  26
HETATM   26  C19 UNL     1      27.707  -0.989  52.954  1.00  0.00     0.112 C 
HETATM   27  C20 UNL     1      29.069  -1.655  53.183  1.00  0.00     0.026 C 
ENDBRANCH  25  26
BRANCH  25  28
HETATM   28  C21 UNL     1      27.959   0.905  54.453  1.00  0.00     0.112 C 
HETATM   29  C22 UNL     1      29.280   1.629  54.621  1.00  0.00     0.026 C 
ENDBRANCH  25  28
ENDBRANCH  24  25
ENDBRANCH  23  24
ENDBRANCH  22  23
ENDBRANCH  17  22
BRANCH  18  30
HETATM   30  C24 UNL     1      23.505   3.377  51.765  1.00  0.00    -0.002 A 
HETATM   31  O3  UNL     1      24.201   4.167  51.235  1.00  0.00     0.000 OA
HETATM   32  C25 UNL     1      24.654   4.826  50.068  1.00  0.00     0.000 A 
HETATM   33  O4  UNL     1      24.354   4.315  51.313  1.00  0.00     0.000 OA
ENDBRANCH  18  30
TORSDOF 7
ENDMDL
MODEL 7
REMARK VINA RESULT:      -7.0      1.774      4.162
REMARK  7 active torsions:
REMARK  status: ('A' for Active; 'I' for Inactive)
REMARK    1  A    between atoms: C16_17  and  O2_18 
REMARK    2  A    between atoms: O2_18  and  C17_19 
REMARK    3  A    between atoms: C17_19  and  C18_20 
REMARK    4  A    between atoms: C18_20  and  N1_21 
REMARK    5  A    between atoms: N1_21  and  C19_22 
REMARK    6  A    between atoms: N1_21  and  C21_24 
REMARK    7  A    between atoms: C23_26  and  C24_27 
ROOT
HETATM    1  C1  UNL     1      26.649   2.762  50.654  1.00  0.00     0.021 C 
HETATM    2  C2  UNL     1      26.508   1.944  51.641  1.00  0.00    -0.041 C 
HETATM    3  C3  UNL     1      26.921   0.788  52.419  1.00  0.00     0.023 C 
HETATM    4  C4  UNL     1      28.002   1.341  53.223  1.00  0.00     0.016 C 
HETATM    5  C5  UNL     1      27.266   2.471  54.059  1.00  0.00    -0.002 C 
HETATM    6  C6  UNL     1      25.888   2.509  53.759  1.00  0.00    -0.013 C 
HETATM    7  C7  UNL     1      25.304   2.006  52.475  1.00  0.00     0.074 C 
HETATM    8  C8  UNL     1      24.601   0.664  52.457  1.00  0.00    -0.015 C 
HETATM    9  C9  UNL     1      25.171  -0.463  53.076  1.00  0.00     0.131 C 
HETATM   10  O1  UNL     1      24.291  -1.436  53.517  1.00  0.00    -0.310 OA
HETATM   11  C10 UNL     1      23.037  -0.970  53.183  1.00  0.00     0.063 C 
HETATM   12  C11 UNL     1      22.009  -1.456  53.845  1.00  0.00     0.013 C 
HETATM   13  C12 UNL     1      20.601  -1.515  54.116  1.00  0.00     0.046 C 
HETATM   14  C13 UNL     1      19.534  -0.925  53.733  1.00  0.00    -0.015 C 
HETATM   15  C14 UNL     1      18.629   0.061  52.964  1.00  0.00     0.003 C 
HETATM   16  C15 UNL     1      19.672   0.572  52.326  1.00  0.00     0.038 C 
HETATM   17  C16 UNL     1      20.923   1.048  51.685  1.00  0.00     0.073 C 
HETATM   18  C23 UNL     1      22.228   0.780  51.679  1.00  0.00     0.002 C 
HETATM   19  C26 UNL     1      23.368  -0.022  52.084  1.00  0.00     0.112 C 
HETATM   20  C27 UNL     1      26.664  -0.446  53.151  1.00  0.00     0.216 C 
HETATM   21  O5  UNL     1      27.465  -1.224  53.665  1.00  0.00    -0.284 OA
ENDROOT
BRANCH  17  22
HETATM   22  O2  UNL     1      20.264   2.079  50.910  1.00  0.00    -0.349 OA
BRANCH  22  23
HETATM   23  C17 UNL     1      19.643   3.110  51.707  1.00  0.00     0.195 C 
BRANCH  23  24
HETATM   24  C18 UNL     1      18.873   4.106  50.881  1.00  0.00     0.143 C 
BRANCH  24  25
HETATM   25  N1  UNL     1      17.596   3.634  50.486  1.00  0.00    -0.411 N 
BRANCH  25  26
HETATM   26  C19 UNL     1      17.018   4.197  49.320  1.00  0.00     0.112 C 
HETATM   27  C20 UNL     1      16.887   3.100  48.257  1.00  0.00     0.026 C 
ENDBRANCH  25  26
BRANCH  25  28
HETATM   28  C21 UNL     1      16.736   3.085  51.459  1.00  0.00     0.112 C 
HETATM   29  C22 UNL     1      15.957   4.193  52.140  1.00  0.00     0.026 C 
ENDBRANCH  25  28
ENDBRANCH  24  25
ENDBRANCH  23  24
ENDBRANCH  22  23
ENDBRANCH  17  22
BRANCH  18  30
HETATM   30  C24 UNL     1      22.417   1.847  50.725  1.00  0.00    -0.002 A 
HETATM   31  O3  UNL     1      22.598   2.675  49.907  1.00  0.00     0.000 OA
HETATM   32  C25 UNL     1      23.065   3.067  48.629  1.00  0.00     0.000 A 
HETATM   33  O4  UNL     1      22.550   2.897  49.897  1.00  0.00     0.000 OA
ENDBRANCH  18  30
TORSDOF 7
ENDMDL
MODEL 8
REMARK VINA RESULT:      -7.0      3.847      6.554
REMARK  7 active torsions:
REMARK  status: ('A' for Active; 'I' for Inactive)
REMARK    1  A    between atoms: C16_17  and  O2_18 
REMARK    2  A    between atoms: O2_18  and  C17_19 
REMARK    3  A    between atoms: C17_19  and  C18_20 
REMARK    4  A    between atoms: C18_20  and  N1_21 
REMARK    5  A    between atoms: N1_21  and  C19_22 
REMARK    6  A    between atoms: N1_21  and  C21_24 
REMARK    7  A    between atoms: C23_26  and  C24_27 
ROOT
HETATM    1  C1  UNL     1      20.647   3.733  52.163  1.00  0.00     0.021 C 
HETATM    2  C2  UNL     1      21.650   3.029  51.763  1.00  0.00    -0.041 C 
HETATM    3  C3  UNL     1      22.649   1.992  51.958  1.00  0.00     0.023 C 
HETATM    4  C4  UNL     1      21.882   0.785  51.684  1.00  0.00     0.016 C 
HETATM    5  C5  UNL     1      21.434   0.997  50.176  1.00  0.00    -0.002 C 
HETATM    6  C6  UNL     1      21.944   2.207  49.660  1.00  0.00    -0.013 C 
HETATM    7  C7  UNL     1      22.333   3.374  50.513  1.00  0.00     0.074 C 
HETATM    8  C8  UNL     1      23.799   3.635  50.786  1.00  0.00    -0.015 C 
HETATM    9  C9  UNL     1      24.665   2.593  51.163  1.00  0.00     0.131 C 
HETATM   10  O1  UNL     1      26.002   2.756  50.843  1.00  0.00    -0.310 OA
HETATM   11  C10 UNL     1      26.080   3.981  50.217  1.00  0.00     0.063 C 
HETATM   12  C11 UNL     1      27.115   4.202  49.436  1.00  0.00     0.013 C 
HETATM   13  C12 UNL     1      27.858   5.041  48.539  1.00  0.00     0.046 C 
HETATM   14  C13 UNL     1      27.734   6.186  47.986  1.00  0.00    -0.015 C 
HETATM   15  C14 UNL     1      27.103   7.544  47.610  1.00  0.00     0.003 C 
HETATM   16  C15 UNL     1      26.045   7.302  48.370  1.00  0.00     0.038 C 
HETATM   17  C16 UNL     1      24.924   6.901  49.256  1.00  0.00     0.073 C 
HETATM   18  C23 UNL     1      24.573   5.900  50.061  1.00  0.00     0.002 C 
HETATM   19  C26 UNL     1      24.852   4.645  50.734  1.00  0.00     0.112 C 
HETATM   20  C27 UNL     1      24.003   1.457  51.875  1.00  0.00     0.216 C 
HETATM   21  O5  UNL     1      24.439   0.384  52.284  1.00  0.00    -0.284 OA
ENDROOT
BRANCH  17  22
HETATM   22  O2  UNL     1      24.144   8.092  48.990  1.00  0.00    -0.349 OA
BRANCH  22  23
HETATM   23  C17 UNL     1      23.887   8.329  47.589  1.00  0.00     0.195 C 
BRANCH  23  24
HETATM   24  C18 UNL     1      22.421   8.470  47.278  1.00  0.00     0.143 C 
BRANCH  24  25
HETATM   25  N1  UNL     1      21.923   7.429  46.454  1.00  0.00    -0.411 N 
BRANCH  25  26
HETATM   26  C19 UNL     1      22.571   6.170  46.518  1.00  0.00     0.112 C 
HETATM   27  C20 UNL     1      21.711   5.217  47.355  1.00  0.00     0.026 C 
ENDBRANCH  25  26
BRANCH  25  28
HETATM   28  C21 UNL     1      21.228   7.764  45.273  1.00  0.00     0.112 C 
HETATM   29  C22 UNL     1      22.099   7.479  44.065  1.00  0.00     0.026 C 
ENDBRANCH  25  28
ENDBRANCH  24  25
ENDBRANCH  23  24
ENDBRANCH  22  23
ENDBRANCH  17  22
BRANCH  18  30
HETATM   30  C24 UNL     1      23.340   6.596  50.347  1.00  0.00    -0.002 A 
HETATM   31  O3  UNL     1      22.304   7.120  50.546  1.00  0.00     0.000 OA
HETATM   32  C25 UNL     1      20.897   7.169  50.397  1.00  0.00     0.000 A 
HETATM   33  O4  UNL     1      22.243   7.305  50.663  1.00  0.00     0.000 OA
ENDBRANCH  18  30
TORSDOF 7
ENDMDL
MODEL 9
REMARK VINA RESULT:      -6.8      8.690     12.280
REMARK  7 active torsions:
REMARK  status: ('A' for Active; 'I' for Inactive)
REMARK    1  A    between atoms: C16_17  and  O2_18 
REMARK    2  A    between atoms: O2_18  and  C17_19 
REMARK    3  A    between atoms: C17_19  and  C18_20 
REMARK    4  A    between atoms: C18_20  and  N1_21 
REMARK    5  A    between atoms: N1_21  and  C19_22 
REMARK    6  A    between atoms: N1_21  and  C21_24 
REMARK    7  A    between atoms: C23_26  and  C24_27 
ROOT
HETATM    1  C1  UNL     1      26.730  10.147  49.094  1.00  0.00     0.021 C 
HETATM    2  C2  UNL     1      26.751   8.936  48.652  1.00  0.00    -0.041 C 
HETATM    3  C3  UNL     1      26.304   7.553  48.677  1.00  0.00     0.023 C 
HETATM    4  C4  UNL     1      25.041   7.636  47.959  1.00  0.00     0.016 C 
HETATM    5  C5  UNL     1      25.490   8.160  46.530  1.00  0.00    -0.002 C 
HETATM    6  C6  UNL     1      26.890   8.319  46.464  1.00  0.00    -0.013 C 
HETATM    7  C7  UNL     1      27.757   8.535  47.665  1.00  0.00     0.074 C 
HETATM    8  C8  UNL     1      28.573   7.379  48.207  1.00  0.00    -0.015 C 
HETATM    9  C9  UNL     1      28.001   6.106  48.383  1.00  0.00     0.131 C 
HETATM   10  O1  UNL     1      28.866   5.027  48.317  1.00  0.00    -0.310 OA
HETATM   11  C10 UNL     1      30.111   5.572  48.091  1.00  0.00     0.063 C 
HETATM   12  C11 UNL     1      31.031   4.794  47.561  1.00  0.00     0.013 C 
HETATM   13  C12 UNL     1      32.358   4.575  47.061  1.00  0.00     0.046 C 
HETATM   14  C13 UNL     1      33.419   5.256  46.852  1.00  0.00    -0.015 C 
HETATM   15  C14 UNL     1      34.361   6.478  46.801  1.00  0.00     0.003 C 
HETATM   16  C15 UNL     1      33.420   7.266  47.300  1.00  0.00     0.038 C 
HETATM   17  C16 UNL     1      32.278   8.030  47.864  1.00  0.00     0.073 C 
HETATM   18  C23 UNL     1      31.032   7.829  48.287  1.00  0.00     0.002 C 
HETATM   19  C26 UNL     1      29.914   6.957  48.599  1.00  0.00     0.112 C 
HETATM   20  C27 UNL     1      26.527   6.113  48.634  1.00  0.00     0.216 C 
HETATM   21  O5  UNL     1      25.718   5.198  48.772  1.00  0.00    -0.284 OA
ENDROOT
BRANCH  17  22
HETATM   22  O2  UNL     1      32.977   9.298  47.848  1.00  0.00    -0.349 OA
BRANCH  22  23
HETATM   23  C17 UNL     1      33.602   9.611  46.585  1.00  0.00     0.195 C 
BRANCH  23  24
HETATM   24  C18 UNL     1      33.010  10.826  45.923  1.00  0.00     0.143 C 
BRANCH  24  25
HETATM   25  N1  UNL     1      31.774  10.564  45.280  1.00  0.00    -0.411 N 
BRANCH  25  26
HETATM   26  C19 UNL     1      31.694   9.421  44.446  1.00  0.00     0.112 C 
HETATM   27  C20 UNL     1      30.394   8.672  44.762  1.00  0.00     0.026 C 
ENDBRANCH  25  26
BRANCH  25  28
HETATM   28  C21 UNL     1      30.890  11.635  45.033  1.00  0.00     0.112 C 
HETATM   29  C22 UNL     1      31.661  12.825  44.496  1.00  0.00     0.026 C 
ENDBRANCH  25  28
ENDBRANCH  24  25
ENDBRANCH  23  24
ENDBRANCH  22  23
ENDBRANCH  17  22
BRANCH  18  30
HETATM   30  C24 UNL     1      30.933   9.239  48.585  1.00  0.00    -0.002 A 
HETATM   31  O3  UNL     1      30.805  10.392  48.787  1.00  0.00     0.000 OA
HETATM   32  C25 UNL     1      30.133  11.617  48.560  1.00  0.00     0.000 A 
HETATM   33  O4  UNL     1      30.912  10.539  48.923  1.00  0.00     0.000 OA
ENDBRANCH  18  30
TORSDOF 7
ENDMDL
