MODEL 1
REMARK VINA RESULT:      -7.8      0.000      0.000
REMARK  4 active torsions:
REMARK  status: ('A' for Active; 'I' for Inactive)
REMARK    1  A    between atoms: C3_4  and  C4_5 
REMARK    2  A    between atoms: C5_6  and  C6_8 
REMARK    3  A    between atoms: C6_8  and  C7_9 
REMARK    4  A    between atoms: C14_19  and  N3_20 
ROOT
HETATM    1  C4  UNL     1      25.389   0.618  52.284  1.00  0.00     0.028 C 
HETATM    2  C5  UNL     1      24.239   0.430  52.883  1.00  0.00     0.015 C 
HETATM    3 CL1  UNL     1      23.826  -0.626  54.217  1.00  0.00    -0.089 Cl
ENDROOT
BRANCH   1   4
HETATM    4  C3  UNL     1      26.604  -0.076  52.663  1.00  0.00    -0.034 A 
HETATM    5  C2  UNL     1      26.748  -1.545  52.526  1.00  0.00     0.102 A 
HETATM    6  C1  UNL     1      28.118  -1.929  53.001  1.00  0.00     0.075 A 
HETATM    7  N1  UNL     1      28.412  -3.189  52.944  1.00  0.00    -0.300 NA
HETATM    8  C14 UNL     1      29.140  -1.028  53.515  1.00  0.00     0.145 A 
HETATM    9  H1  UNL     1      27.691  -3.861  52.575  1.00  0.00     0.186 HD
HETATM   10  N2  UNL     1      28.881   0.232  53.582  1.00  0.00    -0.241 NA
HETATM   11  C13 UNL     1      27.606   0.671  53.148  1.00  0.00     0.126 A 
BRANCH   8  12
HETATM   12  N3  UNL     1      30.388  -1.534  53.931  1.00  0.00    -0.382 N 
HETATM   13  H12 UNL     1      31.345  -1.096  53.919  1.00  0.00     0.157 HD
HETATM   14  H13 UNL     1      30.115  -2.496  54.267  1.00  0.00     0.157 HD
ENDBRANCH   8  12
ENDBRANCH   1   4
BRANCH   2  15
HETATM   15  C6  UNL     1      22.989   1.113  52.529  1.00  0.00     0.079 C 
BRANCH  15  16
HETATM   16  C7  UNL     1      21.792   0.403  53.079  1.00  0.00    -0.003 C 
HETATM   17  C8  UNL     1      20.691   0.366  52.365  1.00  0.00     0.003 A 
HETATM   18  C9  UNL     1      19.492  -0.307  52.839  1.00  0.00     0.042 A 
HETATM   19  S1  UNL     1      20.598   1.143  50.760  1.00  0.00    -0.102 SA
HETATM   20  C10 UNL     1      18.312  -0.447  52.273  1.00  0.00     0.035 A 
HETATM   21 CL2  UNL     1      17.022  -1.313  53.064  1.00  0.00    -0.084 Cl
HETATM   22  C11 UNL     1      18.120   0.146  50.963  1.00  0.00     0.031 A 
HETATM   23  C12 UNL     1      18.936   0.832  50.189  1.00  0.00     0.052 A 
ENDBRANCH  15  16
ENDBRANCH   2  15
TORSDOF 4
ENDMDL
MODEL 2
REMARK VINA RESULT:      -7.6      1.427      2.048
REMARK  4 active torsions:
REMARK  status: ('A' for Active; 'I' for Inactive)
REMARK    1  A    between atoms: C3_4  and  C4_5 
REMARK    2  A    between atoms: C5_6  and  C6_8 
REMARK    3  A    between atoms: C6_8  and  C7_9 
REMARK    4  A    between atoms: C14_19  and  N3_20 
ROOT
HETATM    1  C4  UNL     1      24.294   0.064  53.560  1.00  0.00     0.028 C 
HETATM    2  C5  UNL     1      23.747   1.165  53.108  1.00  0.00     0.015 C 
HETATM    3 CL1  UNL     1      24.495   2.647  52.553  1.00  0.00    -0.089 Cl
ENDROOT
BRANCH   1   4
HETATM    4  C3  UNL     1      25.726  -0.119  53.681  1.00  0.00    -0.034 A 
HETATM    5  C2  UNL     1      26.572   0.798  54.481  1.00  0.00     0.102 A 
HETATM    6  C1  UNL     1      27.993   0.321  54.396  1.00  0.00     0.075 A 
HETATM    7  N1  UNL     1      28.870   1.015  55.050  1.00  0.00    -0.300 NA
HETATM    8  C14 UNL     1      28.473  -0.836  53.655  1.00  0.00     0.145 A 
HETATM    9  H1  UNL     1      28.547   1.857  55.593  1.00  0.00     0.186 HD
HETATM   10  N2  UNL     1      27.626  -1.549  52.997  1.00  0.00    -0.241 NA
HETATM   11  C13 UNL     1      26.264  -1.162  53.033  1.00  0.00     0.126 A 
BRANCH   8  12
HETATM   12  N3  UNL     1      29.845  -1.163  53.663  1.00  0.00    -0.382 N 
HETATM   13  H12 UNL     1      30.576  -1.039  54.412  1.00  0.00     0.157 HD
HETATM   14  H13 UNL     1      29.961  -1.576  52.700  1.00  0.00     0.157 HD
ENDBRANCH   8  12
ENDBRANCH   1   4
BRANCH   2  15
HETATM   15  C6  UNL     1      22.302   1.388  52.971  1.00  0.00     0.079 C 
BRANCH  15  16
HETATM   16  C7  UNL     1      21.508   0.235  53.497  1.00  0.00    -0.003 C 
HETATM   17  C8  UNL     1      20.314   0.005  53.002  1.00  0.00     0.003 A 
HETATM   18  C9  UNL     1      19.490  -1.099  53.467  1.00  0.00     0.042 A 
HETATM   19  S1  UNL     1      19.626   1.039  51.719  1.00  0.00    -0.102 SA
HETATM   20  C10 UNL     1      18.286  -1.481  53.096  1.00  0.00     0.035 A 
HETATM   21 CL2  UNL     1      17.506  -2.861  53.823  1.00  0.00    -0.084 Cl
HETATM   22  C11 UNL     1      17.628  -0.711  52.058  1.00  0.00     0.031 A 
HETATM   23  C12 UNL     1      18.017   0.348  51.378  1.00  0.00     0.052 A 
ENDBRANCH  15  16
ENDBRANCH   2  15
TORSDOF 4
ENDMDL
MODEL 3
REMARK VINA RESULT:      -7.6      5.200      7.382
REMARK  4 active torsions:
REMARK  status: ('A' for Active; 'I' for Inactive)
REMARK    1  A    between atoms: C3_4  and  C4_5 
REMARK    2  A    between atoms: C5_6  and  C6_8 
REMARK    3  A    between atoms: C6_8  and  C7_9 
REMARK    4  A    between atoms: C14_19  and  N3_20 
ROOT
HETATM    1  C4  UNL     1      24.731   1.261  51.601  1.00  0.00     0.028 C 
HETATM    2  C5  UNL     1      24.438   2.535  51.520  1.00  0.00     0.015 C 
HETATM    3 CL1  UNL     1      23.917   3.651  52.763  1.00  0.00    -0.089 Cl
ENDROOT
BRANCH   1   4
HETATM    4  C3  UNL     1      24.666   0.509  52.839  1.00  0.00    -0.034 A 
HETATM    5  C2  UNL     1      23.391  -0.042  53.359  1.00  0.00     0.102 A 
HETATM    6  C1  UNL     1      23.681  -0.760  54.644  1.00  0.00     0.075 A 
HETATM    7  N1  UNL     1      22.667  -1.310  55.234  1.00  0.00    -0.300 NA
HETATM    8  C14 UNL     1      24.980  -0.896  55.286  1.00  0.00     0.145 A 
HETATM    9  H1  UNL     1      21.716  -1.226  54.790  1.00  0.00     0.186 HD
HETATM   10  N2  UNL     1      26.009  -0.364  54.724  1.00  0.00    -0.241 NA
HETATM   11  C13 UNL     1      25.815   0.329  53.504  1.00  0.00     0.126 A 
BRANCH   8  12
HETATM   12  N3  UNL     1      25.101  -1.600  56.501  1.00  0.00    -0.382 N 
HETATM   13  H12 UNL     1      25.550  -2.529  56.715  1.00  0.00     0.157 HD
HETATM   14  H13 UNL     1      24.611  -0.944  57.165  1.00  0.00     0.157 HD
ENDBRANCH   8  12
ENDBRANCH   1   4
BRANCH   2  15
HETATM   15  C6  UNL     1      24.493   3.330  50.286  1.00  0.00     0.079 C 
BRANCH  15  16
HETATM   16  C7  UNL     1      25.873   3.371  49.711  1.00  0.00    -0.003 C 
HETATM   17  C8  UNL     1      26.374   4.526  49.338  1.00  0.00     0.003 A 
HETATM   18  C9  UNL     1      27.708   4.636  48.772  1.00  0.00     0.042 A 
HETATM   19  S1  UNL     1      25.441   6.039  49.505  1.00  0.00    -0.102 SA
HETATM   20  C10 UNL     1      28.370   5.692  48.347  1.00  0.00     0.035 A 
HETATM   21 CL2  UNL     1      29.984   5.554  47.701  1.00  0.00    -0.084 Cl
HETATM   22  C11 UNL     1      27.708   6.980  48.433  1.00  0.00     0.031 A 
HETATM   23  C12 UNL     1      26.515   7.318  48.877  1.00  0.00     0.052 A 
ENDBRANCH  15  16
ENDBRANCH   2  15
TORSDOF 4
ENDMDL
MODEL 4
REMARK VINA RESULT:      -7.5      2.883      3.624
REMARK  4 active torsions:
REMARK  status: ('A' for Active; 'I' for Inactive)
REMARK    1  A    between atoms: C3_4  and  C4_5 
REMARK    2  A    between atoms: C5_6  and  C6_8 
REMARK    3  A    between atoms: C6_8  and  C7_9 
REMARK    4  A    between atoms: C14_19  and  N3_20 
ROOT
HETATM    1  C4  UNL     1      25.276   0.504  52.514  1.00  0.00     0.028 C 
HETATM    2  C5  UNL     1      24.155   0.278  53.152  1.00  0.00     0.015 C 
HETATM    3 CL1  UNL     1      23.817  -0.811  54.480  1.00  0.00    -0.089 Cl
ENDROOT
BRANCH   1   4
HETATM    4  C3  UNL     1      26.520  -0.167  52.834  1.00  0.00    -0.034 A 
HETATM    5  C2  UNL     1      26.713  -1.619  52.606  1.00  0.00     0.102 A 
HETATM    6  C1  UNL     1      28.103  -1.982  53.038  1.00  0.00     0.075 A 
HETATM    7  N1  UNL     1      28.440  -3.225  52.900  1.00  0.00    -0.300 NA
HETATM    8  C14 UNL     1      29.100  -1.078  53.592  1.00  0.00     0.145 A 
HETATM    9  H1  UNL     1      27.736  -3.899  52.502  1.00  0.00     0.186 HD
HETATM   10  N2  UNL     1      28.799   0.166  53.739  1.00  0.00    -0.241 NA
HETATM   11  C13 UNL     1      27.503   0.585  53.350  1.00  0.00     0.126 A 
BRANCH   8  12
HETATM   12  N3  UNL     1      30.372  -1.563  53.959  1.00  0.00    -0.382 N 
HETATM   13  H12 UNL     1      31.326  -1.360  53.561  1.00  0.00     0.157 HD
HETATM   14  H13 UNL     1      30.122  -2.204  54.758  1.00  0.00     0.157 HD
ENDBRANCH   8  12
ENDBRANCH   1   4
BRANCH   2  15
HETATM   15  C6  UNL     1      22.876   0.937  52.859  1.00  0.00     0.079 C 
BRANCH  15  16
HETATM   16  C7  UNL     1      22.574   0.941  51.395  1.00  0.00    -0.003 C 
HETATM   17  C8  UNL     1      22.702   2.061  50.721  1.00  0.00     0.003 A 
HETATM   18  C9  UNL     1      22.426   2.134  49.295  1.00  0.00     0.042 A 
HETATM   19  S1  UNL     1      23.227   3.569  51.519  1.00  0.00    -0.102 SA
HETATM   20  C10 UNL     1      22.496   3.152  48.463  1.00  0.00     0.035 A 
HETATM   21 CL2  UNL     1      22.105   2.974  46.773  1.00  0.00    -0.084 Cl
HETATM   22  C11 UNL     1      22.912   4.432  49.003  1.00  0.00     0.031 A 
HETATM   23  C12 UNL     1      23.251   4.796  50.223  1.00  0.00     0.052 A 
ENDBRANCH  15  16
ENDBRANCH   2  15
TORSDOF 4
ENDMDL
MODEL 5
REMARK VINA RESULT:      -7.4      1.803      2.616
REMARK  4 active torsions:
REMARK  status: ('A' for Active; 'I' for Inactive)
REMARK    1  A    between atoms: C3_4  and  C4_5 
REMARK    2  A    between atoms: C5_6  and  C6_8 
REMARK    3  A    between atoms: C6_8  and  C7_9 
REMARK    4  A    between atoms: C14_19  and  N3_20 
ROOT
HETATM    1  C4  UNL     1      24.474   0.176  53.207  1.00  0.00     0.028 C 
HETATM    2  C5  UNL     1      23.769  -0.506  54.075  1.00  0.00     0.015 C 
HETATM    3 CL1  UNL     1      24.276  -1.339  55.528  1.00  0.00    -0.089 Cl
ENDROOT
BRANCH   1   4
HETATM    4  C3  UNL     1      25.906   0.368  53.323  1.00  0.00    -0.034 A 
HETATM    5  C2  UNL     1      26.499   1.678  53.681  1.00  0.00     0.102 A 
HETATM    6  C1  UNL     1      27.992   1.524  53.716  1.00  0.00     0.075 A 
HETATM    7  N1  UNL     1      28.670   2.585  54.021  1.00  0.00    -0.300 NA
HETATM    8  C14 UNL     1      28.742   0.307  53.444  1.00  0.00     0.145 A 
HETATM    9  H1  UNL     1      28.150   3.478  54.223  1.00  0.00     0.186 HD
HETATM   10  N2  UNL     1      28.098  -0.766  53.141  1.00  0.00    -0.241 NA
HETATM   11  C13 UNL     1      26.684  -0.699  53.090  1.00  0.00     0.126 A 
BRANCH   8  12
HETATM   12  N3  UNL     1      30.150   0.313  53.512  1.00  0.00    -0.382 N 
HETATM   13  H12 UNL     1      30.851   1.029  53.185  1.00  0.00     0.157 HD
HETATM   14  H13 UNL     1      30.334  -0.610  53.987  1.00  0.00     0.157 HD
ENDBRANCH   8  12
ENDBRANCH   1   4
BRANCH   2  15
HETATM   15  C6  UNL     1      22.319  -0.721  53.993  1.00  0.00     0.079 C 
BRANCH  15  16
HETATM   16  C7  UNL     1      21.719  -0.025  52.813  1.00  0.00    -0.003 C 
HETATM   17  C8  UNL     1      20.438  -0.174  52.569  1.00  0.00     0.003 A 
HETATM   18  C9  UNL     1      19.791   0.474  51.441  1.00  0.00     0.042 A 
HETATM   19  S1  UNL     1      19.406  -1.189  53.616  1.00  0.00    -0.102 SA
HETATM   20  C10 UNL     1      18.536   0.442  51.042  1.00  0.00     0.035 A 
HETATM   21 CL2  UNL     1      18.007   1.323  49.633  1.00  0.00    -0.084 Cl
HETATM   22  C11 UNL     1      17.605  -0.354  51.818  1.00  0.00     0.031 A 
HETATM   23  C12 UNL     1      17.775  -1.088  52.899  1.00  0.00     0.052 A 
ENDBRANCH  15  16
ENDBRANCH   2  15
TORSDOF 4
ENDMDL
MODEL 6
REMARK VINA RESULT:      -7.4      1.754      2.218
REMARK  4 active torsions:
REMARK  status: ('A' for Active; 'I' for Inactive)
REMARK    1  A    between atoms: C3_4  and  C4_5 
REMARK    2  A    between atoms: C5_6  and  C6_8 
REMARK    3  A    between atoms: C6_8  and  C7_9 
REMARK    4  A    between atoms: C14_19  and  N3_20 
ROOT
HETATM    1  C4  UNL     1      23.715   0.564  53.064  1.00  0.00     0.028 C 
HETATM    2  C5  UNL     1      22.770  -0.021  53.757  1.00  0.00     0.015 C 
HETATM    3 CL1  UNL     1      22.887  -1.125  55.110  1.00  0.00    -0.089 Cl
ENDROOT
BRANCH   1   4
HETATM    4  C3  UNL     1      25.127   0.375  53.330  1.00  0.00    -0.034 A 
HETATM    5  C2  UNL     1      25.825  -0.895  53.014  1.00  0.00     0.102 A 
HETATM    6  C1  UNL     1      27.265  -0.750  53.410  1.00  0.00     0.075 A 
HETATM    7  N1  UNL     1      28.024  -1.778  53.194  1.00  0.00    -0.300 NA
HETATM    8  C14 UNL     1      27.884   0.424  54.007  1.00  0.00     0.145 A 
HETATM    9  H1  UNL     1      27.600  -2.639  52.763  1.00  0.00     0.186 HD
HETATM   10  N2  UNL     1      27.158   1.464  54.231  1.00  0.00    -0.241 NA
HETATM   11  C13 UNL     1      25.787   1.403  53.880  1.00  0.00     0.126 A 
BRANCH   8  12
HETATM   12  N3  UNL     1      29.256   0.414  54.331  1.00  0.00    -0.382 N 
HETATM   13  H12 UNL     1      30.042   1.037  54.009  1.00  0.00     0.157 HD
HETATM   14  H13 UNL     1      29.301  -0.401  54.999  1.00  0.00     0.157 HD
ENDBRANCH   8  12
ENDBRANCH   1   4
BRANCH   2  15
HETATM   15  C6  UNL     1      21.331   0.147  53.519  1.00  0.00     0.079 C 
BRANCH  15  16
HETATM   16  C7  UNL     1      20.557  -1.075  53.901  1.00  0.00    -0.003 C 
HETATM   17  C8  UNL     1      19.347  -1.239  53.418  1.00  0.00     0.003 A 
HETATM   18  C9  UNL     1      18.542  -2.404  53.748  1.00  0.00     0.042 A 
HETATM   19  S1  UNL     1      18.615  -0.037  52.320  1.00  0.00    -0.102 SA
HETATM   20  C10 UNL     1      17.326  -2.736  53.367  1.00  0.00     0.035 A 
HETATM   21 CL2  UNL     1      16.573  -4.211  53.914  1.00  0.00    -0.084 Cl
HETATM   22  C11 UNL     1      16.632  -1.831  52.472  1.00  0.00     0.031 A 
HETATM   23  C12 UNL     1      16.996  -0.683  51.938  1.00  0.00     0.052 A 
ENDBRANCH  15  16
ENDBRANCH   2  15
TORSDOF 4
ENDMDL
MODEL 7
REMARK VINA RESULT:      -7.3      5.726      7.683
REMARK  4 active torsions:
REMARK  status: ('A' for Active; 'I' for Inactive)
REMARK    1  A    between atoms: C3_4  and  C4_5 
REMARK    2  A    between atoms: C5_6  and  C6_8 
REMARK    3  A    between atoms: C6_8  and  C7_9 
REMARK    4  A    between atoms: C14_19  and  N3_20 
ROOT
HETATM    1  C4  UNL     1      26.508   2.611  50.771  1.00  0.00     0.028 C 
HETATM    2  C5  UNL     1      25.438   3.366  50.784  1.00  0.00     0.015 C 
HETATM    3 CL1  UNL     1      24.206   3.548  52.015  1.00  0.00    -0.089 Cl
ENDROOT
BRANCH   1   4
HETATM    4  C3  UNL     1      26.875   1.734  51.865  1.00  0.00    -0.034 A 
HETATM    5  C2  UNL     1      26.524   0.294  51.871  1.00  0.00     0.102 A 
HETATM    6  C1  UNL     1      27.053  -0.313  53.138  1.00  0.00     0.075 A 
HETATM    7  N1  UNL     1      26.835  -1.579  53.301  1.00  0.00    -0.300 NA
HETATM    8  C14 UNL     1      27.783   0.380  54.190  1.00  0.00     0.145 A 
HETATM    9  H1  UNL     1      26.310  -2.103  52.554  1.00  0.00     0.186 HD
HETATM   10  N2  UNL     1      28.019   1.639  54.057  1.00  0.00    -0.241 NA
HETATM   11  C13 UNL     1      27.552   2.282  52.884  1.00  0.00     0.126 A 
BRANCH   8  12
HETATM   12  N3  UNL     1      28.218  -0.323  55.332  1.00  0.00    -0.382 N 
HETATM   13  H12 UNL     1      29.140  -0.789  55.541  1.00  0.00     0.157 HD
HETATM   14  H13 UNL     1      27.362  -0.265  55.945  1.00  0.00     0.157 HD
ENDBRANCH   8  12
ENDBRANCH   1   4
BRANCH   2  15
HETATM   15  C6  UNL     1      25.034   4.266  49.697  1.00  0.00     0.079 C 
BRANCH  15  16
HETATM   16  C7  UNL     1      26.211   4.768  48.923  1.00  0.00    -0.003 C 
HETATM   17  C8  UNL     1      26.563   6.027  49.044  1.00  0.00     0.003 A 
HETATM   18  C9  UNL     1      27.697   6.579  48.321  1.00  0.00     0.042 A 
HETATM   19  S1  UNL     1      25.666   7.143  50.110  1.00  0.00    -0.102 SA
HETATM   20  C10 UNL     1      28.193   7.798  48.314  1.00  0.00     0.035 A 
HETATM   21 CL2  UNL     1      29.583   8.209  47.344  1.00  0.00    -0.084 Cl
HETATM   22  C11 UNL     1      27.542   8.793  49.145  1.00  0.00     0.031 A 
HETATM   23  C12 UNL     1      26.500   8.712  49.946  1.00  0.00     0.052 A 
ENDBRANCH  15  16
ENDBRANCH   2  15
TORSDOF 4
ENDMDL
MODEL 8
REMARK VINA RESULT:      -7.2      1.812      2.071
REMARK  4 active torsions:
REMARK  status: ('A' for Active; 'I' for Inactive)
REMARK    1  A    between atoms: C3_4  and  C4_5 
REMARK    2  A    between atoms: C5_6  and  C6_8 
REMARK    3  A    between atoms: C6_8  and  C7_9 
REMARK    4  A    between atoms: C14_19  and  N3_20 
ROOT
HETATM    1  C4  UNL     1      25.697   1.016  53.383  1.00  0.00     0.028 C 
HETATM    2  C5  UNL     1      25.510   1.901  52.435  1.00  0.00     0.015 C 
HETATM    3 CL1  UNL     1      26.519   2.311  51.066  1.00  0.00    -0.089 Cl
ENDROOT
BRANCH   1   4
HETATM    4  C3  UNL     1      26.866   0.163  53.453  1.00  0.00    -0.034 A 
HETATM    5  C2  UNL     1      26.845  -1.243  52.984  1.00  0.00     0.102 A 
HETATM    6  C1  UNL     1      28.210  -1.829  53.197  1.00  0.00     0.075 A 
HETATM    7  N1  UNL     1      28.366  -3.062  52.832  1.00  0.00    -0.300 NA
HETATM    8  C14 UNL     1      29.364  -1.150  53.768  1.00  0.00     0.145 A 
HETATM    9  H1  UNL     1      27.547  -3.576  52.416  1.00  0.00     0.186 HD
HETATM   10  N2  UNL     1      29.243   0.078  54.137  1.00  0.00    -0.241 NA
HETATM   11  C13 UNL     1      27.983   0.701  53.965  1.00  0.00     0.126 A 
BRANCH   8  12
HETATM   12  N3  UNL     1      30.589  -1.832  53.910  1.00  0.00    -0.382 N 
HETATM   13  H12 UNL     1      31.537  -1.636  53.493  1.00  0.00     0.157 HD
HETATM   14  H13 UNL     1      30.311  -2.616  54.559  1.00  0.00     0.157 HD
ENDBRANCH   8  12
ENDBRANCH   1   4
BRANCH   2  15
HETATM   15  C6  UNL     1      24.339   2.781  52.329  1.00  0.00     0.079 C 
BRANCH  15  16
HETATM   16  C7  UNL     1      23.067   2.055  52.632  1.00  0.00    -0.003 C 
HETATM   17  C8  UNL     1      22.255   1.755  51.645  1.00  0.00     0.003 A 
HETATM   18  C9  UNL     1      21.004   1.050  51.869  1.00  0.00     0.042 A 
HETATM   19  S1  UNL     1      22.641   2.196  49.958  1.00  0.00    -0.102 SA
HETATM   20  C10 UNL     1      20.075   0.668  51.017  1.00  0.00     0.035 A 
HETATM   21 CL2  UNL     1      18.645  -0.176  51.550  1.00  0.00    -0.084 Cl
HETATM   22  C11 UNL     1      20.282   0.975  49.615  1.00  0.00     0.031 A 
HETATM   23  C12 UNL     1      21.267   1.592  48.994  1.00  0.00     0.052 A 
ENDBRANCH  15  16
ENDBRANCH   2  15
TORSDOF 4
ENDMDL
MODEL 9
REMARK VINA RESULT:      -7.2      2.423      3.044
REMARK  4 active torsions:
REMARK  status: ('A' for Active; 'I' for Inactive)
REMARK    1  A    between atoms: C3_4  and  C4_5 
REMARK    2  A    between atoms: C5_6  and  C6_8 
REMARK    3  A    between atoms: C6_8  and  C7_9 
REMARK    4  A    between atoms: C14_19  and  N3_20 
ROOT
HETATM    1  C4  UNL     1      23.825   0.574  52.666  1.00  0.00     0.028 C 
HETATM    2  C5  UNL     1      22.868  -0.082  53.274  1.00  0.00     0.015 C 
HETATM    3 CL1  UNL     1      22.918  -1.045  54.734  1.00  0.00    -0.089 Cl
ENDROOT
BRANCH   1   4
HETATM    4  C3  UNL     1      25.192   0.611  53.146  1.00  0.00    -0.034 A 
HETATM    5  C2  UNL     1      26.067  -0.586  53.122  1.00  0.00     0.102 A 
HETATM    6  C1  UNL     1      27.405  -0.200  53.682  1.00  0.00     0.075 A 
HETATM    7  N1  UNL     1      28.298  -1.138  53.729  1.00  0.00    -0.300 NA
HETATM    8  C14 UNL     1      27.791   1.115  54.174  1.00  0.00     0.145 A 
HETATM    9  H1  UNL     1      28.044  -2.097  53.380  1.00  0.00     0.186 HD
HETATM   10  N2  UNL     1      26.927   2.069  54.138  1.00  0.00    -0.241 NA
HETATM   11  C13 UNL     1      25.641   1.782  53.618  1.00  0.00     0.126 A 
BRANCH   8  12
HETATM   12  N3  UNL     1      29.089   1.330  54.678  1.00  0.00    -0.382 N 
HETATM   13  H12 UNL     1      29.826   2.030  54.402  1.00  0.00     0.157 HD
HETATM   14  H13 UNL     1      29.142   0.588  55.426  1.00  0.00     0.157 HD
ENDBRANCH   8  12
ENDBRANCH   1   4
BRANCH   2  15
HETATM   15  C6  UNL     1      21.474  -0.141  52.820  1.00  0.00     0.079 C 
BRANCH  15  16
HETATM   16  C7  UNL     1      21.347   0.185  51.366  1.00  0.00    -0.003 C 
HETATM   17  C8  UNL     1      20.721   1.283  51.012  1.00  0.00     0.003 A 
HETATM   18  C9  UNL     1      20.562   1.661  49.617  1.00  0.00     0.042 A 
HETATM   19  S1  UNL     1      20.023   2.387  52.230  1.00  0.00    -0.102 SA
HETATM   20  C10 UNL     1      19.974   2.708  49.077  1.00  0.00     0.035 A 
HETATM   21 CL2  UNL     1      19.921   2.930  47.349  1.00  0.00    -0.084 Cl
HETATM   22  C11 UNL     1      19.370   3.674  49.973  1.00  0.00     0.031 A 
HETATM   23  C12 UNL     1      19.289   3.713  51.288  1.00  0.00     0.052 A 
ENDBRANCH  15  16
ENDBRANCH   2  15
TORSDOF 4
ENDMDL
