MODEL 1
REMARK VINA RESULT:      -7.9      0.000      0.000
REMARK  5 active torsions:
REMARK  status: ('A' for Active; 'I' for Inactive)
REMARK    1  A    between atoms: C2_2  and  O1_3 
REMARK    2  A    between atoms: C2_2  and  N1_4 
REMARK    3  A    between atoms: N1_4  and  C3_5 
REMARK    4  A    between atoms: C8_12  and  N4_13 
REMARK    5  A    between atoms: N4_13  and  C9_14 
ROOT
HETATM    1  C3  UNL     1      26.881   0.299  52.775  1.00  0.00     0.014 C 
HETATM    2  C4  UNL     1      27.812  -0.638  52.761  1.00  0.00     0.026 C 
HETATM    3  C5  UNL     1      29.079  -1.075  53.409  1.00  0.00     0.021 C 
HETATM    4  C6  UNL     1      29.481  -0.321  54.459  1.00  0.00     0.118 C 
HETATM    5  N2  UNL     1      28.374   0.609  54.459  1.00  0.00    -0.254 NA
HETATM    6  C7  UNL     1      27.221   0.084  54.829  1.00  0.00     0.234 C 
HETATM    7  N3  UNL     1      25.914  -0.326  55.200  1.00  0.00    -0.228 NA
HETATM    8  C8  UNL     1      25.105  -0.595  54.141  1.00  0.00     0.111 C 
HETATM    9  C15 UNL     1      25.562  -0.503  52.667  1.00  0.00     0.135 C 
ENDROOT
BRANCH   8  10
HETATM   10  N4  UNL     1      23.838  -0.992  54.606  1.00  0.00    -0.344 N 
HETATM   11  H11 UNL     1      23.890  -1.686  55.374  1.00  0.00     0.167 HD
BRANCH  10  12
HETATM   12  C9  UNL     1      22.681  -0.434  54.032  1.00  0.00     0.035 A 
HETATM   13  C10 UNL     1      22.439   0.732  53.368  1.00  0.00     0.032 A 
HETATM   14  C11 UNL     1      21.240   1.108  52.852  1.00  0.00     0.046 A 
HETATM   15  C12 UNL     1      20.151   0.269  52.989  1.00  0.00     0.138 A 
HETATM   16  F1  UNL     1      18.956   0.662  52.465  1.00  0.00    -0.204 F 
HETATM   17  C13 UNL     1      20.339  -0.924  53.652  1.00  0.00     0.074 A 
HETATM   18 CL1  UNL     1      18.923  -1.943  53.792  1.00  0.00    -0.081 Cl
HETATM   19  C14 UNL     1      21.579  -1.281  54.169  1.00  0.00     0.056 A 
ENDBRANCH  10  12
ENDBRANCH   8  10
BRANCH   1  20
HETATM   20  N1  UNL     1      26.030   1.384  52.959  1.00  0.00    -0.367 N 
HETATM   21  H6  UNL     1      25.159   1.603  53.471  1.00  0.00     0.162 HD
BRANCH  20  22
HETATM   22  C2  UNL     1      26.639   2.437  52.190  1.00  0.00     0.213 C 
HETATM   23  C1  UNL     1      26.432   2.179  50.711  1.00  0.00     0.063 C 
BRANCH  22  24
HETATM   24  O1  UNL     1      27.943   2.710  52.441  1.00  0.00    -0.377 OA
HETATM   25  H5  UNL     1      28.090   3.442  53.123  1.00  0.00     0.212 HD
ENDBRANCH  22  24
ENDBRANCH  20  22
ENDBRANCH   1  20
TORSDOF 5
ENDMDL
MODEL 2
REMARK VINA RESULT:      -7.6      2.571      3.925
REMARK  5 active torsions:
REMARK  status: ('A' for Active; 'I' for Inactive)
REMARK    1  A    between atoms: C2_2  and  O1_3 
REMARK    2  A    between atoms: C2_2  and  N1_4 
REMARK    3  A    between atoms: N1_4  and  C3_5 
REMARK    4  A    between atoms: C8_12  and  N4_13 
REMARK    5  A    between atoms: N4_13  and  C9_14 
ROOT
HETATM    1  C3  UNL     1      26.415   0.132  54.455  1.00  0.00     0.014 C 
HETATM    2  C4  UNL     1      27.711   0.226  54.691  1.00  0.00     0.026 C 
HETATM    3  C5  UNL     1      29.037  -0.345  54.330  1.00  0.00     0.021 C 
HETATM    4  C6  UNL     1      29.015  -1.286  53.357  1.00  0.00     0.118 C 
HETATM    5  N2  UNL     1      27.593  -1.260  53.100  1.00  0.00    -0.254 NA
HETATM    6  C7  UNL     1      27.164  -0.152  52.523  1.00  0.00     0.234 C 
HETATM    7  N3  UNL     1      26.547   0.968  51.908  1.00  0.00    -0.228 NA
HETATM    8  C8  UNL     1      25.950   1.813  52.790  1.00  0.00     0.111 C 
HETATM    9  C15 UNL     1      25.965   1.607  54.322  1.00  0.00     0.135 C 
ENDROOT
BRANCH   8  10
HETATM   10  N4  UNL     1      25.370   2.889  52.091  1.00  0.00    -0.344 N 
HETATM   11  H11 UNL     1      25.747   3.809  52.385  1.00  0.00     0.167 HD
BRANCH  10  12
HETATM   12  C9  UNL     1      24.401   2.634  51.105  1.00  0.00     0.035 A 
HETATM   13  C10 UNL     1      24.242   3.063  49.821  1.00  0.00     0.032 A 
HETATM   14  C11 UNL     1      23.237   2.690  48.986  1.00  0.00     0.046 A 
HETATM   15  C12 UNL     1      22.276   1.807  49.437  1.00  0.00     0.138 A 
HETATM   16  F1  UNL     1      21.274   1.444  48.587  1.00  0.00    -0.204 F 
HETATM   17  C13 UNL     1      22.387   1.341  50.728  1.00  0.00     0.074 A 
HETATM   18 CL1  UNL     1      21.140   0.224  51.241  1.00  0.00    -0.081 Cl
HETATM   19  C14 UNL     1      23.428   1.740  51.558  1.00  0.00     0.056 A 
ENDBRANCH  10  12
ENDBRANCH   8  10
BRANCH   1  20
HETATM   20  N1  UNL     1      25.108  -0.145  54.065  1.00  0.00    -0.367 N 
HETATM   21  H6  UNL     1      24.441   0.159  53.337  1.00  0.00     0.162 HD
BRANCH  20  22
HETATM   22  C2  UNL     1      24.675  -1.157  54.991  1.00  0.00     0.213 C 
HETATM   23  C1  UNL     1      23.163  -1.140  55.100  1.00  0.00     0.063 C 
BRANCH  22  24
HETATM   24  O1  UNL     1      25.234  -1.143  56.226  1.00  0.00    -0.377 OA
HETATM   25  H5  UNL     1      25.071  -1.983  56.766  1.00  0.00     0.212 HD
ENDBRANCH  22  24
ENDBRANCH  20  22
ENDBRANCH   1  20
TORSDOF 5
ENDMDL
MODEL 3
REMARK VINA RESULT:      -7.5      3.015      4.212
REMARK  5 active torsions:
REMARK  status: ('A' for Active; 'I' for Inactive)
REMARK    1  A    between atoms: C2_2  and  O1_3 
REMARK    2  A    between atoms: C2_2  and  N1_4 
REMARK    3  A    between atoms: N1_4  and  C3_5 
REMARK    4  A    between atoms: C8_12  and  N4_13 
REMARK    5  A    between atoms: N4_13  and  C9_14 
ROOT
HETATM    1  C3  UNL     1      26.519   0.091  54.496  1.00  0.00     0.014 C 
HETATM    2  C4  UNL     1      27.829   0.148  54.646  1.00  0.00     0.026 C 
HETATM    3  C5  UNL     1      29.111  -0.478  54.220  1.00  0.00     0.021 C 
HETATM    4  C6  UNL     1      28.995  -1.447  53.281  1.00  0.00     0.118 C 
HETATM    5  N2  UNL     1      27.561  -1.380  53.114  1.00  0.00    -0.254 NA
HETATM    6  C7  UNL     1      27.132  -0.277  52.530  1.00  0.00     0.234 C 
HETATM    7  N3  UNL     1      26.513   0.845  51.920  1.00  0.00    -0.228 NA
HETATM    8  C8  UNL     1      26.001   1.736  52.810  1.00  0.00     0.111 C 
HETATM    9  C15 UNL     1      26.109   1.576  54.344  1.00  0.00     0.135 C 
ENDROOT
BRANCH   8  10
HETATM   10  N4  UNL     1      25.412   2.809  52.116  1.00  0.00    -0.344 N 
HETATM   11  H11 UNL     1      26.109   3.414  51.642  1.00  0.00     0.167 HD
BRANCH  10  12
HETATM   12  C9  UNL     1      24.013   2.950  52.113  1.00  0.00     0.035 A 
HETATM   13  C10 UNL     1      22.989   2.093  52.388  1.00  0.00     0.032 A 
HETATM   14  C11 UNL     1      21.668   2.409  52.355  1.00  0.00     0.046 A 
HETATM   15  C12 UNL     1      21.289   3.695  52.019  1.00  0.00     0.138 A 
HETATM   16  F1  UNL     1      19.960   3.995  51.991  1.00  0.00    -0.204 F 
HETATM   17  C13 UNL     1      22.283   4.603  51.730  1.00  0.00     0.074 A 
HETATM   18 CL1  UNL     1      21.740   6.213  51.312  1.00  0.00    -0.081 Cl
HETATM   19  C14 UNL     1      23.627   4.248  51.773  1.00  0.00     0.056 A 
ENDBRANCH  10  12
ENDBRANCH   8  10
BRANCH   1  20
HETATM   20  N1  UNL     1      25.182  -0.152  54.199  1.00  0.00    -0.367 N 
HETATM   21  H6  UNL     1      24.471   0.172  53.522  1.00  0.00     0.162 HD
BRANCH  20  22
HETATM   22  C2  UNL     1      24.792  -1.160  55.149  1.00  0.00     0.213 C 
HETATM   23  C1  UNL     1      23.280  -1.221  55.243  1.00  0.00     0.063 C 
BRANCH  22  24
HETATM   24  O1  UNL     1      25.335  -1.083  56.389  1.00  0.00    -0.377 OA
HETATM   25  H5  UNL     1      25.380  -1.967  56.879  1.00  0.00     0.212 HD
ENDBRANCH  22  24
ENDBRANCH  20  22
ENDBRANCH   1  20
TORSDOF 5
ENDMDL
MODEL 4
REMARK VINA RESULT:      -7.4      3.919      5.688
REMARK  5 active torsions:
REMARK  status: ('A' for Active; 'I' for Inactive)
REMARK    1  A    between atoms: C2_2  and  O1_3 
REMARK    2  A    between atoms: C2_2  and  N1_4 
REMARK    3  A    between atoms: N1_4  and  C3_5 
REMARK    4  A    between atoms: C8_12  and  N4_13 
REMARK    5  A    between atoms: N4_13  and  C9_14 
ROOT
HETATM    1  C3  UNL     1      26.136   0.105  54.366  1.00  0.00     0.014 C 
HETATM    2  C4  UNL     1      27.329   0.595  54.645  1.00  0.00     0.026 C 
HETATM    3  C5  UNL     1      28.789   0.323  54.542  1.00  0.00     0.021 C 
HETATM    4  C6  UNL     1      29.120  -0.807  53.872  1.00  0.00     0.118 C 
HETATM    5  N2  UNL     1      27.778  -1.224  53.530  1.00  0.00    -0.254 NA
HETATM    6  C7  UNL     1      27.178  -0.454  52.640  1.00  0.00     0.234 C 
HETATM    7  N3  UNL     1      26.400   0.269  51.700  1.00  0.00    -0.228 NA
HETATM    8  C8  UNL     1      25.508   1.121  52.271  1.00  0.00     0.111 C 
HETATM    9  C15 UNL     1      25.370   1.324  53.797  1.00  0.00     0.135 C 
ENDROOT
BRANCH   8  10
HETATM   10  N4  UNL     1      24.787   1.791  51.265  1.00  0.00    -0.344 N 
HETATM   11  H11 UNL     1      23.849   1.378  51.099  1.00  0.00     0.167 HD
BRANCH  10  12
HETATM   12  C9  UNL     1      25.360   2.903  50.623  1.00  0.00     0.035 A 
HETATM   13  C10 UNL     1      26.421   3.048  49.780  1.00  0.00     0.032 A 
HETATM   14  C11 UNL     1      26.830   4.219  49.225  1.00  0.00     0.046 A 
HETATM   15  C12 UNL     1      26.141   5.381  49.513  1.00  0.00     0.138 A 
HETATM   16  F1  UNL     1      26.564   6.547  48.948  1.00  0.00    -0.204 F 
HETATM   17  C13 UNL     1      25.059   5.292  50.360  1.00  0.00     0.074 A 
HETATM   18 CL1  UNL     1      24.227   6.798  50.686  1.00  0.00    -0.081 Cl
HETATM   19  C14 UNL     1      24.664   4.079  50.912  1.00  0.00     0.056 A 
ENDBRANCH  10  12
ENDBRANCH   8  10
BRANCH   1  20
HETATM   20  N1  UNL     1      24.996  -0.597  53.989  1.00  0.00    -0.367 N 
HETATM   21  H6  UNL     1      24.401  -0.709  53.150  1.00  0.00     0.162 HD
BRANCH  20  22
HETATM   22  C2  UNL     1      24.647  -1.353  55.163  1.00  0.00     0.213 C 
HETATM   23  C1  UNL     1      23.156  -1.253  55.414  1.00  0.00     0.063 C 
BRANCH  22  24
HETATM   24  O1  UNL     1      25.334  -1.078  56.299  1.00  0.00    -0.377 OA
HETATM   25  H5  UNL     1      25.589  -1.896  56.838  1.00  0.00     0.212 HD
ENDBRANCH  22  24
ENDBRANCH  20  22
ENDBRANCH   1  20
TORSDOF 5
ENDMDL
MODEL 5
REMARK VINA RESULT:      -7.4      4.012      6.399
REMARK  5 active torsions:
REMARK  status: ('A' for Active; 'I' for Inactive)
REMARK    1  A    between atoms: C2_2  and  O1_3 
REMARK    2  A    between atoms: C2_2  and  N1_4 
REMARK    3  A    between atoms: N1_4  and  C3_5 
REMARK    4  A    between atoms: C8_12  and  N4_13 
REMARK    5  A    between atoms: N4_13  and  C9_14 
ROOT
HETATM    1  C3  UNL     1      23.794   3.218  51.753  1.00  0.00     0.014 C 
HETATM    2  C4  UNL     1      22.653   3.744  52.158  1.00  0.00     0.026 C 
HETATM    3  C5  UNL     1      21.207   3.867  51.826  1.00  0.00     0.021 C 
HETATM    4  C6  UNL     1      20.800   3.158  50.746  1.00  0.00     0.118 C 
HETATM    5  N2  UNL     1      22.074   2.553  50.427  1.00  0.00    -0.254 NA
HETATM    6  C7  UNL     1      22.483   1.652  51.301  1.00  0.00     0.234 C 
HETATM    7  N3  UNL     1      23.061   0.665  52.141  1.00  0.00    -0.228 NA
HETATM    8  C8  UNL     1      24.012   1.154  52.981  1.00  0.00     0.111 C 
HETATM    9  C15 UNL     1      24.409   2.647  53.053  1.00  0.00     0.135 C 
ENDROOT
BRANCH   8  10
HETATM   10  N4  UNL     1      24.524   0.108  53.772  1.00  0.00    -0.344 N 
HETATM   11  H11 UNL     1      23.840  -0.242  54.469  1.00  0.00     0.167 HD
BRANCH  10  12
HETATM   12  C9  UNL     1      25.833  -0.353  53.549  1.00  0.00     0.035 A 
HETATM   13  C10 UNL     1      26.343  -1.437  52.898  1.00  0.00     0.032 A 
HETATM   14  C11 UNL     1      27.663  -1.722  52.759  1.00  0.00     0.046 A 
HETATM   15  C12 UNL     1      28.601  -0.869  53.309  1.00  0.00     0.138 A 
HETATM   16  F1  UNL     1      29.922  -1.170  53.160  1.00  0.00    -0.204 F 
HETATM   17  C13 UNL     1      28.142   0.243  53.979  1.00  0.00     0.074 A 
HETATM   18 CL1  UNL     1      29.378   1.285  54.652  1.00  0.00    -0.081 Cl
HETATM   19  C14 UNL     1      26.783   0.508  54.103  1.00  0.00     0.056 A 
ENDBRANCH  10  12
ENDBRANCH   8  10
BRANCH   1  20
HETATM   20  N1  UNL     1      24.872   2.585  51.143  1.00  0.00    -0.367 N 
HETATM   21  H6  UNL     1      25.165   1.624  50.899  1.00  0.00     0.162 HD
BRANCH  20  22
HETATM   22  C2  UNL     1      25.750   3.666  50.779  1.00  0.00     0.213 C 
HETATM   23  C1  UNL     1      25.387   4.181  49.401  1.00  0.00     0.063 C 
BRANCH  22  24
HETATM   24  O1  UNL     1      27.083   3.430  50.855  1.00  0.00    -0.377 OA
HETATM   25  H5  UNL     1      27.501   3.127  49.985  1.00  0.00     0.212 HD
ENDBRANCH  22  24
ENDBRANCH  20  22
ENDBRANCH   1  20
TORSDOF 5
ENDMDL
MODEL 6
REMARK VINA RESULT:      -6.9      4.291      6.631
REMARK  5 active torsions:
REMARK  status: ('A' for Active; 'I' for Inactive)
REMARK    1  A    between atoms: C2_2  and  O1_3 
REMARK    2  A    between atoms: C2_2  and  N1_4 
REMARK    3  A    between atoms: N1_4  and  C3_5 
REMARK    4  A    between atoms: C8_12  and  N4_13 
REMARK    5  A    between atoms: N4_13  and  C9_14 
ROOT
HETATM    1  C3  UNL     1      23.793   4.667  50.681  1.00  0.00     0.014 C 
HETATM    2  C4  UNL     1      22.496   4.832  50.497  1.00  0.00     0.026 C 
HETATM    3  C5  UNL     1      21.377   4.551  49.557  1.00  0.00     0.021 C 
HETATM    4  C6  UNL     1      21.702   3.799  48.479  1.00  0.00     0.118 C 
HETATM    5  N2  UNL     1      23.096   3.593  48.805  1.00  0.00    -0.254 NA
HETATM    6  C7  UNL     1      23.301   2.812  49.850  1.00  0.00     0.234 C 
HETATM    7  N3  UNL     1      23.689   1.998  50.946  1.00  0.00    -0.228 NA
HETATM    8  C8  UNL     1      23.993   2.704  52.068  1.00  0.00     0.111 C 
HETATM    9  C15 UNL     1      23.895   4.244  52.166  1.00  0.00     0.135 C 
ENDROOT
BRANCH   8  10
HETATM   10  N4  UNL     1      24.363   1.817  53.096  1.00  0.00    -0.344 N 
HETATM   11  H11 UNL     1      23.573   1.576  53.723  1.00  0.00     0.167 HD
BRANCH  10  12
HETATM   12  C9  UNL     1      25.687   1.350  53.167  1.00  0.00     0.035 A 
HETATM   13  C10 UNL     1      26.871   1.948  53.481  1.00  0.00     0.032 A 
HETATM   14  C11 UNL     1      28.080   1.328  53.521  1.00  0.00     0.046 A 
HETATM   15  C12 UNL     1      28.158  -0.019  53.225  1.00  0.00     0.138 A 
HETATM   16  F1  UNL     1      29.378  -0.626  53.270  1.00  0.00    -0.204 F 
HETATM   17  C13 UNL     1      26.991  -0.675  52.900  1.00  0.00     0.074 A 
HETATM   18 CL1  UNL     1      27.156  -2.379  52.537  1.00  0.00    -0.081 Cl
HETATM   19  C14 UNL     1      25.770  -0.012  52.869  1.00  0.00     0.056 A 
ENDBRANCH  10  12
ENDBRANCH   8  10
BRANCH   1  20
HETATM   20  N1  UNL     1      25.157   4.392  50.665  1.00  0.00    -0.367 N 
HETATM   21  H6  UNL     1      25.806   3.689  51.058  1.00  0.00     0.162 HD
BRANCH  20  22
HETATM   22  C2  UNL     1      25.712   5.423  49.830  1.00  0.00     0.213 C 
HETATM   23  C1  UNL     1      26.828   4.851  48.980  1.00  0.00     0.063 C 
BRANCH  22  24
HETATM   24  O1  UNL     1      26.126   6.559  50.445  1.00  0.00    -0.377 OA
HETATM   25  H5  UNL     1      26.838   7.069  49.939  1.00  0.00     0.212 HD
ENDBRANCH  22  24
ENDBRANCH  20  22
ENDBRANCH   1  20
TORSDOF 5
ENDMDL
MODEL 7
REMARK VINA RESULT:      -6.8      4.554      6.735
REMARK  5 active torsions:
REMARK  status: ('A' for Active; 'I' for Inactive)
REMARK    1  A    between atoms: C2_2  and  O1_3 
REMARK    2  A    between atoms: C2_2  and  N1_4 
REMARK    3  A    between atoms: N1_4  and  C3_5 
REMARK    4  A    between atoms: C8_12  and  N4_13 
REMARK    5  A    between atoms: N4_13  and  C9_14 
ROOT
HETATM    1  C3  UNL     1      24.226   4.218  49.987  1.00  0.00     0.014 C 
HETATM    2  C4  UNL     1      25.062   5.238  50.041  1.00  0.00     0.026 C 
HETATM    3  C5  UNL     1      25.167   6.682  50.387  1.00  0.00     0.021 C 
HETATM    4  C6  UNL     1      24.045   7.235  50.905  1.00  0.00     0.118 C 
HETATM    5  N2  UNL     1      23.225   6.044  50.894  1.00  0.00    -0.254 NA
HETATM    6  C7  UNL     1      23.593   5.121  51.764  1.00  0.00     0.234 C 
HETATM    7  N3  UNL     1      23.858   4.037  52.640  1.00  0.00    -0.228 NA
HETATM    8  C8  UNL     1      24.551   3.023  52.056  1.00  0.00     0.111 C 
HETATM    9  C15 UNL     1      25.043   3.050  50.591  1.00  0.00     0.135 C 
ENDROOT
BRANCH   8  10
HETATM   10  N4  UNL     1      24.766   1.998  52.997  1.00  0.00    -0.344 N 
HETATM   11  H11 UNL     1      23.909   1.751  53.526  1.00  0.00     0.167 HD
BRANCH  10  12
HETATM   12  C9  UNL     1      26.044   1.425  53.118  1.00  0.00     0.035 A 
HETATM   13  C10 UNL     1      27.260   1.924  53.479  1.00  0.00     0.032 A 
HETATM   14  C11 UNL     1      28.411   1.207  53.564  1.00  0.00     0.046 A 
HETATM   15  C12 UNL     1      28.390  -0.143  53.268  1.00  0.00     0.138 A 
HETATM   16  F1  UNL     1      29.554  -0.847  53.359  1.00  0.00    -0.204 F 
HETATM   17  C13 UNL     1      27.187  -0.701  52.898  1.00  0.00     0.074 A 
HETATM   18 CL1  UNL     1      27.225  -2.413  52.537  1.00  0.00    -0.081 Cl
HETATM   19  C14 UNL     1      26.026   0.060  52.821  1.00  0.00     0.056 A 
ENDBRANCH  10  12
ENDBRANCH   8  10
BRANCH   1  20
HETATM   20  N1  UNL     1      23.183   3.297  50.001  1.00  0.00    -0.367 N 
HETATM   21  H6  UNL     1      22.548   2.861  50.692  1.00  0.00     0.162 HD
BRANCH  20  22
HETATM   22  C2  UNL     1      23.021   2.931  48.619  1.00  0.00     0.213 C 
HETATM   23  C1  UNL     1      22.369   4.069  47.860  1.00  0.00     0.063 C 
BRANCH  22  24
HETATM   24  O1  UNL     1      22.379   1.766  48.360  1.00  0.00    -0.377 OA
HETATM   25  H5  UNL     1      21.679   1.831  47.633  1.00  0.00     0.212 HD
ENDBRANCH  22  24
ENDBRANCH  20  22
ENDBRANCH   1  20
TORSDOF 5
ENDMDL
MODEL 8
REMARK VINA RESULT:      -6.8      4.092      5.683
REMARK  5 active torsions:
REMARK  status: ('A' for Active; 'I' for Inactive)
REMARK    1  A    between atoms: C2_2  and  O1_3 
REMARK    2  A    between atoms: C2_2  and  N1_4 
REMARK    3  A    between atoms: N1_4  and  C3_5 
REMARK    4  A    between atoms: C8_12  and  N4_13 
REMARK    5  A    between atoms: N4_13  and  C9_14 
ROOT
HETATM    1  C3  UNL     1      25.350   1.017  53.325  1.00  0.00     0.014 C 
HETATM    2  C4  UNL     1      26.327   0.984  54.211  1.00  0.00     0.026 C 
HETATM    3  C5  UNL     1      27.596   0.292  54.569  1.00  0.00     0.021 C 
HETATM    4  C6  UNL     1      28.019  -0.635  53.676  1.00  0.00     0.118 C 
HETATM    5  N2  UNL     1      26.955  -0.470  52.712  1.00  0.00    -0.254 NA
HETATM    6  C7  UNL     1      26.982   0.679  52.061  1.00  0.00     0.234 C 
HETATM    7  N3  UNL     1      26.872   1.859  51.281  1.00  0.00    -0.228 NA
HETATM    8  C8  UNL     1      25.966   2.750  51.765  1.00  0.00     0.111 C 
HETATM    9  C15 UNL     1      25.153   2.529  53.061  1.00  0.00     0.135 C 
ENDROOT
BRANCH   8  10
HETATM   10  N4  UNL     1      25.928   3.882  50.930  1.00  0.00    -0.344 N 
HETATM   11  H11 UNL     1      26.716   4.534  51.099  1.00  0.00     0.167 HD
BRANCH  10  12
HETATM   12  C9  UNL     1      24.894   4.014  49.986  1.00  0.00     0.035 A 
HETATM   13  C10 UNL     1      23.913   3.172  49.554  1.00  0.00     0.032 A 
HETATM   14  C11 UNL     1      22.965   3.478  48.630  1.00  0.00     0.046 A 
HETATM   15  C12 UNL     1      22.960   4.735  48.057  1.00  0.00     0.138 A 
HETATM   16  F1  UNL     1      22.001   5.025  47.132  1.00  0.00    -0.204 F 
HETATM   17  C13 UNL     1      23.930   5.627  48.456  1.00  0.00     0.074 A 
HETATM   18 CL1  UNL     1      23.870   7.202  47.695  1.00  0.00    -0.081 Cl
HETATM   19  C14 UNL     1      24.887   5.284  49.405  1.00  0.00     0.056 A 
ENDBRANCH  10  12
ENDBRANCH   8  10
BRANCH   1  20
HETATM   20  N1  UNL     1      24.430   0.870  52.291  1.00  0.00    -0.367 N 
HETATM   21  H6  UNL     1      24.431   0.833  51.257  1.00  0.00     0.162 HD
BRANCH  20  22
HETATM   22  C2  UNL     1      23.168   0.723  52.965  1.00  0.00     0.213 C 
HETATM   23  C1  UNL     1      23.073  -0.659  53.580  1.00  0.00     0.063 C 
BRANCH  22  24
HETATM   24  O1  UNL     1      22.050   0.994  52.248  1.00  0.00    -0.377 OA
HETATM   25  H5  UNL     1      21.882   1.981  52.098  1.00  0.00     0.212 HD
ENDBRANCH  22  24
ENDBRANCH  20  22
ENDBRANCH   1  20
TORSDOF 5
ENDMDL
MODEL 9
REMARK VINA RESULT:      -6.8      7.028      9.151
REMARK  5 active torsions:
REMARK  status: ('A' for Active; 'I' for Inactive)
REMARK    1  A    between atoms: C2_2  and  O1_3 
REMARK    2  A    between atoms: C2_2  and  N1_4 
REMARK    3  A    between atoms: N1_4  and  C3_5 
REMARK    4  A    between atoms: C8_12  and  N4_13 
REMARK    5  A    between atoms: N4_13  and  C9_14 
ROOT
HETATM    1  C3  UNL     1      30.728   8.046  48.208  1.00  0.00     0.014 C 
HETATM    2  C4  UNL     1      31.659   7.952  47.276  1.00  0.00     0.026 C 
HETATM    3  C5  UNL     1      33.097   7.644  47.047  1.00  0.00     0.021 C 
HETATM    4  C6  UNL     1      33.783   7.242  48.144  1.00  0.00     0.118 C 
HETATM    5  N2  UNL     1      32.683   7.286  49.082  1.00  0.00    -0.254 NA
HETATM    6  C7  UNL     1      31.763   6.359  48.887  1.00  0.00     0.234 C 
HETATM    7  N3  UNL     1      30.693   5.430  48.811  1.00  0.00    -0.228 NA
HETATM    8  C8  UNL     1      29.591   5.919  48.183  1.00  0.00     0.111 C 
HETATM    9  C15 UNL     1      29.509   7.337  47.572  1.00  0.00     0.135 C 
ENDROOT
BRANCH   8  10
HETATM   10  N4  UNL     1      28.589   4.932  48.155  1.00  0.00    -0.344 N 
HETATM   11  H11 UNL     1      28.886   4.070  47.661  1.00  0.00     0.167 HD
BRANCH  10  12
HETATM   12  C9  UNL     1      27.352   5.180  48.777  1.00  0.00     0.035 A 
HETATM   13  C10 UNL     1      26.573   6.293  48.893  1.00  0.00     0.032 A 
HETATM   14  C11 UNL     1      25.371   6.349  49.524  1.00  0.00     0.046 A 
HETATM   15  C12 UNL     1      24.861   5.207  50.111  1.00  0.00     0.138 A 
HETATM   16  F1  UNL     1      23.654   5.282  50.740  1.00  0.00    -0.204 F 
HETATM   17  C13 UNL     1      25.607   4.053  50.025  1.00  0.00     0.074 A 
HETATM   18 CL1  UNL     1      24.908   2.641  50.787  1.00  0.00    -0.081 Cl
HETATM   19  C14 UNL     1      26.834   4.027  49.371  1.00  0.00     0.056 A 
ENDBRANCH  10  12
ENDBRANCH   8  10
BRANCH   1  20
HETATM   20  N1  UNL     1      29.921   8.092  49.340  1.00  0.00    -0.367 N 
HETATM   21  H6  UNL     1      29.628   7.461  50.105  1.00  0.00     0.162 HD
BRANCH  20  22
HETATM   22  C2  UNL     1      29.422   9.441  49.357  1.00  0.00     0.213 C 
HETATM   23  C1  UNL     1      30.580  10.416  49.429  1.00  0.00     0.063 C 
BRANCH  22  24
HETATM   24  O1  UNL     1      28.495   9.745  50.298  1.00  0.00    -0.377 OA
HETATM   25  H5  UNL     1      28.779   9.530  51.245  1.00  0.00     0.212 HD
ENDBRANCH  22  24
ENDBRANCH  20  22
ENDBRANCH   1  20
TORSDOF 5
ENDMDL
