MODEL 1
REMARK VINA RESULT:      -9.2      0.000      0.000
REMARK  1 active torsions:
REMARK  status: ('A' for Active; 'I' for Inactive)
REMARK    1  A    between atoms: N1_2  and  C2_3 
ROOT
HETATM    1  C2  UNL     1      24.676   5.236  49.732  1.00  0.00     0.152 C 
HETATM    2  N2  UNL     1      23.360   5.191  49.930  1.00  0.00    -0.223 NA
HETATM    3  C3  UNL     1      22.589   4.037  49.529  1.00  0.00     0.229 C 
HETATM    4  N3  UNL     1      22.801   2.789  49.776  1.00  0.00    -0.276 NA
HETATM    5  C4  UNL     1      23.656   2.188  50.824  1.00  0.00     0.132 C 
HETATM    6  C5  UNL     1      25.021   2.496  50.835  1.00  0.00     0.071 A 
HETATM    7  C6  UNL     1      26.126   2.988  50.774  1.00  0.00     0.201 A 
HETATM    8  N4  UNL     1      26.816   1.789  51.326  1.00  0.00    -0.043 N 
HETATM    9  C7  UNL     1      27.765   2.108  52.413  1.00  0.00     0.267 C 
HETATM   10  C8  UNL     1      28.411   0.790  52.853  1.00  0.00     0.299 C 
HETATM   11  N5  UNL     1      27.327  -0.069  53.327  1.00  0.00     0.085 N 
HETATM   12  C9  UNL     1      27.901  -1.402  53.553  1.00  0.00     0.309 C 
HETATM   13  C10 UNL     1      26.833   0.409  54.621  1.00  0.00     0.272 C 
HETATM   14  C11 UNL     1      25.400  -0.162  54.779  1.00  0.00     0.035 C 
HETATM   15  C12 UNL     1      24.661   0.354  53.532  1.00  0.00     0.041 C 
HETATM   16  C13 UNL     1      23.242   0.098  53.454  1.00  0.00    -0.051 A 
HETATM   17  C14 UNL     1      22.730  -1.056  53.982  1.00  0.00     0.007 A 
HETATM   18  C15 UNL     1      21.356  -1.300  53.842  1.00  0.00     0.001 A 
HETATM   19  C16 UNL     1      20.623  -0.348  53.178  1.00  0.00     0.001 A 
HETATM   20  C17 UNL     1      21.253   0.772  52.691  1.00  0.00     0.008 A 
HETATM   21  C18 UNL     1      22.587   1.099  52.778  1.00  0.00    -0.046 A 
HETATM   22  C19 UNL     1      22.898   2.375  52.130  1.00  0.00     0.041 C 
HETATM   23  C20 UNL     1      23.593   3.320  53.075  1.00  0.00     0.017 C 
HETATM   24  C21 UNL     1      25.635   4.238  50.222  1.00  0.00     0.039 A 
HETATM   25  C22 UNL     1      26.377   3.272  50.691  1.00  0.00     0.247 A 
HETATM   26  H5  UNL     1      26.573   0.888  50.882  1.00  0.00     0.282 HD
ENDROOT
BRANCH   1  27
HETATM   27  N1  UNL     1      25.660   6.099  49.089  1.00  0.00    -0.269 NA
HETATM   28  C1  UNL     1      26.009   7.192  49.722  1.00  0.00     0.173 C 
ENDBRANCH   1  27
TORSDOF 1
ENDMDL
MODEL 2
REMARK VINA RESULT:      -9.1      2.628      6.080
REMARK  1 active torsions:
REMARK  status: ('A' for Active; 'I' for Inactive)
REMARK    1  A    between atoms: N1_2  and  C2_3 
ROOT
HETATM    1  C2  UNL     1      18.384  -0.178  52.668  1.00  0.00     0.152 C 
HETATM    2  N2  UNL     1      18.275   0.577  51.577  1.00  0.00    -0.223 NA
HETATM    3  C3  UNL     1      18.654   1.970  51.598  1.00  0.00     0.229 C 
HETATM    4  N3  UNL     1      19.745   2.512  52.025  1.00  0.00    -0.276 NA
HETATM    5  C4  UNL     1      21.058   1.874  52.269  1.00  0.00     0.132 C 
HETATM    6  C5  UNL     1      21.133   0.825  53.193  1.00  0.00     0.071 A 
HETATM    7  C6  UNL     1      20.977  -0.145  53.901  1.00  0.00     0.201 A 
HETATM    8  N4  UNL     1      22.339  -0.072  54.497  1.00  0.00    -0.043 N 
HETATM    9  C7  UNL     1      23.050  -1.368  54.490  1.00  0.00     0.267 C 
HETATM   10  C8  UNL     1      24.412  -1.141  55.157  1.00  0.00     0.299 C 
HETATM   11  N5  UNL     1      25.111  -0.145  54.349  1.00  0.00     0.085 N 
HETATM   12  C9  UNL     1      26.323   0.235  55.087  1.00  0.00     0.309 C 
HETATM   13  C10 UNL     1      25.551  -0.739  53.084  1.00  0.00     0.272 C 
HETATM   14  C11 UNL     1      25.760   0.440  52.098  1.00  0.00     0.035 C 
HETATM   15  C12 UNL     1      24.397   1.152  52.082  1.00  0.00     0.041 C 
HETATM   16  C13 UNL     1      24.228   2.233  51.140  1.00  0.00    -0.051 A 
HETATM   17  C14 UNL     1      25.292   3.034  50.828  1.00  0.00     0.007 A 
HETATM   18  C15 UNL     1      25.082   4.108  49.950  1.00  0.00     0.001 A 
HETATM   19  C16 UNL     1      23.808   4.271  49.465  1.00  0.00     0.001 A 
HETATM   20  C17 UNL     1      22.821   3.398  49.853  1.00  0.00     0.008 A 
HETATM   21  C18 UNL     1      22.928   2.321  50.704  1.00  0.00    -0.046 A 
HETATM   22  C19 UNL     1      21.654   1.622  50.892  1.00  0.00     0.041 C 
HETATM   23  C20 UNL     1      21.776   0.155  50.571  1.00  0.00     0.017 C 
HETATM   24  C21 UNL     1      19.619  -0.372  53.438  1.00  0.00     0.039 A 
HETATM   25  C22 UNL     1      20.772  -0.442  54.045  1.00  0.00     0.247 A 
HETATM   26  H5  UNL     1      22.621   0.853  54.860  1.00  0.00     0.282 HD
ENDROOT
BRANCH   1  27
HETATM   27  N1  UNL     1      17.545  -1.038  53.496  1.00  0.00    -0.269 NA
HETATM   28  C1  UNL     1      17.759  -2.329  53.435  1.00  0.00     0.173 C 
ENDBRANCH   1  27
TORSDOF 1
ENDMDL
MODEL 3
REMARK VINA RESULT:      -9.0      1.437      1.827
REMARK  1 active torsions:
REMARK  status: ('A' for Active; 'I' for Inactive)
REMARK    1  A    between atoms: N1_2  and  C2_3 
ROOT
HETATM    1  C2  UNL     1      25.426   6.079  48.944  1.00  0.00     0.152 C 
HETATM    2  N2  UNL     1      24.117   6.297  48.840  1.00  0.00    -0.223 NA
HETATM    3  C3  UNL     1      23.258   5.347  48.171  1.00  0.00     0.229 C 
HETATM    4  N3  UNL     1      23.167   4.071  48.338  1.00  0.00    -0.276 NA
HETATM    5  C4  UNL     1      23.620   3.258  49.489  1.00  0.00     0.132 C 
HETATM    6  C5  UNL     1      24.976   3.277  49.832  1.00  0.00     0.071 A 
HETATM    7  C6  UNL     1      26.137   3.533  50.066  1.00  0.00     0.201 A 
HETATM    8  N4  UNL     1      26.436   2.193  50.641  1.00  0.00    -0.043 N 
HETATM    9  C7  UNL     1      27.143   2.257  51.937  1.00  0.00     0.267 C 
HETATM   10  C8  UNL     1      27.406   0.814  52.383  1.00  0.00     0.299 C 
HETATM   11  N5  UNL     1      26.099   0.176  52.520  1.00  0.00     0.085 N 
HETATM   12  C9  UNL     1      26.340  -1.256  52.741  1.00  0.00     0.309 C 
HETATM   13  C10 UNL     1      25.412   0.682  53.711  1.00  0.00     0.272 C 
HETATM   14  C11 UNL     1      23.901   0.411  53.491  1.00  0.00     0.035 C 
HETATM   15  C12 UNL     1      23.589   1.127  52.166  1.00  0.00     0.041 C 
HETATM   16  C13 UNL     1      22.207   1.173  51.750  1.00  0.00    -0.051 A 
HETATM   17  C14 UNL     1      21.376   0.125  52.040  1.00  0.00     0.007 A 
HETATM   18  C15 UNL     1      20.054   0.176  51.576  1.00  0.00     0.001 A 
HETATM   19  C16 UNL     1      19.692   1.290  50.859  1.00  0.00     0.001 A 
HETATM   20  C17 UNL     1      20.619   2.278  50.632  1.00  0.00     0.008 A 
HETATM   21  C18 UNL     1      21.933   2.319  51.044  1.00  0.00    -0.046 A 
HETATM   22  C19 UNL     1      22.623   3.533  50.605  1.00  0.00     0.041 C 
HETATM   23  C20 UNL     1      23.241   4.269  51.766  1.00  0.00     0.017 C 
HETATM   24  C21 UNL     1      26.036   4.883  49.539  1.00  0.00     0.039 A 
HETATM   25  C22 UNL     1      26.449   3.764  50.068  1.00  0.00     0.247 A 
HETATM   26  H5  UNL     1      26.140   1.384  50.070  1.00  0.00     0.282 HD
ENDROOT
BRANCH   1  27
HETATM   27  N1  UNL     1      26.680   6.752  48.621  1.00  0.00    -0.269 NA
HETATM   28  C1  UNL     1      26.955   7.857  49.268  1.00  0.00     0.173 C 
ENDBRANCH   1  27
TORSDOF 1
ENDMDL
MODEL 4
REMARK VINA RESULT:      -9.0      2.792      7.406
REMARK  1 active torsions:
REMARK  status: ('A' for Active; 'I' for Inactive)
REMARK    1  A    between atoms: N1_2  and  C2_3 
ROOT
HETATM    1  C2  UNL     1      19.399  -0.158  52.911  1.00  0.00     0.152 C 
HETATM    2  N2  UNL     1      20.447  -0.109  53.730  1.00  0.00    -0.223 NA
HETATM    3  C3  UNL     1      21.726  -0.649  53.333  1.00  0.00     0.229 C 
HETATM    4  N3  UNL     1      22.396  -0.445  52.249  1.00  0.00    -0.276 NA
HETATM    5  C4  UNL     1      22.257   0.659  51.273  1.00  0.00     0.132 C 
HETATM    6  C5  UNL     1      21.027   0.835  50.629  1.00  0.00     0.071 A 
HETATM    7  C6  UNL     1      19.867   0.922  50.292  1.00  0.00     0.201 A 
HETATM    8  N4  UNL     1      20.180   1.484  48.950  1.00  0.00    -0.043 N 
HETATM    9  C7  UNL     1      19.384   2.684  48.617  1.00  0.00     0.267 C 
HETATM   10  C8  UNL     1      19.793   3.124  47.208  1.00  0.00     0.299 C 
HETATM   11  N5  UNL     1      21.221   3.431  47.265  1.00  0.00     0.085 N 
HETATM   12  C9  UNL     1      21.669   3.651  45.883  1.00  0.00     0.309 C 
HETATM   13  C10 UNL     1      21.438   4.686  47.989  1.00  0.00     0.272 C 
HETATM   14  C11 UNL     1      22.909   4.656  48.481  1.00  0.00     0.035 C 
HETATM   15  C12 UNL     1      22.992   3.364  49.311  1.00  0.00     0.041 C 
HETATM   16  C13 UNL     1      24.221   3.117  50.026  1.00  0.00    -0.051 A 
HETATM   17  C14 UNL     1      25.412   3.527  49.491  1.00  0.00     0.007 A 
HETATM   18  C15 UNL     1      26.593   3.224  50.184  1.00  0.00     0.001 A 
HETATM   19  C16 UNL     1      26.459   2.533  51.363  1.00  0.00     0.001 A 
HETATM   20  C17 UNL     1      25.205   2.176  51.798  1.00  0.00     0.008 A 
HETATM   21  C18 UNL     1      23.995   2.425  51.191  1.00  0.00    -0.046 A 
HETATM   22  C19 UNL     1      22.864   1.881  51.946  1.00  0.00     0.041 C 
HETATM   23  C20 UNL     1      21.840   2.944  52.251  1.00  0.00     0.017 C 
HETATM   24  C21 UNL     1      19.371   0.383  51.546  1.00  0.00     0.039 A 
HETATM   25  C22 UNL     1      19.485   0.881  50.346  1.00  0.00     0.247 A 
HETATM   26  H5  UNL     1      20.891   0.970  48.403  1.00  0.00     0.282 HD
ENDROOT
BRANCH   1  27
HETATM   27  N1  UNL     1      18.023  -0.644  52.917  1.00  0.00    -0.269 NA
HETATM   28  C1  UNL     1      17.800  -1.815  53.459  1.00  0.00     0.173 C 
ENDBRANCH   1  27
TORSDOF 1
ENDMDL
MODEL 5
REMARK VINA RESULT:      -8.8      1.976      6.129
REMARK  1 active torsions:
REMARK  status: ('A' for Active; 'I' for Inactive)
REMARK    1  A    between atoms: N1_2  and  C2_3 
ROOT
HETATM    1  C2  UNL     1      26.662   1.340  53.917  1.00  0.00     0.152 C 
HETATM    2  N2  UNL     1      27.144   2.388  53.253  1.00  0.00    -0.223 NA
HETATM    3  C3  UNL     1      27.178   2.400  51.809  1.00  0.00     0.229 C 
HETATM    4  N3  UNL     1      26.236   2.133  50.969  1.00  0.00    -0.276 NA
HETATM    5  C4  UNL     1      24.775   2.102  51.201  1.00  0.00     0.132 C 
HETATM    6  C5  UNL     1      24.266   1.220  52.160  1.00  0.00     0.071 A 
HETATM    7  C6  UNL     1      24.032   0.513  53.115  1.00  0.00     0.201 A 
HETATM    8  N4  UNL     1      22.673   0.129  52.643  1.00  0.00    -0.043 N 
HETATM    9  C7  UNL     1      21.632   0.267  53.683  1.00  0.00     0.267 C 
HETATM   10  C8  UNL     1      20.307  -0.190  53.062  1.00  0.00     0.299 C 
HETATM   11  N5  UNL     1      20.050   0.697  51.929  1.00  0.00     0.085 N 
HETATM   12  C9  UNL     1      18.900   0.143  51.201  1.00  0.00     0.309 C 
HETATM   13  C10 UNL     1      19.655   2.024  52.406  1.00  0.00     0.272 C 
HETATM   14  C11 UNL     1      19.940   3.010  51.243  1.00  0.00     0.035 C 
HETATM   15  C12 UNL     1      21.436   2.806  50.948  1.00  0.00     0.041 C 
HETATM   16  C13 UNL     1      22.045   3.692  49.986  1.00  0.00    -0.051 A 
HETATM   17  C14 UNL     1      21.313   4.147  48.923  1.00  0.00     0.007 A 
HETATM   18  C15 UNL     1      21.949   4.964  47.977  1.00  0.00     0.001 A 
HETATM   19  C16 UNL     1      23.275   5.247  48.196  1.00  0.00     0.001 A 
HETATM   20  C17 UNL     1      23.903   4.730  49.303  1.00  0.00     0.008 A 
HETATM   21  C18 UNL     1      23.367   3.924  50.282  1.00  0.00    -0.046 A 
HETATM   22  C19 UNL     1      24.345   3.558  51.308  1.00  0.00     0.041 C 
HETATM   23  C20 UNL     1      23.860   3.920  52.688  1.00  0.00     0.017 C 
HETATM   24  C21 UNL     1      25.322   0.769  53.732  1.00  0.00     0.039 A 
HETATM   25  C22 UNL     1      24.119   0.346  53.455  1.00  0.00     0.247 A 
HETATM   26  H5  UNL     1      22.615  -0.204  51.667  1.00  0.00     0.282 HD
ENDROOT
BRANCH   1  27
HETATM   27  N1  UNL     1      27.087   0.410  54.958  1.00  0.00    -0.269 NA
HETATM   28  C1  UNL     1      28.347   0.051  54.968  1.00  0.00     0.173 C 
ENDBRANCH   1  27
TORSDOF 1
ENDMDL
MODEL 6
REMARK VINA RESULT:      -8.5      1.436      5.320
REMARK  1 active torsions:
REMARK  status: ('A' for Active; 'I' for Inactive)
REMARK    1  A    between atoms: N1_2  and  C2_3 
ROOT
HETATM    1  C2  UNL     1      28.432   0.275  53.898  1.00  0.00     0.152 C 
HETATM    2  N2  UNL     1      27.629  -0.548  54.568  1.00  0.00    -0.223 NA
HETATM    3  C3  UNL     1      26.599  -0.032  55.440  1.00  0.00     0.229 C 
HETATM    4  N3  UNL     1      25.701   0.863  55.200  1.00  0.00    -0.276 NA
HETATM    5  C4  UNL     1      25.215   1.355  53.891  1.00  0.00     0.132 C 
HETATM    6  C5  UNL     1      26.132   1.937  53.010  1.00  0.00     0.071 A 
HETATM    7  C6  UNL     1      27.081   2.268  52.334  1.00  0.00     0.201 A 
HETATM    8  N4  UNL     1      26.319   3.283  51.556  1.00  0.00    -0.043 N 
HETATM    9  C7  UNL     1      26.519   3.172  50.096  1.00  0.00     0.267 C 
HETATM   10  C8  UNL     1      25.703   4.291  49.439  1.00  0.00     0.299 C 
HETATM   11  N5  UNL     1      24.307   4.059  49.806  1.00  0.00     0.085 N 
HETATM   12  C9  UNL     1      23.545   5.234  49.362  1.00  0.00     0.309 C 
HETATM   13  C10 UNL     1      23.778   2.906  49.074  1.00  0.00     0.272 C 
HETATM   14  C11 UNL     1      22.557   2.397  49.885  1.00  0.00     0.035 C 
HETATM   15  C12 UNL     1      23.137   2.115  51.282  1.00  0.00     0.041 C 
HETATM   16  C13 UNL     1      22.261   1.492  52.246  1.00  0.00    -0.051 A 
HETATM   17  C14 UNL     1      20.923   1.780  52.232  1.00  0.00     0.007 A 
HETATM   18  C15 UNL     1      20.108   1.201  53.215  1.00  0.00     0.001 A 
HETATM   19  C16 UNL     1      20.725   0.378  54.125  1.00  0.00     0.001 A 
HETATM   20  C17 UNL     1      22.079   0.166  54.035  1.00  0.00     0.008 A 
HETATM   21  C18 UNL     1      22.958   0.686  53.112  1.00  0.00    -0.046 A 
HETATM   22  C19 UNL     1      24.337   0.244  53.336  1.00  0.00     0.041 C 
HETATM   23  C20 UNL     1      24.919  -0.395  52.102  1.00  0.00     0.017 C 
HETATM   24  C21 UNL     1      27.983   1.334  52.985  1.00  0.00     0.039 A 
HETATM   25  C22 UNL     1      27.453   2.250  52.222  1.00  0.00     0.247 A 
HETATM   26  H5  UNL     1      25.763   3.951  52.114  1.00  0.00     0.282 HD
ENDROOT
BRANCH   1  27
HETATM   27  N1  UNL     1      29.861   0.514  53.725  1.00  0.00    -0.269 NA
HETATM   28  C1  UNL     1      30.617  -0.521  53.452  1.00  0.00     0.173 C 
ENDBRANCH   1  27
TORSDOF 1
ENDMDL
MODEL 7
REMARK VINA RESULT:      -8.4      2.101      7.125
REMARK  1 active torsions:
REMARK  status: ('A' for Active; 'I' for Inactive)
REMARK    1  A    between atoms: N1_2  and  C2_3 
ROOT
HETATM    1  C2  UNL     1      23.288  -0.519  54.464  1.00  0.00     0.152 C 
HETATM    2  N2  UNL     1      24.605  -0.353  54.365  1.00  0.00    -0.223 NA
HETATM    3  C3  UNL     1      25.277  -0.493  53.094  1.00  0.00     0.229 C 
HETATM    4  N3  UNL     1      24.992   0.045  51.957  1.00  0.00    -0.276 NA
HETATM    5  C4  UNL     1      24.147   1.229  51.684  1.00  0.00     0.132 C 
HETATM    6  C5  UNL     1      22.808   1.207  52.090  1.00  0.00     0.071 A 
HETATM    7  C6  UNL     1      21.737   1.064  52.637  1.00  0.00     0.201 A 
HETATM    8  N4  UNL     1      20.994   1.902  51.656  1.00  0.00    -0.043 N 
HETATM    9  C7  UNL     1      20.120   2.910  52.291  1.00  0.00     0.267 C 
HETATM   10  C8  UNL     1      19.406   3.666  51.165  1.00  0.00     0.299 C 
HETATM   11  N5  UNL     1      20.450   4.297  50.359  1.00  0.00     0.085 N 
HETATM   12  C9  UNL     1      19.797   4.846  49.163  1.00  0.00     0.309 C 
HETATM   13  C10 UNL     1      21.033   5.427  51.085  1.00  0.00     0.272 C 
HETATM   14  C11 UNL     1      22.431   5.674  50.458  1.00  0.00     0.035 C 
HETATM   15  C12 UNL     1      23.145   4.321  50.611  1.00  0.00     0.041 C 
HETATM   16  C13 UNL     1      24.538   4.264  50.236  1.00  0.00    -0.051 A 
HETATM   17  C14 UNL     1      24.994   5.034  49.201  1.00  0.00     0.007 A 
HETATM   18  C15 UNL     1      26.340   4.916  48.826  1.00  0.00     0.001 A 
HETATM   19  C16 UNL     1      27.105   4.026  49.539  1.00  0.00     0.001 A 
HETATM   20  C17 UNL     1      26.532   3.307  50.560  1.00  0.00     0.008 A 
HETATM   21  C18 UNL     1      25.228   3.353  50.999  1.00  0.00    -0.046 A 
HETATM   22  C19 UNL     1      24.975   2.432  52.110  1.00  0.00     0.041 C 
HETATM   23  C20 UNL     1      24.390   3.149  53.300  1.00  0.00     0.017 C 
HETATM   24  C21 UNL     1      22.286   0.219  53.684  1.00  0.00     0.039 A 
HETATM   25  C22 UNL     1      21.503   0.924  52.913  1.00  0.00     0.247 A 
HETATM   26  H5  UNL     1      21.154   1.675  50.661  1.00  0.00     0.282 HD
ENDROOT
BRANCH   1  27
HETATM   27  N1  UNL     1      22.336  -1.318  55.228  1.00  0.00    -0.269 NA
HETATM   28  C1  UNL     1      21.520  -2.090  54.554  1.00  0.00     0.173 C 
ENDBRANCH   1  27
TORSDOF 1
ENDMDL
MODEL 8
REMARK VINA RESULT:      -8.4      1.803      2.773
REMARK  1 active torsions:
REMARK  status: ('A' for Active; 'I' for Inactive)
REMARK    1  A    between atoms: N1_2  and  C2_3 
ROOT
HETATM    1  C2  UNL     1      21.054   4.276  48.451  1.00  0.00     0.152 C 
HETATM    2  N2  UNL     1      19.936   3.796  48.991  1.00  0.00    -0.223 NA
HETATM    3  C3  UNL     1      19.679   2.375  49.023  1.00  0.00     0.229 C 
HETATM    4  N3  UNL     1      20.442   1.417  49.428  1.00  0.00    -0.276 NA
HETATM    5  C4  UNL     1      21.631   1.493  50.306  1.00  0.00     0.132 C 
HETATM    6  C5  UNL     1      22.714   2.282  49.904  1.00  0.00     0.071 A 
HETATM    7  C6  UNL     1      23.476   3.116  49.468  1.00  0.00     0.201 A 
HETATM    8  N4  UNL     1      24.692   2.464  50.028  1.00  0.00    -0.043 N 
HETATM    9  C7  UNL     1      25.577   3.401  50.752  1.00  0.00     0.267 C 
HETATM   10  C8  UNL     1      26.787   2.597  51.239  1.00  0.00     0.299 C 
HETATM   11  N5  UNL     1      26.268   1.559  52.127  1.00  0.00     0.085 N 
HETATM   12  C9  UNL     1      27.386   0.656  52.433  1.00  0.00     0.309 C 
HETATM   13  C10 UNL     1      25.837   2.150  53.396  1.00  0.00     0.272 C 
HETATM   14  C11 UNL     1      24.833   1.149  54.025  1.00  0.00     0.035 C 
HETATM   15  C12 UNL     1      23.751   0.987  52.944  1.00  0.00     0.041 C 
HETATM   16  C13 UNL     1      22.587   0.205  53.287  1.00  0.00    -0.051 A 
HETATM   17  C14 UNL     1      22.712  -0.864  54.132  1.00  0.00     0.007 A 
HETATM   18  C15 UNL     1      21.572  -1.635  54.403  1.00  0.00     0.001 A 
HETATM   19  C16 UNL     1      20.404  -1.249  53.792  1.00  0.00     0.001 A 
HETATM   20  C17 UNL     1      20.405  -0.154  52.963  1.00  0.00     0.008 A 
HETATM   21  C18 UNL     1      21.466   0.661  52.636  1.00  0.00    -0.046 A 
HETATM   22  C19 UNL     1      21.090   1.731  51.709  1.00  0.00     0.041 C 
HETATM   23  C20 UNL     1      21.459   3.087  52.251  1.00  0.00     0.017 C 
HETATM   24  C21 UNL     1      22.414   3.887  48.845  1.00  0.00     0.039 A 
HETATM   25  C22 UNL     1      23.564   3.439  49.272  1.00  0.00     0.247 A 
HETATM   26  H5  UNL     1      24.789   1.454  49.834  1.00  0.00     0.282 HD
ENDROOT
BRANCH   1  27
HETATM   27  N1  UNL     1      21.455   5.235  47.427  1.00  0.00    -0.269 NA
HETATM   28  C1  UNL     1      21.820   4.758  46.263  1.00  0.00     0.173 C 
ENDBRANCH   1  27
TORSDOF 1
ENDMDL
MODEL 9
REMARK VINA RESULT:      -8.3      2.906      6.094
REMARK  1 active torsions:
REMARK  status: ('A' for Active; 'I' for Inactive)
REMARK    1  A    between atoms: N1_2  and  C2_3 
ROOT
HETATM    1  C2  UNL     1      28.655   6.853  47.928  1.00  0.00     0.152 C 
HETATM    2  N2  UNL     1      28.128   8.068  47.797  1.00  0.00    -0.223 NA
HETATM    3  C3  UNL     1      26.908   8.271  47.051  1.00  0.00     0.229 C 
HETATM    4  N3  UNL     1      25.782   7.649  47.146  1.00  0.00    -0.276 NA
HETATM    5  C4  UNL     1      25.278   6.818  48.263  1.00  0.00     0.132 C 
HETATM    6  C5  UNL     1      26.014   5.692  48.647  1.00  0.00     0.071 A 
HETATM    7  C6  UNL     1      26.847   4.859  48.929  1.00  0.00     0.201 A 
HETATM    8  N4  UNL     1      25.856   3.873  49.438  1.00  0.00    -0.043 N 
HETATM    9  C7  UNL     1      26.215   3.309  50.756  1.00  0.00     0.267 C 
HETATM   10  C8  UNL     1      25.126   2.298  51.130  1.00  0.00     0.299 C 
HETATM   11  N5  UNL     1      23.869   3.042  51.193  1.00  0.00     0.085 N 
HETATM   12  C9  UNL     1      22.791   2.055  51.342  1.00  0.00     0.309 C 
HETATM   13  C10 UNL     1      23.843   3.887  52.389  1.00  0.00     0.272 C 
HETATM   14  C11 UNL     1      22.805   5.006  52.110  1.00  0.00     0.035 C 
HETATM   15  C12 UNL     1      23.315   5.665  50.818  1.00  0.00     0.041 C 
HETATM   16  C13 UNL     1      22.625   6.849  50.364  1.00  0.00    -0.051 A 
HETATM   17  C14 UNL     1      21.277   6.970  50.571  1.00  0.00     0.007 A 
HETATM   18  C15 UNL     1      20.627   8.107  50.071  1.00  0.00     0.001 A 
HETATM   19  C16 UNL     1      21.404   9.023  49.406  1.00  0.00     0.001 A 
HETATM   20  C17 UNL     1      22.750   8.789  49.261  1.00  0.00     0.008 A 
HETATM   21  C18 UNL     1      23.476   7.709  49.714  1.00  0.00    -0.046 A 
HETATM   22  C19 UNL     1      24.895   7.798  49.363  1.00  0.00     0.041 C 
HETATM   23  C20 UNL     1      25.774   7.677  50.581  1.00  0.00     0.017 C 
HETATM   24  C21 UNL     1      27.952   5.685  48.474  1.00  0.00     0.039 A 
HETATM   25  C22 UNL     1      27.210   4.724  48.953  1.00  0.00     0.247 A 
HETATM   26  H5  UNL     1      25.053   3.681  48.816  1.00  0.00     0.282 HD
ENDROOT
BRANCH   1  27
HETATM   27  N1  UNL     1      29.922   6.173  47.680  1.00  0.00    -0.269 NA
HETATM   28  C1  UNL     1      30.841   6.251  48.611  1.00  0.00     0.173 C 
ENDBRANCH   1  27
TORSDOF 1
ENDMDL
