MODEL 1
REMARK VINA RESULT:      -9.5      0.000      0.000
REMARK  4 active torsions:
REMARK  status: ('A' for Active; 'I' for Inactive)
REMARK    1  A    between atoms: O1_2  and  C2_3 
REMARK    2  A    between atoms: C6_9  and  C7_10 
REMARK    3  A    between atoms: C17_22  and  O2_23 
REMARK    4  A    between atoms: C20_27  and  O3_28 
ROOT
HETATM    1  C7  UNL     1      23.941   0.488  53.002  1.00  0.00    -0.005 A 
HETATM    2  C8  UNL     1      24.532   1.711  53.237  1.00  0.00     0.016 A 
HETATM    3  C9  UNL     1      25.934   1.788  53.242  1.00  0.00     0.031 A 
HETATM    4  C10 UNL     1      26.799   0.697  53.022  1.00  0.00     0.044 A 
HETATM    5  C11 UNL     1      26.236  -0.504  52.791  1.00  0.00     0.029 A 
HETATM    6  C12 UNL     1      24.848  -0.546  52.793  1.00  0.00     0.030 A 
HETATM    7  C13 UNL     1      26.861  -1.796  52.552  1.00  0.00     0.126 C 
HETATM    8  F1  UNL     1      26.065  -2.808  52.027  1.00  0.00    -0.205 F 
HETATM    9  C14 UNL     1      28.097  -2.237  52.717  1.00  0.00     0.027 C 
HETATM   10  C15 UNL     1      28.975  -1.163  53.246  1.00  0.00     0.062 C 
HETATM   11  C16 UNL     1      30.260  -0.958  53.623  1.00  0.00     0.069 C 
HETATM   12  N3  UNL     1      30.113   0.441  53.985  1.00  0.00    -0.360 N 
HETATM   13  C17 UNL     1      29.096   1.415  54.189  1.00  0.00     0.326 C 
HETATM   14  N4  UNL     1      28.045   1.412  53.171  1.00  0.00    -0.347 N 
HETATM   15  H12 UNL     1      31.057   0.922  54.159  1.00  0.00     0.162 HD
HETATM   16  H15 UNL     1      28.329   2.104  52.408  1.00  0.00     0.164 HD
ENDROOT
BRANCH   1  17
HETATM   17  C6  UNL     1      22.506   0.239  52.933  1.00  0.00     0.081 A 
HETATM   18  N2  UNL     1      22.058  -0.492  53.977  1.00  0.00    -0.240 NA
HETATM   19  C5  UNL     1      20.760  -0.828  54.089  1.00  0.00     0.234 A 
HETATM   20  N1  UNL     1      19.848  -0.450  53.161  1.00  0.00    -0.241 NA
HETATM   21  C4  UNL     1      20.266   0.273  52.118  1.00  0.00     0.073 A 
HETATM   22  C3  UNL     1      19.433   0.711  51.097  1.00  0.00     0.072 A 
HETATM   23  C18 UNL     1      21.590   0.629  51.982  1.00  0.00     0.025 A 
HETATM   24  C2  UNL     1      19.943   1.453  50.028  1.00  0.00     0.103 A 
HETATM   25  C20 UNL     1      21.281   1.781  49.942  1.00  0.00     0.102 A 
HETATM   26  C19 UNL     1      22.114   1.358  50.939  1.00  0.00     0.055 A 
BRANCH  24  27
HETATM   27  O1  UNL     1      19.052   1.853  49.052  1.00  0.00    -0.353 OA
HETATM   28  C1  UNL     1      18.097   2.851  49.307  1.00  0.00     0.210 C 
ENDBRANCH  24  27
BRANCH  25  29
HETATM   29  O3  UNL     1      21.666   2.522  48.833  1.00  0.00    -0.353 OA
HETATM   30  C21 UNL     1      22.483   2.033  47.793  1.00  0.00     0.210 C 
ENDBRANCH  25  29
ENDBRANCH   1  17
BRANCH  13  31
HETATM   31  O2  UNL     1      29.594   2.675  54.403  1.00  0.00    -0.360 OA
HETATM   32  H14 UNL     1      30.553   2.736  54.569  1.00  0.00     0.214 HD
ENDBRANCH  13  31
TORSDOF 4
ENDMDL
MODEL 2
REMARK VINA RESULT:      -9.2      3.523      5.201
REMARK  4 active torsions:
REMARK  status: ('A' for Active; 'I' for Inactive)
REMARK    1  A    between atoms: O1_2  and  C2_3 
REMARK    2  A    between atoms: C6_9  and  C7_10 
REMARK    3  A    between atoms: C17_22  and  O2_23 
REMARK    4  A    between atoms: C20_27  and  O3_28 
ROOT
HETATM    1  C7  UNL     1      24.151   1.117  52.839  1.00  0.00    -0.005 A 
HETATM    2  C8  UNL     1      25.360   0.901  52.214  1.00  0.00     0.016 A 
HETATM    3  C9  UNL     1      25.970   1.974  51.544  1.00  0.00     0.031 A 
HETATM    4  C10 UNL     1      25.435   3.274  51.457  1.00  0.00     0.044 A 
HETATM    5  C11 UNL     1      24.254   3.501  52.062  1.00  0.00     0.029 A 
HETATM    6  C12 UNL     1      23.677   2.420  52.716  1.00  0.00     0.030 A 
HETATM    7  C13 UNL     1      23.458   4.718  52.128  1.00  0.00     0.126 C 
HETATM    8  F1  UNL     1      22.444   4.772  53.077  1.00  0.00    -0.205 F 
HETATM    9  C14 UNL     1      23.504   5.855  51.455  1.00  0.00     0.027 C 
HETATM   10  C15 UNL     1      24.602   5.833  50.455  1.00  0.00     0.062 C 
HETATM   11  C16 UNL     1      25.157   6.617  49.499  1.00  0.00     0.069 C 
HETATM   12  N3  UNL     1      26.191   5.682  49.089  1.00  0.00    -0.360 N 
HETATM   13  C17 UNL     1      26.571   4.324  49.274  1.00  0.00     0.326 C 
HETATM   14  N4  UNL     1      26.488   3.858  50.659  1.00  0.00    -0.347 N 
HETATM   15  H12 UNL     1      26.916   6.132  48.438  1.00  0.00     0.162 HD
HETATM   16  H15 UNL     1      27.442   4.018  51.115  1.00  0.00     0.164 HD
ENDROOT
BRANCH   1  17
HETATM   17  C6  UNL     1      23.401   0.127  53.601  1.00  0.00     0.081 A 
HETATM   18  N2  UNL     1      24.170  -0.526  54.499  1.00  0.00    -0.240 NA
HETATM   19  C5  UNL     1      23.658  -1.481  55.296  1.00  0.00     0.234 A 
HETATM   20  N1  UNL     1      22.350  -1.830  55.232  1.00  0.00    -0.241 NA
HETATM   21  C4  UNL     1      21.567  -1.199  54.351  1.00  0.00     0.073 A 
HETATM   22  C3  UNL     1      20.217  -1.473  54.182  1.00  0.00     0.072 A 
HETATM   23  C18 UNL     1      22.071  -0.219  53.525  1.00  0.00     0.025 A 
HETATM   24  C2  UNL     1      19.461  -0.782  53.230  1.00  0.00     0.103 A 
HETATM   25  C20 UNL     1      20.018   0.192  52.427  1.00  0.00     0.102 A 
HETATM   26  C19 UNL     1      21.347   0.474  52.581  1.00  0.00     0.055 A 
BRANCH  24  27
HETATM   27  O1  UNL     1      18.125  -1.111  53.122  1.00  0.00    -0.353 OA
HETATM   28  C1  UNL     1      17.666  -2.397  53.453  1.00  0.00     0.210 C 
ENDBRANCH  24  27
BRANCH  25  29
HETATM   29  O3  UNL     1      19.166   0.807  51.520  1.00  0.00    -0.353 OA
HETATM   30  C21 UNL     1      19.489   1.064  50.171  1.00  0.00     0.210 C 
ENDBRANCH  25  29
ENDBRANCH   1  17
BRANCH  13  31
HETATM   31  O2  UNL     1      27.783   4.023  48.708  1.00  0.00    -0.360 OA
HETATM   32  H14 UNL     1      27.754   3.527  47.869  1.00  0.00     0.214 HD
ENDBRANCH  13  31
TORSDOF 4
ENDMDL
MODEL 3
REMARK VINA RESULT:      -9.2      3.098      3.695
REMARK  4 active torsions:
REMARK  status: ('A' for Active; 'I' for Inactive)
REMARK    1  A    between atoms: O1_2  and  C2_3 
REMARK    2  A    between atoms: C6_9  and  C7_10 
REMARK    3  A    between atoms: C17_22  and  O2_23 
REMARK    4  A    between atoms: C20_27  and  O3_28 
ROOT
HETATM    1  C7  UNL     1      23.932   0.935  52.996  1.00  0.00    -0.005 A 
HETATM    2  C8  UNL     1      23.994  -0.442  52.993  1.00  0.00     0.016 A 
HETATM    3  C9  UNL     1      25.226  -1.059  53.268  1.00  0.00     0.031 A 
HETATM    4  C10 UNL     1      26.423  -0.371  53.549  1.00  0.00     0.044 A 
HETATM    5  C11 UNL     1      26.379   0.975  53.555  1.00  0.00     0.029 A 
HETATM    6  C12 UNL     1      25.146   1.554  53.280  1.00  0.00     0.030 A 
HETATM    7  C13 UNL     1      27.440   1.943  53.792  1.00  0.00     0.126 C 
HETATM    8  F1  UNL     1      27.067   3.255  54.057  1.00  0.00    -0.205 F 
HETATM    9  C14 UNL     1      28.757   1.834  53.829  1.00  0.00     0.027 C 
HETATM   10  C15 UNL     1      29.180   0.432  53.581  1.00  0.00     0.062 C 
HETATM   11  C16 UNL     1      30.306  -0.315  53.481  1.00  0.00     0.069 C 
HETATM   12  N3  UNL     1      29.647  -1.585  53.227  1.00  0.00    -0.360 N 
HETATM   13  C17 UNL     1      28.360  -2.105  52.920  1.00  0.00     0.326 C 
HETATM   14  N4  UNL     1      27.271  -1.528  53.711  1.00  0.00    -0.347 N 
HETATM   15  H12 UNL     1      30.324  -2.417  53.284  1.00  0.00     0.162 HD
HETATM   16  H15 UNL     1      27.135  -2.142  54.575  1.00  0.00     0.164 HD
ENDROOT
BRANCH   1  17
HETATM   17  C6  UNL     1      22.734   1.731  52.763  1.00  0.00     0.081 A 
HETATM   18  N2  UNL     1      21.617   1.132  53.229  1.00  0.00    -0.240 NA
HETATM   19  C5  UNL     1      20.409   1.711  53.105  1.00  0.00     0.234 A 
HETATM   20  N1  UNL     1      20.261   2.918  52.506  1.00  0.00    -0.241 NA
HETATM   21  C4  UNL     1      21.350   3.530  52.035  1.00  0.00     0.073 A 
HETATM   22  C3  UNL     1      21.328   4.761  51.392  1.00  0.00     0.072 A 
HETATM   23  C18 UNL     1      22.597   2.956  52.151  1.00  0.00     0.025 A 
HETATM   24  C2  UNL     1      22.508   5.337  50.912  1.00  0.00     0.103 A 
HETATM   25  C20 UNL     1      23.732   4.717  51.055  1.00  0.00     0.102 A 
HETATM   26  C19 UNL     1      23.771   3.504  51.686  1.00  0.00     0.055 A 
BRANCH  24  27
HETATM   27  O1  UNL     1      22.404   6.563  50.284  1.00  0.00    -0.353 OA
HETATM   28  C1  UNL     1      21.448   7.508  50.693  1.00  0.00     0.210 C 
ENDBRANCH  24  27
BRANCH  25  29
HETATM   29  O3  UNL     1      24.830   5.388  50.537  1.00  0.00    -0.353 OA
HETATM   30  C21 UNL     1      25.836   4.785  49.753  1.00  0.00     0.210 C 
ENDBRANCH  25  29
ENDBRANCH   1  17
BRANCH  13  31
HETATM   31  O2  UNL     1      28.319  -3.476  52.924  1.00  0.00    -0.360 OA
HETATM   32  H14 UNL     1      28.521  -3.914  52.076  1.00  0.00     0.214 HD
ENDBRANCH  13  31
TORSDOF 4
ENDMDL
MODEL 4
REMARK VINA RESULT:      -9.1      4.948      6.933
REMARK  4 active torsions:
REMARK  status: ('A' for Active; 'I' for Inactive)
REMARK    1  A    between atoms: O1_2  and  C2_3 
REMARK    2  A    between atoms: C6_9  and  C7_10 
REMARK    3  A    between atoms: C17_22  and  O2_23 
REMARK    4  A    between atoms: C20_27  and  O3_28 
ROOT
HETATM    1  C7  UNL     1      24.372   3.993  50.991  1.00  0.00    -0.005 A 
HETATM    2  C8  UNL     1      23.896   5.254  51.276  1.00  0.00     0.016 A 
HETATM    3  C9  UNL     1      24.565   6.363  50.733  1.00  0.00     0.031 A 
HETATM    4  C10 UNL     1      25.704   6.287  49.907  1.00  0.00     0.044 A 
HETATM    5  C11 UNL     1      26.182   5.062  49.619  1.00  0.00     0.029 A 
HETATM    6  C12 UNL     1      25.497   3.986  50.172  1.00  0.00     0.030 A 
HETATM    7  C13 UNL     1      27.334   4.673  48.820  1.00  0.00     0.126 C 
HETATM    8  F1  UNL     1      27.421   3.345  48.419  1.00  0.00    -0.205 F 
HETATM    9  C14 UNL     1      28.367   5.353  48.350  1.00  0.00     0.027 C 
HETATM   10  C15 UNL     1      28.279   6.783  48.738  1.00  0.00     0.062 C 
HETATM   11  C16 UNL     1      28.964   7.945  48.601  1.00  0.00     0.069 C 
HETATM   12  N3  UNL     1      28.036   8.781  49.343  1.00  0.00    -0.360 N 
HETATM   13  C17 UNL     1      26.898   8.665  50.187  1.00  0.00     0.326 C 
HETATM   14  N4  UNL     1      25.894   7.706  49.719  1.00  0.00    -0.347 N 
HETATM   15  H12 UNL     1      28.253   9.827  49.238  1.00  0.00     0.162 HD
HETATM   16  H15 UNL     1      25.192   8.238  49.115  1.00  0.00     0.164 HD
ENDROOT
BRANCH   1  17
HETATM   17  C6  UNL     1      23.783   2.740  51.446  1.00  0.00     0.081 A 
HETATM   18  N2  UNL     1      22.589   2.490  50.866  1.00  0.00    -0.240 NA
HETATM   19  C5  UNL     1      21.887   1.380  51.161  1.00  0.00     0.234 A 
HETATM   20  N1  UNL     1      22.346   0.468  52.051  1.00  0.00    -0.241 NA
HETATM   21  C4  UNL     1      23.524   0.692  52.640  1.00  0.00     0.073 A 
HETATM   22  C3  UNL     1      24.095  -0.159  53.576  1.00  0.00     0.072 A 
HETATM   23  C18 UNL     1      24.260   1.822  52.354  1.00  0.00     0.025 A 
HETATM   24  C2  UNL     1      25.327   0.147  54.163  1.00  0.00     0.103 A 
HETATM   25  C20 UNL     1      26.022   1.295  53.839  1.00  0.00     0.102 A 
HETATM   26  C19 UNL     1      25.474   2.143  52.918  1.00  0.00     0.055 A 
BRANCH  24  27
HETATM   27  O1  UNL     1      25.830  -0.749  55.085  1.00  0.00    -0.353 OA
HETATM   28  C1  UNL     1      25.131  -1.040  56.268  1.00  0.00     0.210 C 
ENDBRANCH  24  27
BRANCH  25  29
HETATM   29  O3  UNL     1      27.233   1.488  54.488  1.00  0.00    -0.353 OA
HETATM   30  C21 UNL     1      28.496   1.236  53.911  1.00  0.00     0.210 C 
ENDBRANCH  25  29
ENDBRANCH   1  17
BRANCH  13  31
HETATM   31  O2  UNL     1      26.335   9.875  50.501  1.00  0.00    -0.360 OA
HETATM   32  H14 UNL     1      26.742  10.659  50.086  1.00  0.00     0.214 HD
ENDBRANCH  13  31
TORSDOF 4
ENDMDL
MODEL 5
REMARK VINA RESULT:      -9.0      2.504      8.269
REMARK  4 active torsions:
REMARK  status: ('A' for Active; 'I' for Inactive)
REMARK    1  A    between atoms: O1_2  and  C2_3 
REMARK    2  A    between atoms: C6_9  and  C7_10 
REMARK    3  A    between atoms: C17_22  and  O2_23 
REMARK    4  A    between atoms: C20_27  and  O3_28 
ROOT
HETATM    1  C7  UNL     1      23.117   1.754  51.203  1.00  0.00    -0.005 A 
HETATM    2  C8  UNL     1      22.289   2.142  50.173  1.00  0.00     0.016 A 
HETATM    3  C9  UNL     1      20.921   1.833  50.258  1.00  0.00     0.031 A 
HETATM    4  C10 UNL     1      20.319   1.146  51.331  1.00  0.00     0.044 A 
HETATM    5  C11 UNL     1      21.116   0.760  52.346  1.00  0.00     0.029 A 
HETATM    6  C12 UNL     1      22.463   1.081  52.230  1.00  0.00     0.030 A 
HETATM    7  C13 UNL     1      20.790   0.030  53.562  1.00  0.00     0.126 C 
HETATM    8  F1  UNL     1      21.727   0.039  54.589  1.00  0.00    -0.205 F 
HETATM    9  C14 UNL     1      19.728  -0.665  53.931  1.00  0.00     0.027 C 
HETATM   10  C15 UNL     1      18.697  -0.662  52.862  1.00  0.00     0.062 C 
HETATM   11  C16 UNL     1      17.461  -1.154  52.604  1.00  0.00     0.069 C 
HETATM   12  N3  UNL     1      17.318  -0.575  51.279  1.00  0.00    -0.360 N 
HETATM   13  C17 UNL     1      18.092   0.092  50.290  1.00  0.00     0.326 C 
HETATM   14  N4  UNL     1      18.970   1.139  50.816  1.00  0.00    -0.347 N 
HETATM   15  H12 UNL     1      16.318  -0.664  50.898  1.00  0.00     0.162 HD
HETATM   16  H15 UNL     1      18.432   2.061  50.787  1.00  0.00     0.164 HD
ENDROOT
BRANCH   1  17
HETATM   17  C6  UNL     1      24.548   2.020  51.288  1.00  0.00     0.081 A 
HETATM   18  N2  UNL     1      24.942   2.999  50.445  1.00  0.00    -0.240 NA
HETATM   19  C5  UNL     1      26.229   3.386  50.376  1.00  0.00     0.234 A 
HETATM   20  N1  UNL     1      27.184   2.810  51.147  1.00  0.00    -0.241 NA
HETATM   21  C4  UNL     1      26.819   1.839  51.988  1.00  0.00     0.073 A 
HETATM   22  C3  UNL     1      27.703   1.165  52.820  1.00  0.00     0.072 A 
HETATM   23  C18 UNL     1      25.508   1.426  52.076  1.00  0.00     0.025 A 
HETATM   24  C2  UNL     1      27.253   0.147  53.667  1.00  0.00     0.103 A 
HETATM   25  C20 UNL     1      25.925  -0.226  53.713  1.00  0.00     0.102 A 
HETATM   26  C19 UNL     1      25.042   0.428  52.901  1.00  0.00     0.055 A 
BRANCH  24  27
HETATM   27  O1  UNL     1      28.192  -0.475  54.464  1.00  0.00    -0.353 OA
HETATM   28  C1  UNL     1      29.461  -0.812  53.962  1.00  0.00     0.210 C 
ENDBRANCH  24  27
BRANCH  25  29
HETATM   29  O3  UNL     1      25.601  -1.249  54.594  1.00  0.00    -0.353 OA
HETATM   30  C21 UNL     1      24.574  -1.175  55.558  1.00  0.00     0.210 C 
ENDBRANCH  25  29
ENDBRANCH   1  17
BRANCH  13  31
HETATM   31  O2  UNL     1      17.342   0.542  49.234  1.00  0.00    -0.360 OA
HETATM   32  H14 UNL     1      17.358   1.504  49.074  1.00  0.00     0.214 HD
ENDBRANCH  13  31
TORSDOF 4
ENDMDL
MODEL 6
REMARK VINA RESULT:      -8.8      5.351      7.160
REMARK  4 active torsions:
REMARK  status: ('A' for Active; 'I' for Inactive)
REMARK    1  A    between atoms: O1_2  and  C2_3 
REMARK    2  A    between atoms: C6_9  and  C7_10 
REMARK    3  A    between atoms: C17_22  and  O2_23 
REMARK    4  A    between atoms: C20_27  and  O3_28 
ROOT
HETATM    1  C7  UNL     1      24.720   3.563  50.022  1.00  0.00    -0.005 A 
HETATM    2  C8  UNL     1      25.949   3.301  49.457  1.00  0.00     0.016 A 
HETATM    3  C9  UNL     1      26.813   4.377  49.198  1.00  0.00     0.031 A 
HETATM    4  C10 UNL     1      26.518   5.727  49.474  1.00  0.00     0.044 A 
HETATM    5  C11 UNL     1      25.320   6.000  50.026  1.00  0.00     0.029 A 
HETATM    6  C12 UNL     1      24.490   4.914  50.269  1.00  0.00     0.030 A 
HETATM    7  C13 UNL     1      24.736   7.279  50.402  1.00  0.00     0.126 C 
HETATM    8  F1  UNL     1      23.628   7.259  51.240  1.00  0.00    -0.205 F 
HETATM    9  C14 UNL     1      25.060   8.529  50.116  1.00  0.00     0.027 C 
HETATM   10  C15 UNL     1      26.263   8.578  49.247  1.00  0.00     0.062 C 
HETATM   11  C16 UNL     1      27.063   9.477  48.623  1.00  0.00     0.069 C 
HETATM   12  N3  UNL     1      27.973   8.514  48.028  1.00  0.00    -0.360 N 
HETATM   13  C17 UNL     1      28.093   7.113  47.815  1.00  0.00     0.326 C 
HETATM   14  N4  UNL     1      27.750   6.294  48.979  1.00  0.00    -0.347 N 
HETATM   15  H12 UNL     1      28.843   8.978  47.605  1.00  0.00     0.162 HD
HETATM   16  H15 UNL     1      28.647   6.124  49.533  1.00  0.00     0.164 HD
ENDROOT
BRANCH   1  17
HETATM   17  C6  UNL     1      23.720   2.565  50.382  1.00  0.00     0.081 A 
HETATM   18  N2  UNL     1      22.663   2.568  49.542  1.00  0.00    -0.240 NA
HETATM   19  C5  UNL     1      21.633   1.718  49.713  1.00  0.00     0.234 A 
HETATM   20  N1  UNL     1      21.613   0.826  50.733  1.00  0.00    -0.241 NA
HETATM   21  C4  UNL     1      22.647   0.805  51.578  1.00  0.00     0.073 A 
HETATM   22  C3  UNL     1      22.739  -0.053  52.666  1.00  0.00     0.072 A 
HETATM   23  C18 UNL     1      23.712   1.665  51.423  1.00  0.00     0.025 A 
HETATM   24  C2  UNL     1      23.847  -0.010  53.518  1.00  0.00     0.103 A 
HETATM   25  C20 UNL     1      24.886   0.874  53.316  1.00  0.00     0.102 A 
HETATM   26  C19 UNL     1      24.812   1.725  52.249  1.00  0.00     0.055 A 
BRANCH  24  27
HETATM   27  O1  UNL     1      23.865  -0.895  54.578  1.00  0.00    -0.353 OA
HETATM   28  C1  UNL     1      22.674  -1.295  55.208  1.00  0.00     0.210 C 
ENDBRANCH  24  27
BRANCH  25  29
HETATM   29  O3  UNL     1      25.930   0.821  54.229  1.00  0.00    -0.353 OA
HETATM   30  C21 UNL     1      27.155   0.160  54.002  1.00  0.00     0.210 C 
ENDBRANCH  25  29
ENDBRANCH   1  17
BRANCH  13  31
HETATM   31  O2  UNL     1      29.303   6.753  47.279  1.00  0.00    -0.360 OA
HETATM   32  H14 UNL     1      29.813   6.086  47.776  1.00  0.00     0.214 HD
ENDBRANCH  13  31
TORSDOF 4
ENDMDL
MODEL 7
REMARK VINA RESULT:      -8.8      2.525      8.019
REMARK  4 active torsions:
REMARK  status: ('A' for Active; 'I' for Inactive)
REMARK    1  A    between atoms: O1_2  and  C2_3 
REMARK    2  A    between atoms: C6_9  and  C7_10 
REMARK    3  A    between atoms: C17_22  and  O2_23 
REMARK    4  A    between atoms: C20_27  and  O3_28 
ROOT
HETATM    1  C7  UNL     1      22.519   0.616  52.776  1.00  0.00    -0.005 A 
HETATM    2  C8  UNL     1      22.651   1.697  51.932  1.00  0.00     0.016 A 
HETATM    3  C9  UNL     1      21.525   2.129  51.212  1.00  0.00     0.031 A 
HETATM    4  C10 UNL     1      20.250   1.533  51.284  1.00  0.00     0.044 A 
HETATM    5  C11 UNL     1      20.105   0.475  52.103  1.00  0.00     0.029 A 
HETATM    6  C12 UNL     1      21.237   0.074  52.801  1.00  0.00     0.030 A 
HETATM    7  C13 UNL     1      18.932  -0.345  52.369  1.00  0.00     0.126 C 
HETATM    8  F1  UNL     1      18.963  -1.169  53.488  1.00  0.00    -0.205 F 
HETATM    9  C14 UNL     1      17.769  -0.470  51.752  1.00  0.00     0.027 C 
HETATM   10  C15 UNL     1      17.699   0.425  50.569  1.00  0.00     0.062 C 
HETATM   11  C16 UNL     1      16.854   0.762  49.565  1.00  0.00     0.069 C 
HETATM   12  N3  UNL     1      17.721   1.741  48.932  1.00  0.00    -0.360 N 
HETATM   13  C17 UNL     1      19.064   2.204  48.982  1.00  0.00     0.326 C 
HETATM   14  N4  UNL     1      19.586   2.397  50.336  1.00  0.00    -0.347 N 
HETATM   15  H12 UNL     1      17.211   2.315  48.181  1.00  0.00     0.162 HD
HETATM   16  H15 UNL     1      19.396   3.410  50.617  1.00  0.00     0.164 HD
ENDROOT
BRANCH   1  17
HETATM   17  C6  UNL     1      23.573   0.060  53.615  1.00  0.00     0.081 A 
HETATM   18  N2  UNL     1      23.094  -0.790  54.549  1.00  0.00    -0.240 NA
HETATM   19  C5  UNL     1      23.915  -1.403  55.422  1.00  0.00     0.234 A 
HETATM   20  N1  UNL     1      25.254  -1.194  55.402  1.00  0.00    -0.241 NA
HETATM   21  C4  UNL     1      25.751  -0.357  54.488  1.00  0.00     0.073 A 
HETATM   22  C3  UNL     1      27.101  -0.051  54.373  1.00  0.00     0.072 A 
HETATM   23  C18 UNL     1      24.931   0.283  53.585  1.00  0.00     0.025 A 
HETATM   24  C2  UNL     1      27.550   0.846  53.399  1.00  0.00     0.103 A 
HETATM   25  C20 UNL     1      26.682   1.459  52.519  1.00  0.00     0.102 A 
HETATM   26  C19 UNL     1      25.350   1.169  52.619  1.00  0.00     0.055 A 
BRANCH  24  27
HETATM   27  O1  UNL     1      28.906   1.099  53.348  1.00  0.00    -0.353 OA
HETATM   28  C1  UNL     1      29.843   0.072  53.554  1.00  0.00     0.210 C 
ENDBRANCH  24  27
BRANCH  25  29
HETATM   29  O3  UNL     1      27.247   2.330  51.598  1.00  0.00    -0.353 OA
HETATM   30  C21 UNL     1      26.515   3.063  50.640  1.00  0.00     0.210 C 
ENDBRANCH  25  29
ENDBRANCH   1  17
BRANCH  13  31
HETATM   31  O2  UNL     1      19.284   3.303  48.191  1.00  0.00    -0.360 OA
HETATM   32  H14 UNL     1      19.633   3.128  47.298  1.00  0.00     0.214 HD
ENDBRANCH  13  31
TORSDOF 4
ENDMDL
MODEL 8
REMARK VINA RESULT:      -8.7      2.731      8.072
REMARK  4 active torsions:
REMARK  status: ('A' for Active; 'I' for Inactive)
REMARK    1  A    between atoms: O1_2  and  C2_3 
REMARK    2  A    between atoms: C6_9  and  C7_10 
REMARK    3  A    between atoms: C17_22  and  O2_23 
REMARK    4  A    between atoms: C20_27  and  O3_28 
ROOT
HETATM    1  C7  UNL     1      22.519   0.528  52.559  1.00  0.00    -0.005 A 
HETATM    2  C8  UNL     1      21.689  -0.237  51.768  1.00  0.00     0.016 A 
HETATM    3  C9  UNL     1      20.814   0.415  50.884  1.00  0.00     0.031 A 
HETATM    4  C10 UNL     1      20.714   1.813  50.740  1.00  0.00     0.044 A 
HETATM    5  C11 UNL     1      21.518   2.575  51.506  1.00  0.00     0.029 A 
HETATM    6  C12 UNL     1      22.372   1.899  52.369  1.00  0.00     0.030 A 
HETATM    7  C13 UNL     1      21.628   4.024  51.590  1.00  0.00     0.126 C 
HETATM    8  F1  UNL     1      22.750   4.549  52.220  1.00  0.00    -0.205 F 
HETATM    9  C14 UNL     1      20.856   5.006  51.157  1.00  0.00     0.027 C 
HETATM   10  C15 UNL     1      19.665   4.471  50.450  1.00  0.00     0.062 C 
HETATM   11  C16 UNL     1      18.549   4.901  49.814  1.00  0.00     0.069 C 
HETATM   12  N3  UNL     1      18.031   3.589  49.467  1.00  0.00    -0.360 N 
HETATM   13  C17 UNL     1      18.262   2.215  49.750  1.00  0.00     0.326 C 
HETATM   14  N4  UNL     1      19.674   1.825  49.739  1.00  0.00    -0.347 N 
HETATM   15  H12 UNL     1      17.210   3.641  48.777  1.00  0.00     0.162 HD
HETATM   16  H15 UNL     1      19.914   1.496  48.752  1.00  0.00     0.164 HD
ENDROOT
BRANCH   1  17
HETATM   17  C6  UNL     1      23.503   0.014  53.503  1.00  0.00     0.081 A 
HETATM   18  N2  UNL     1      22.954  -0.802  54.428  1.00  0.00    -0.240 NA
HETATM   19  C5  UNL     1      23.703  -1.373  55.389  1.00  0.00     0.234 A 
HETATM   20  N1  UNL     1      25.038  -1.154  55.470  1.00  0.00    -0.241 NA
HETATM   21  C4  UNL     1      25.605  -0.350  54.566  1.00  0.00     0.073 A 
HETATM   22  C3  UNL     1      26.958  -0.038  54.549  1.00  0.00     0.072 A 
HETATM   23  C18 UNL     1      24.858   0.246  53.574  1.00  0.00     0.025 A 
HETATM   24  C2  UNL     1      27.481   0.823  53.580  1.00  0.00     0.103 A 
HETATM   25  C20 UNL     1      26.685   1.393  52.608  1.00  0.00     0.102 A 
HETATM   26  C19 UNL     1      25.351   1.097  52.610  1.00  0.00     0.055 A 
BRANCH  24  27
HETATM   27  O1  UNL     1      28.836   1.084  53.629  1.00  0.00    -0.353 OA
HETATM   28  C1  UNL     1      29.775   0.039  53.631  1.00  0.00     0.210 C 
ENDBRANCH  24  27
BRANCH  25  29
HETATM   29  O3  UNL     1      27.320   2.231  51.702  1.00  0.00    -0.353 OA
HETATM   30  C21 UNL     1      26.656   2.973  50.702  1.00  0.00     0.210 C 
ENDBRANCH  25  29
ENDBRANCH   1  17
BRANCH  13  31
HETATM   31  O2  UNL     1      17.497   1.372  48.984  1.00  0.00    -0.360 OA
HETATM   32  H14 UNL     1      16.835   0.839  49.462  1.00  0.00     0.214 HD
ENDBRANCH  13  31
TORSDOF 4
ENDMDL
MODEL 9
REMARK VINA RESULT:      -8.7      3.129      3.818
REMARK  4 active torsions:
REMARK  status: ('A' for Active; 'I' for Inactive)
REMARK    1  A    between atoms: O1_2  and  C2_3 
REMARK    2  A    between atoms: C6_9  and  C7_10 
REMARK    3  A    between atoms: C17_22  and  O2_23 
REMARK    4  A    between atoms: C20_27  and  O3_28 
ROOT
HETATM    1  C7  UNL     1      23.572   2.357  50.719  1.00  0.00    -0.005 A 
HETATM    2  C8  UNL     1      24.727   3.038  50.401  1.00  0.00     0.016 A 
HETATM    3  C9  UNL     1      25.921   2.672  51.045  1.00  0.00     0.031 A 
HETATM    4  C10 UNL     1      26.033   1.649  52.007  1.00  0.00     0.044 A 
HETATM    5  C11 UNL     1      24.912   0.974  52.329  1.00  0.00     0.029 A 
HETATM    6  C12 UNL     1      23.749   1.360  51.674  1.00  0.00     0.030 A 
HETATM    7  C13 UNL     1      24.715  -0.106  53.284  1.00  0.00     0.126 C 
HETATM    8  F1  UNL     1      23.537  -0.838  53.194  1.00  0.00    -0.205 F 
HETATM    9  C14 UNL     1      25.465  -0.581  54.264  1.00  0.00     0.027 C 
HETATM   10  C15 UNL     1      26.745   0.165  54.360  1.00  0.00     0.062 C 
HETATM   11  C16 UNL     1      27.882   0.195  55.097  1.00  0.00     0.069 C 
HETATM   12  N3  UNL     1      28.520   1.289  54.385  1.00  0.00    -0.360 N 
HETATM   13  C17 UNL     1      28.219   2.282  53.413  1.00  0.00     0.326 C 
HETATM   14  N4  UNL     1      27.445   1.791  52.270  1.00  0.00    -0.347 N 
HETATM   15  H12 UNL     1      29.550   1.412  54.660  1.00  0.00     0.162 HD
HETATM   16  H15 UNL     1      28.137   1.490  51.513  1.00  0.00     0.164 HD
ENDROOT
BRANCH   1  17
HETATM   17  C6  UNL     1      22.261   2.587  50.126  1.00  0.00     0.081 A 
HETATM   18  N2  UNL     1      21.702   1.453  49.652  1.00  0.00    -0.240 NA
HETATM   19  C5  UNL     1      20.491   1.462  49.064  1.00  0.00     0.234 A 
HETATM   20  N1  UNL     1      19.782   2.608  48.922  1.00  0.00    -0.241 NA
HETATM   21  C4  UNL     1      20.314   3.744  49.382  1.00  0.00     0.073 A 
HETATM   22  C3  UNL     1      19.693   4.982  49.286  1.00  0.00     0.072 A 
HETATM   23  C18 UNL     1      21.552   3.759  49.987  1.00  0.00     0.025 A 
HETATM   24  C2  UNL     1      20.315   6.134  49.779  1.00  0.00     0.103 A 
HETATM   25  C20 UNL     1      21.558   6.090  50.375  1.00  0.00     0.102 A 
HETATM   26  C19 UNL     1      22.183   4.879  50.478  1.00  0.00     0.055 A 
BRANCH  24  27
HETATM   27  O1  UNL     1      19.634   7.327  49.647  1.00  0.00    -0.353 OA
HETATM   28  C1  UNL     1      19.194   7.776  48.390  1.00  0.00     0.210 C 
ENDBRANCH  24  27
BRANCH  25  29
HETATM   29  O3  UNL     1      22.071   7.299  50.824  1.00  0.00    -0.353 OA
HETATM   30  C21 UNL     1      23.442   7.631  50.827  1.00  0.00     0.210 C 
ENDBRANCH  25  29
ENDBRANCH   1  17
BRANCH  13  31
HETATM   31  O2  UNL     1      29.320   2.994  53.012  1.00  0.00    -0.360 OA
HETATM   32  H14 UNL     1      29.951   2.523  52.437  1.00  0.00     0.214 HD
ENDBRANCH  13  31
TORSDOF 4
ENDMDL
