MODEL 1
REMARK VINA RESULT:      -8.4      0.000      0.000
REMARK  2 active torsions:
REMARK  status: ('A' for Active; 'I' for Inactive)
REMARK       I    between atoms: C1_2  and  N1_3 
REMARK       I    between atoms: C1_2  and  N3_16 
REMARK    1  A    between atoms: N1_3  and  C2_4 
REMARK    2  A    between atoms: N3_16  and  C13_17 
ROOT
HETATM    1  C2  UNL     1      23.571   2.065  52.339  1.00  0.00     0.056 C 
HETATM    2  C3  UNL     1      23.726   2.941  51.385  1.00  0.00     0.000 C 
HETATM    3  C4  UNL     1      22.846   2.962  50.406  1.00  0.00    -0.008 C 
HETATM    4  C5  UNL     1      22.214   1.633  50.107  1.00  0.00     0.064 C 
HETATM    5  C6  UNL     1      21.621   1.073  51.350  1.00  0.00    -0.038 C 
HETATM    6  C7  UNL     1      22.327   1.310  52.445  1.00  0.00     0.007 C 
HETATM    7  C8  UNL     1      21.609   0.695  53.579  1.00  0.00     0.259 C 
HETATM    8  C9  UNL     1      22.254  -0.573  54.090  1.00  0.00     0.042 C 
HETATM    9  C10 UNL     1      21.139  -1.558  54.209  1.00  0.00     0.033 C 
HETATM   10  C11 UNL     1      19.912  -0.899  53.667  1.00  0.00     0.273 C 
HETATM   11  N2  UNL     1      20.320   0.332  53.065  1.00  0.00     0.101 N 
HETATM   12  C12 UNL     1      20.398   0.299  51.638  1.00  0.00     0.308 C 
ENDROOT
BRANCH   1  13
HETATM   13  N1  UNL     1      24.612   1.839  53.284  1.00  0.00    -0.307 N 
HETATM   14  C1  UNL     1      25.668   0.943  52.979  1.00  0.00     0.326 C 
HETATM   15  O1  UNL     1      25.752   0.310  51.888  1.00  0.00    -0.247 OA
HETATM   16  N3  UNL     1      26.694   0.724  53.919  1.00  0.00    -0.293 N 
HETATM   17  H14 UNL     1      26.686   1.211  54.831  1.00  0.00     0.172 HD
HETATM   18  H1  UNL     1      24.621   2.311  54.194  1.00  0.00     0.170 HD
BRANCH  16  19
HETATM   19  C13 UNL     1      27.808  -0.150  53.730  1.00  0.00     0.131 A 
HETATM   20  C14 UNL     1      29.128   0.257  53.855  1.00  0.00     0.050 A 
HETATM   21  C15 UNL     1      30.096  -0.679  53.648  1.00  0.00     0.005 A 
HETATM   22  C16 UNL     1      29.759  -1.979  53.326  1.00  0.00     0.019 A 
HETATM   23  C17 UNL     1      28.435  -2.365  53.207  1.00  0.00     0.119 A 
HETATM   24  N4  UNL     1      27.506  -1.426  53.416  1.00  0.00    -0.243 NA
ENDBRANCH  16  19
ENDBRANCH   1  13
TORSDOF 2
ENDMDL
MODEL 2
REMARK VINA RESULT:      -8.3      2.814      6.193
REMARK  2 active torsions:
REMARK  status: ('A' for Active; 'I' for Inactive)
REMARK       I    between atoms: C1_2  and  N1_3 
REMARK       I    between atoms: C1_2  and  N3_16 
REMARK    1  A    between atoms: N1_3  and  C2_4 
REMARK    2  A    between atoms: N3_16  and  C13_17 
ROOT
HETATM    1  C2  UNL     1      23.068   0.920  52.373  1.00  0.00     0.056 C 
HETATM    2  C3  UNL     1      21.843   0.932  52.822  1.00  0.00     0.000 C 
HETATM    3  C4  UNL     1      21.581   0.294  53.943  1.00  0.00    -0.008 C 
HETATM    4  C5  UNL     1      22.463  -0.893  54.205  1.00  0.00     0.064 C 
HETATM    5  C6  UNL     1      23.889  -0.476  54.145  1.00  0.00    -0.038 C 
HETATM    6  C7  UNL     1      24.152   0.431  53.218  1.00  0.00     0.007 C 
HETATM    7  C8  UNL     1      25.595   0.734  53.289  1.00  0.00     0.259 C 
HETATM    8  C9  UNL     1      26.399   0.132  52.158  1.00  0.00     0.042 C 
HETATM    9  C10 UNL     1      27.571  -0.519  52.815  1.00  0.00     0.033 C 
HETATM   10  C11 UNL     1      27.374  -0.389  54.290  1.00  0.00     0.273 C 
HETATM   11  N2  UNL     1      26.056   0.122  54.502  1.00  0.00     0.101 N 
HETATM   12  C12 UNL     1      25.095  -0.858  54.904  1.00  0.00     0.308 C 
ENDROOT
BRANCH   1  13
HETATM   13  N1  UNL     1      23.357   1.383  51.058  1.00  0.00    -0.307 N 
HETATM   14  C1  UNL     1      23.897   2.679  50.862  1.00  0.00     0.326 C 
HETATM   15  O1  UNL     1      24.150   3.479  51.808  1.00  0.00    -0.247 OA
HETATM   16  N3  UNL     1      24.181   3.130  49.558  1.00  0.00    -0.293 N 
HETATM   17  H14 UNL     1      23.999   2.526  48.740  1.00  0.00     0.172 HD
HETATM   18  H1  UNL     1      23.183   0.798  50.233  1.00  0.00     0.170 HD
BRANCH  16  19
HETATM   19  C13 UNL     1      24.725   4.411  49.233  1.00  0.00     0.131 A 
HETATM   20  C14 UNL     1      26.083   4.691  49.258  1.00  0.00     0.050 A 
HETATM   21  C15 UNL     1      26.470   5.955  48.925  1.00  0.00     0.005 A 
HETATM   22  C16 UNL     1      25.533   6.907  48.578  1.00  0.00     0.019 A 
HETATM   23  C17 UNL     1      24.181   6.607  48.558  1.00  0.00     0.119 A 
HETATM   24  N4  UNL     1      23.831   5.359  48.889  1.00  0.00    -0.243 NA
ENDBRANCH  16  19
ENDBRANCH   1  13
TORSDOF 2
ENDMDL
MODEL 3
REMARK VINA RESULT:      -8.3      1.436      1.751
REMARK  2 active torsions:
REMARK  status: ('A' for Active; 'I' for Inactive)
REMARK       I    between atoms: C1_2  and  N1_3 
REMARK       I    between atoms: C1_2  and  N3_16 
REMARK    1  A    between atoms: N1_3  and  C2_4 
REMARK    2  A    between atoms: N3_16  and  C13_17 
ROOT
HETATM    1  C2  UNL     1      22.528   2.881  51.598  1.00  0.00     0.056 C 
HETATM    2  C3  UNL     1      22.555   3.543  50.475  1.00  0.00     0.000 C 
HETATM    3  C4  UNL     1      21.797   3.125  49.484  1.00  0.00    -0.008 C 
HETATM    4  C5  UNL     1      21.543   1.645  49.474  1.00  0.00     0.064 C 
HETATM    5  C6  UNL     1      20.988   1.227  50.789  1.00  0.00    -0.038 C 
HETATM    6  C7  UNL     1      21.504   1.867  51.826  1.00  0.00     0.007 C 
HETATM    7  C8  UNL     1      20.852   1.342  53.042  1.00  0.00     0.259 C 
HETATM    8  C9  UNL     1      21.736   0.425  53.857  1.00  0.00     0.042 C 
HETATM    9  C10 UNL     1      20.891  -0.769  54.156  1.00  0.00     0.033 C 
HETATM   10  C11 UNL     1      19.599  -0.584  53.428  1.00  0.00     0.273 C 
HETATM   11  N2  UNL     1      19.749   0.554  52.576  1.00  0.00     0.101 N 
HETATM   12  C12 UNL     1      19.971   0.240  51.198  1.00  0.00     0.308 C 
ENDROOT
BRANCH   1  13
HETATM   13  N1  UNL     1      23.495   3.141  52.611  1.00  0.00    -0.307 N 
HETATM   14  C1  UNL     1      24.674   2.356  52.688  1.00  0.00     0.326 C 
HETATM   15  O1  UNL     1      24.934   1.409  51.892  1.00  0.00    -0.247 OA
HETATM   16  N3  UNL     1      25.626   2.619  53.692  1.00  0.00    -0.293 N 
HETATM   17  H14 UNL     1      25.476   3.379  54.374  1.00  0.00     0.172 HD
HETATM   18  H1  UNL     1      23.364   3.891  53.298  1.00  0.00     0.170 HD
BRANCH  16  19
HETATM   19  C13 UNL     1      26.849   1.901  53.872  1.00  0.00     0.131 A 
HETATM   20  C14 UNL     1      28.041   2.260  53.263  1.00  0.00     0.050 A 
HETATM   21  C15 UNL     1      29.135   1.489  53.519  1.00  0.00     0.005 A 
HETATM   22  C16 UNL     1      29.042   0.395  54.357  1.00  0.00     0.019 A 
HETATM   23  C17 UNL     1      27.841   0.054  54.956  1.00  0.00     0.119 A 
HETATM   24  N4  UNL     1      26.785   0.829  54.686  1.00  0.00    -0.243 NA
ENDBRANCH  16  19
ENDBRANCH   1  13
TORSDOF 2
ENDMDL
MODEL 4
REMARK VINA RESULT:      -8.3      3.194      5.565
REMARK  2 active torsions:
REMARK  status: ('A' for Active; 'I' for Inactive)
REMARK       I    between atoms: C1_2  and  N1_3 
REMARK       I    between atoms: C1_2  and  N3_16 
REMARK    1  A    between atoms: N1_3  and  C2_4 
REMARK    2  A    between atoms: N3_16  and  C13_17 
ROOT
HETATM    1  C2  UNL     1      25.600   0.570  52.333  1.00  0.00     0.056 C 
HETATM    2  C3  UNL     1      26.872   0.290  52.408  1.00  0.00     0.000 C 
HETATM    3  C4  UNL     1      27.302  -0.395  53.445  1.00  0.00    -0.008 C 
HETATM    4  C5  UNL     1      26.506  -0.188  54.702  1.00  0.00     0.064 C 
HETATM    5  C6  UNL     1      25.070  -0.465  54.434  1.00  0.00    -0.038 C 
HETATM    6  C7  UNL     1      24.654  -0.072  53.240  1.00  0.00     0.007 C 
HETATM    7  C8  UNL     1      23.223  -0.417  53.132  1.00  0.00     0.259 C 
HETATM    8  C9  UNL     1      22.301   0.776  53.247  1.00  0.00     0.042 C 
HETATM    9  C10 UNL     1      21.249   0.364  54.224  1.00  0.00     0.033 C 
HETATM   10  C11 UNL     1      21.633  -0.986  54.738  1.00  0.00     0.273 C 
HETATM   11  N2  UNL     1      22.948  -1.268  54.253  1.00  0.00     0.101 N 
HETATM   12  C12 UNL     1      23.989  -1.092  55.218  1.00  0.00     0.308 C 
ENDROOT
BRANCH   1  13
HETATM   13  N1  UNL     1      25.124   1.503  51.369  1.00  0.00    -0.307 N 
HETATM   14  C1  UNL     1      25.938   2.595  50.972  1.00  0.00     0.326 C 
HETATM   15  O1  UNL     1      27.097   2.802  51.430  1.00  0.00    -0.247 OA
HETATM   16  N3  UNL     1      25.460   3.514  50.017  1.00  0.00    -0.293 N 
HETATM   17  H14 UNL     1      24.521   3.402  49.602  1.00  0.00     0.172 HD
HETATM   18  H1  UNL     1      24.194   1.410  50.946  1.00  0.00     0.170 HD
BRANCH  16  19
HETATM   19  C13 UNL     1      26.183   4.649  49.537  1.00  0.00     0.131 A 
HETATM   20  C14 UNL     1      27.357   4.552  48.805  1.00  0.00     0.050 A 
HETATM   21  C15 UNL     1      27.947   5.715  48.408  1.00  0.00     0.005 A 
HETATM   22  C16 UNL     1      27.384   6.933  48.730  1.00  0.00     0.019 A 
HETATM   23  C17 UNL     1      26.212   7.008  49.462  1.00  0.00     0.119 A 
HETATM   24  N4  UNL     1      25.655   5.852  49.838  1.00  0.00    -0.243 NA
ENDBRANCH  16  19
ENDBRANCH   1  13
TORSDOF 2
ENDMDL
MODEL 5
REMARK VINA RESULT:      -7.7      2.596      6.006
REMARK  2 active torsions:
REMARK  status: ('A' for Active; 'I' for Inactive)
REMARK       I    between atoms: C1_2  and  N1_3 
REMARK       I    between atoms: C1_2  and  N3_16 
REMARK    1  A    between atoms: N1_3  and  C2_4 
REMARK    2  A    between atoms: N3_16  and  C13_17 
ROOT
HETATM    1  C2  UNL     1      25.460   0.512  52.323  1.00  0.00     0.056 C 
HETATM    2  C3  UNL     1      26.740   0.291  52.442  1.00  0.00     0.000 C 
HETATM    3  C4  UNL     1      27.174  -0.299  53.536  1.00  0.00    -0.008 C 
HETATM    4  C5  UNL     1      26.343  -0.034  54.759  1.00  0.00     0.064 C 
HETATM    5  C6  UNL     1      24.926  -0.389  54.483  1.00  0.00    -0.038 C 
HETATM    6  C7  UNL     1      24.521  -0.102  53.256  1.00  0.00     0.007 C 
HETATM    7  C8  UNL     1      23.108  -0.513  53.146  1.00  0.00     0.259 C 
HETATM    8  C9  UNL     1      22.136   0.645  53.154  1.00  0.00     0.042 C 
HETATM    9  C10 UNL     1      21.080   0.262  54.138  1.00  0.00     0.033 C 
HETATM   10  C11 UNL     1      21.506  -1.029  54.757  1.00  0.00     0.273 C 
HETATM   11  N2  UNL     1      22.842  -1.291  54.320  1.00  0.00     0.101 N 
HETATM   12  C12 UNL     1      23.853  -1.002  55.289  1.00  0.00     0.308 C 
ENDROOT
BRANCH   1  13
HETATM   13  N1  UNL     1      24.969   1.352  51.283  1.00  0.00    -0.307 N 
HETATM   14  C1  UNL     1      24.695   2.719  51.542  1.00  0.00     0.326 C 
HETATM   15  O1  UNL     1      24.865   3.262  52.671  1.00  0.00    -0.247 OA
HETATM   16  N3  UNL     1      24.209   3.544  50.509  1.00  0.00    -0.293 N 
HETATM   17  H14 UNL     1      24.050   3.164  49.562  1.00  0.00     0.172 HD
HETATM   18  H1  UNL     1      24.803   0.993  50.337  1.00  0.00     0.170 HD
BRANCH  16  19
HETATM   19  C13 UNL     1      23.898   4.932  50.645  1.00  0.00     0.131 A 
HETATM   20  C14 UNL     1      22.622   5.406  50.908  1.00  0.00     0.050 A 
HETATM   21  C15 UNL     1      22.462   6.755  51.014  1.00  0.00     0.005 A 
HETATM   22  C16 UNL     1      23.540   7.603  50.862  1.00  0.00     0.019 A 
HETATM   23  C17 UNL     1      24.807   7.111  50.600  1.00  0.00     0.119 A 
HETATM   24  N4  UNL     1      24.934   5.783  50.502  1.00  0.00    -0.243 NA
ENDBRANCH  16  19
ENDBRANCH   1  13
TORSDOF 2
ENDMDL
MODEL 6
REMARK VINA RESULT:      -7.7      3.275      6.006
REMARK  2 active torsions:
REMARK  status: ('A' for Active; 'I' for Inactive)
REMARK       I    between atoms: C1_2  and  N1_3 
REMARK       I    between atoms: C1_2  and  N3_16 
REMARK    1  A    between atoms: N1_3  and  C2_4 
REMARK    2  A    between atoms: N3_16  and  C13_17 
ROOT
HETATM    1  C2  UNL     1      24.956   1.828  52.245  1.00  0.00     0.056 C 
HETATM    2  C3  UNL     1      26.062   1.140  52.326  1.00  0.00     0.000 C 
HETATM    3  C4  UNL     1      25.982  -0.138  52.628  1.00  0.00    -0.008 C 
HETATM    4  C5  UNL     1      24.809  -0.503  53.492  1.00  0.00     0.064 C 
HETATM    5  C6  UNL     1      23.555  -0.023  52.855  1.00  0.00    -0.038 C 
HETATM    6  C7  UNL     1      23.667   1.144  52.242  1.00  0.00     0.007 C 
HETATM    7  C8  UNL     1      22.348   1.474  51.667  1.00  0.00     0.259 C 
HETATM    8  C9  UNL     1      21.610   2.556  52.424  1.00  0.00     0.042 C 
HETATM    9  C10 UNL     1      20.227   2.025  52.613  1.00  0.00     0.033 C 
HETATM   10  C11 UNL     1      20.216   0.630  52.078  1.00  0.00     0.273 C 
HETATM   11  N2  UNL     1      21.569   0.276  51.782  1.00  0.00     0.101 N 
HETATM   12  C12 UNL     1      22.189  -0.571  52.753  1.00  0.00     0.308 C 
ENDROOT
BRANCH   1  13
HETATM   13  N1  UNL     1      24.997   3.249  52.161  1.00  0.00    -0.307 N 
HETATM   14  C1  UNL     1      25.085   3.884  50.896  1.00  0.00     0.326 C 
HETATM   15  O1  UNL     1      25.131   3.254  49.801  1.00  0.00    -0.247 OA
HETATM   16  N3  UNL     1      25.126   5.291  50.820  1.00  0.00    -0.293 N 
HETATM   17  H14 UNL     1      25.092   5.865  51.677  1.00  0.00     0.172 HD
HETATM   18  H1  UNL     1      24.965   3.837  53.000  1.00  0.00     0.170 HD
BRANCH  16  19
HETATM   19  C13 UNL     1      25.213   6.045  49.609  1.00  0.00     0.131 A 
HETATM   20  C14 UNL     1      26.415   6.437  49.040  1.00  0.00     0.050 A 
HETATM   21  C15 UNL     1      26.358   7.153  47.882  1.00  0.00     0.005 A 
HETATM   22  C16 UNL     1      25.141   7.468  47.311  1.00  0.00     0.019 A 
HETATM   23  C17 UNL     1      23.952   7.066  47.896  1.00  0.00     0.119 A 
HETATM   24  N4  UNL     1      24.039   6.365  49.031  1.00  0.00    -0.243 NA
ENDBRANCH  16  19
ENDBRANCH   1  13
TORSDOF 2
ENDMDL
MODEL 7
REMARK VINA RESULT:      -7.7      2.011      2.797
REMARK  2 active torsions:
REMARK  status: ('A' for Active; 'I' for Inactive)
REMARK       I    between atoms: C1_2  and  N1_3 
REMARK       I    between atoms: C1_2  and  N3_16 
REMARK    1  A    between atoms: N1_3  and  C2_4 
REMARK    2  A    between atoms: N3_16  and  C13_17 
ROOT
HETATM    1  C2  UNL     1      23.371   4.056  51.262  1.00  0.00     0.056 C 
HETATM    2  C3  UNL     1      23.509   5.352  51.319  1.00  0.00     0.000 C 
HETATM    3  C4  UNL     1      22.431   6.090  51.478  1.00  0.00    -0.008 C 
HETATM    4  C5  UNL     1      21.178   5.496  50.901  1.00  0.00     0.064 C 
HETATM    5  C6  UNL     1      20.979   4.128  51.450  1.00  0.00    -0.038 C 
HETATM    6  C7  UNL     1      22.097   3.440  51.617  1.00  0.00     0.007 C 
HETATM    7  C8  UNL     1      21.728   2.119  52.164  1.00  0.00     0.259 C 
HETATM    8  C9  UNL     1      21.826   0.996  51.156  1.00  0.00     0.042 C 
HETATM    9  C10 UNL     1      20.545   0.240  51.287  1.00  0.00     0.033 C 
HETATM   10  C11 UNL     1      19.694   0.987  52.262  1.00  0.00     0.273 C 
HETATM   11  N2  UNL     1      20.348   2.229  52.535  1.00  0.00     0.101 N 
HETATM   12  C12 UNL     1      19.788   3.357  51.857  1.00  0.00     0.308 C 
ENDROOT
BRANCH   1  13
HETATM   13  N1  UNL     1      24.459   3.233  50.855  1.00  0.00    -0.307 N 
HETATM   14  C1  UNL     1      25.268   2.590  51.826  1.00  0.00     0.326 C 
HETATM   15  O1  UNL     1      25.082   2.700  53.071  1.00  0.00    -0.247 OA
HETATM   16  N3  UNL     1      26.343   1.777  51.416  1.00  0.00    -0.293 N 
HETATM   17  H14 UNL     1      26.549   1.644  50.413  1.00  0.00     0.172 HD
HETATM   18  H1  UNL     1      24.680   3.089  49.864  1.00  0.00     0.170 HD
BRANCH  16  19
HETATM   19  C13 UNL     1      27.226   1.079  52.296  1.00  0.00     0.131 A 
HETATM   20  C14 UNL     1      27.130  -0.281  52.551  1.00  0.00     0.050 A 
HETATM   21  C15 UNL     1      28.037  -0.824  53.412  1.00  0.00     0.005 A 
HETATM   22  C16 UNL     1      29.008  -0.035  53.997  1.00  0.00     0.019 A 
HETATM   23  C17 UNL     1      29.087   1.320  53.728  1.00  0.00     0.119 A 
HETATM   24  N4  UNL     1      28.184   1.825  52.880  1.00  0.00    -0.243 NA
ENDBRANCH  16  19
ENDBRANCH   1  13
TORSDOF 2
ENDMDL
MODEL 8
REMARK VINA RESULT:      -7.4      3.453      5.721
REMARK  2 active torsions:
REMARK  status: ('A' for Active; 'I' for Inactive)
REMARK       I    between atoms: C1_2  and  N1_3 
REMARK       I    between atoms: C1_2  and  N3_16 
REMARK    1  A    between atoms: N1_3  and  C2_4 
REMARK    2  A    between atoms: N3_16  and  C13_17 
ROOT
HETATM    1  C2  UNL     1      23.927   3.667  50.006  1.00  0.00     0.056 C 
HETATM    2  C3  UNL     1      23.277   2.715  49.396  1.00  0.00     0.000 C 
HETATM    3  C4  UNL     1      22.705   2.986  48.243  1.00  0.00    -0.008 C 
HETATM    4  C5  UNL     1      22.263   4.413  48.086  1.00  0.00     0.064 C 
HETATM    5  C6  UNL     1      23.413   5.320  48.343  1.00  0.00    -0.038 C 
HETATM    6  C7  UNL     1      24.222   4.914  49.308  1.00  0.00     0.007 C 
HETATM    7  C8  UNL     1      25.300   5.915  49.435  1.00  0.00     0.259 C 
HETATM    8  C9  UNL     1      25.169   6.797  50.656  1.00  0.00     0.042 C 
HETATM    9  C10 UNL     1      25.365   8.190  50.155  1.00  0.00     0.033 C 
HETATM   10  C11 UNL     1      25.488   8.107  48.668  1.00  0.00     0.273 C 
HETATM   11  N2  UNL     1      25.171   6.766  48.288  1.00  0.00     0.101 N 
HETATM   12  C12 UNL     1      23.857   6.595  47.748  1.00  0.00     0.308 C 
ENDROOT
BRANCH   1  13
HETATM   13  N1  UNL     1      24.355   3.499  51.353  1.00  0.00    -0.307 N 
HETATM   14  C1  UNL     1      25.528   2.757  51.641  1.00  0.00     0.326 C 
HETATM   15  O1  UNL     1      26.246   2.217  50.752  1.00  0.00    -0.247 OA
HETATM   16  N3  UNL     1      25.945   2.594  52.977  1.00  0.00    -0.293 N 
HETATM   17  H14 UNL     1      25.404   3.011  53.751  1.00  0.00     0.172 HD
HETATM   18  H1  UNL     1      23.831   3.904  52.137  1.00  0.00     0.170 HD
BRANCH  16  19
HETATM   19  C13 UNL     1      27.106   1.872  53.392  1.00  0.00     0.131 A 
HETATM   20  C14 UNL     1      27.210   0.491  53.323  1.00  0.00     0.050 A 
HETATM   21  C15 UNL     1      28.374  -0.074  53.752  1.00  0.00     0.005 A 
HETATM   22  C16 UNL     1      29.400   0.715  54.234  1.00  0.00     0.019 A 
HETATM   23  C17 UNL     1      29.276   2.092  54.294  1.00  0.00     0.119 A 
HETATM   24  N4  UNL     1      28.123   2.618  53.866  1.00  0.00    -0.243 NA
ENDBRANCH  16  19
ENDBRANCH   1  13
TORSDOF 2
ENDMDL
MODEL 9
REMARK VINA RESULT:      -7.3      2.869      7.136
REMARK  2 active torsions:
REMARK  status: ('A' for Active; 'I' for Inactive)
REMARK       I    between atoms: C1_2  and  N1_3 
REMARK       I    between atoms: C1_2  and  N3_16 
REMARK    1  A    between atoms: N1_3  and  C2_4 
REMARK    2  A    between atoms: N3_16  and  C13_17 
ROOT
HETATM    1  C2  UNL     1      22.098   1.368  52.939  1.00  0.00     0.056 C 
HETATM    2  C3  UNL     1      21.146   0.692  53.521  1.00  0.00     0.000 C 
HETATM    3  C4  UNL     1      21.434  -0.493  54.017  1.00  0.00    -0.008 C 
HETATM    4  C5  UNL     1      22.537  -1.218  53.300  1.00  0.00     0.064 C 
HETATM    5  C6  UNL     1      23.744  -0.352  53.241  1.00  0.00    -0.038 C 
HETATM    6  C7  UNL     1      23.485   0.933  53.060  1.00  0.00     0.007 C 
HETATM    7  C8  UNL     1      24.776   1.647  53.027  1.00  0.00     0.259 C 
HETATM    8  C9  UNL     1      25.189   2.092  51.641  1.00  0.00     0.042 C 
HETATM    9  C10 UNL     1      26.613   1.667  51.502  1.00  0.00     0.033 C 
HETATM   10  C11 UNL     1      26.963   0.897  52.734  1.00  0.00     0.273 C 
HETATM   11  N2  UNL     1      25.753   0.695  53.468  1.00  0.00     0.101 N 
HETATM   12  C12 UNL     1      25.192  -0.615  53.343  1.00  0.00     0.308 C 
ENDROOT
BRANCH   1  13
HETATM   13  N1  UNL     1      21.792   2.534  52.181  1.00  0.00    -0.307 N 
HETATM   14  C1  UNL     1      21.675   2.457  50.770  1.00  0.00     0.326 C 
HETATM   15  O1  UNL     1      21.827   1.386  50.116  1.00  0.00    -0.247 OA
HETATM   16  N3  UNL     1      21.372   3.615  50.027  1.00  0.00    -0.293 N 
HETATM   17  H14 UNL     1      21.234   4.523  50.500  1.00  0.00     0.172 HD
HETATM   18  H1  UNL     1      21.652   3.445  52.632  1.00  0.00     0.170 HD
BRANCH  16  19
HETATM   19  C13 UNL     1      21.227   3.664  48.606  1.00  0.00     0.131 A 
HETATM   20  C14 UNL     1      22.274   3.948  47.743  1.00  0.00     0.050 A 
HETATM   21  C15 UNL     1      22.001   3.963  46.408  1.00  0.00     0.005 A 
HETATM   22  C16 UNL     1      20.725   3.703  45.950  1.00  0.00     0.019 A 
HETATM   23  C17 UNL     1      19.693   3.422  46.829  1.00  0.00     0.119 A 
HETATM   24  N4  UNL     1      19.991   3.414  48.133  1.00  0.00    -0.243 NA
ENDBRANCH  16  19
ENDBRANCH   1  13
TORSDOF 2
ENDMDL
