MODEL 1
REMARK VINA RESULT:      -8.1      0.000      0.000
REMARK  8 active torsions:
REMARK  status: ('A' for Active; 'I' for Inactive)
REMARK    1  A    between atoms: O1_2  and  C2_3 
REMARK    2  A    between atoms: C5_6  and  C6_7 
REMARK    3  A    between atoms: C6_7  and  C7_8 
REMARK    4  A    between atoms: C8_10  and  N2_11 
REMARK    5  A    between atoms: C8_10  and  C9_13 
REMARK    6  A    between atoms: N2_11  and  N3_12 
REMARK    7  A    between atoms: C10_15  and  C11_16 
REMARK    8  A    between atoms: C17_23  and  S1_24 
ROOT
HETATM    1  C7  UNL     1      26.415   1.243  54.018  1.00  0.00     0.064 A 
HETATM    2  N1  UNL     1      26.394   2.623  53.937  1.00  0.00    -0.253 NA
HETATM    3  C8  UNL     1      25.874   1.976  52.848  1.00  0.00     0.219 A 
ENDROOT
BRANCH   3   4
HETATM    4  N2  UNL     1      26.574   1.879  51.581  1.00  0.00    -0.223 NA
HETATM    5  H10 UNL     1      27.245   1.102  51.545  1.00  0.00     0.144 HD
BRANCH   4   6
HETATM    6  N3  UNL     1      27.095   3.101  51.166  1.00  0.00    -0.268 NA
HETATM    7  H11 UNL     1      27.769   2.888  50.370  1.00  0.00     0.137 HD
HETATM    8  H12 UNL     1      27.596   3.627  51.910  1.00  0.00     0.137 HD
ENDBRANCH   4   6
ENDBRANCH   3   4
BRANCH   3   9
HETATM    9  C9  UNL     1      24.362   2.019  52.693  1.00  0.00     0.242 A 
HETATM   10  N4  UNL     1      23.288   2.113  52.559  1.00  0.00     0.070 N 
HETATM   11  C10 UNL     1      22.178   1.467  52.693  1.00  0.00     0.189 A 
HETATM   12  S1  UNL     1      23.459   3.564  52.042  1.00  0.00     0.090 SA
HETATM   13  C17 UNL     1      21.845   2.751  52.190  1.00  0.00     0.361 A 
BRANCH  11  14
HETATM   14  C11 UNL     1      21.132   0.489  52.954  1.00  0.00    -0.001 A 
HETATM   15  C12 UNL     1      21.369  -0.567  53.810  1.00  0.00     0.015 A 
HETATM   16  C13 UNL     1      20.466  -1.556  54.138  1.00  0.00     0.024 A 
HETATM   17  C14 UNL     1      19.267  -1.362  53.499  1.00  0.00     0.034 A 
HETATM   18 CL1  UNL     1      17.998  -2.548  53.815  1.00  0.00    -0.084 Cl
HETATM   19  C15 UNL     1      18.931  -0.348  52.632  1.00  0.00     0.024 A 
HETATM   20  C16 UNL     1      19.898   0.588  52.367  1.00  0.00     0.015 A 
ENDBRANCH  11  14
ENDBRANCH   3   9
BRANCH   1  21
HETATM   21  C6  UNL     1      26.855   0.233  54.980  1.00  0.00     0.070 C 
BRANCH  21  22
HETATM   22  C5  UNL     1      28.322  -0.123  54.901  1.00  0.00     0.051 A 
HETATM   23  C2  UNL     1      28.707  -0.916  53.746  1.00  0.00     0.046 A 
HETATM   24  C3  UNL     1      29.500  -0.022  53.288  1.00  0.00     0.006 A 
HETATM   25  C4  UNL     1      29.231   0.910  54.382  1.00  0.00     0.041 A 
BRANCH  23  26
HETATM   26  O1  UNL     1      28.371  -2.162  53.282  1.00  0.00    -0.360 OA
HETATM   27  C1  UNL     1      27.194  -2.343  52.542  1.00  0.00     0.209 C 
ENDBRANCH  23  26
ENDBRANCH  21  22
ENDBRANCH   1  21
TORSDOF 8
ENDMDL
MODEL 2
REMARK VINA RESULT:      -8.0      5.352      7.477
REMARK  8 active torsions:
REMARK  status: ('A' for Active; 'I' for Inactive)
REMARK    1  A    between atoms: O1_2  and  C2_3 
REMARK    2  A    between atoms: C5_6  and  C6_7 
REMARK    3  A    between atoms: C6_7  and  C7_8 
REMARK    4  A    between atoms: C8_10  and  N2_11 
REMARK    5  A    between atoms: C8_10  and  C9_13 
REMARK    6  A    between atoms: N2_11  and  N3_12 
REMARK    7  A    between atoms: C10_15  and  C11_16 
REMARK    8  A    between atoms: C17_23  and  S1_24 
ROOT
HETATM    1  C7  UNL     1      25.515   1.218  51.943  1.00  0.00     0.064 A 
HETATM    2  N1  UNL     1      24.146   1.395  51.877  1.00  0.00    -0.253 NA
HETATM    3  C8  UNL     1      24.863   2.541  52.097  1.00  0.00     0.219 A 
ENDROOT
BRANCH   3   4
HETATM    4  N2  UNL     1      24.919   3.200  53.389  1.00  0.00    -0.223 NA
HETATM    5  H10 UNL     1      24.746   2.564  54.177  1.00  0.00     0.144 HD
BRANCH   4   6
HETATM    6  N3  UNL     1      24.162   4.368  53.423  1.00  0.00    -0.268 NA
HETATM    7  H11 UNL     1      24.653   5.065  52.786  1.00  0.00     0.137 HD
HETATM    8  H12 UNL     1      24.058   4.781  54.371  1.00  0.00     0.137 HD
ENDBRANCH   4   6
ENDBRANCH   3   4
BRANCH   3   9
HETATM    9  C9  UNL     1      24.970   3.509  50.929  1.00  0.00     0.242 A 
HETATM   10  N4  UNL     1      24.978   4.197  50.089  1.00  0.00     0.070 N 
HETATM   11  C10 UNL     1      25.768   4.900  49.347  1.00  0.00     0.189 A 
HETATM   12  S1  UNL     1      23.435   4.104  49.971  1.00  0.00     0.090 SA
HETATM   13  C17 UNL     1      24.451   5.128  48.872  1.00  0.00     0.361 A 
BRANCH  11  14
HETATM   14  C11 UNL     1      26.901   5.558  48.713  1.00  0.00    -0.001 A 
HETATM   15  C12 UNL     1      26.754   6.815  48.163  1.00  0.00     0.015 A 
HETATM   16  C13 UNL     1      27.744   7.540  47.537  1.00  0.00     0.024 A 
HETATM   17  C14 UNL     1      28.930   6.850  47.524  1.00  0.00     0.034 A 
HETATM   18 CL1  UNL     1      30.305   7.647  46.754  1.00  0.00    -0.084 Cl
HETATM   19  C15 UNL     1      29.181   5.600  48.041  1.00  0.00     0.024 A 
HETATM   20  C16 UNL     1      28.131   4.956  48.644  1.00  0.00     0.015 A 
ENDBRANCH  11  14
ENDBRANCH   3   9
BRANCH   1  21
HETATM   21  C6  UNL     1      26.458   0.105  51.841  1.00  0.00     0.070 C 
BRANCH  21  22
HETATM   22  C5  UNL     1      26.857  -0.513  53.162  1.00  0.00     0.051 A 
HETATM   23  C2  UNL     1      27.517   0.386  54.093  1.00  0.00     0.046 A 
HETATM   24  C3  UNL     1      26.604   0.273  54.984  1.00  0.00     0.006 A 
HETATM   25  C4  UNL     1      25.804  -0.649  54.179  1.00  0.00     0.041 A 
BRANCH  23  26
HETATM   26  O1  UNL     1      28.683   1.107  54.068  1.00  0.00    -0.360 OA
HETATM   27  C1  UNL     1      28.667   2.460  53.700  1.00  0.00     0.209 C 
ENDBRANCH  23  26
ENDBRANCH  21  22
ENDBRANCH   1  21
TORSDOF 8
ENDMDL
MODEL 3
REMARK VINA RESULT:      -7.9      4.003      5.945
REMARK  8 active torsions:
REMARK  status: ('A' for Active; 'I' for Inactive)
REMARK    1  A    between atoms: O1_2  and  C2_3 
REMARK    2  A    between atoms: C5_6  and  C6_7 
REMARK    3  A    between atoms: C6_7  and  C7_8 
REMARK    4  A    between atoms: C8_10  and  N2_11 
REMARK    5  A    between atoms: C8_10  and  C9_13 
REMARK    6  A    between atoms: N2_11  and  N3_12 
REMARK    7  A    between atoms: C10_15  and  C11_16 
REMARK    8  A    between atoms: C17_23  and  S1_24 
ROOT
HETATM    1  C7  UNL     1      23.777  -0.492  53.794  1.00  0.00     0.064 A 
HETATM    2  N1  UNL     1      22.845  -1.252  53.113  1.00  0.00    -0.253 NA
HETATM    3  C8  UNL     1      22.539   0.079  53.213  1.00  0.00     0.219 A 
ENDROOT
BRANCH   3   4
HETATM    4  N2  UNL     1      21.518   0.589  54.110  1.00  0.00    -0.223 NA
HETATM    5  H10 UNL     1      21.880   0.832  55.041  1.00  0.00     0.144 HD
BRANCH   4   6
HETATM    6  N3  UNL     1      20.381  -0.213  54.133  1.00  0.00    -0.268 NA
HETATM    7  H11 UNL     1      20.225  -0.545  53.134  1.00  0.00     0.137 HD
HETATM    8  H12 UNL     1      19.526   0.268  54.474  1.00  0.00     0.137 HD
ENDBRANCH   4   6
ENDBRANCH   3   4
BRANCH   3   9
HETATM    9  C9  UNL     1      22.683   0.906  51.944  1.00  0.00     0.242 A 
HETATM   10  N4  UNL     1      22.727   1.469  51.017  1.00  0.00     0.070 N 
HETATM   11  C10 UNL     1      23.452   2.315  50.366  1.00  0.00     0.189 A 
HETATM   12  S1  UNL     1      21.378   0.859  50.559  1.00  0.00     0.090 SA
HETATM   13  C17 UNL     1      22.317   2.046  49.559  1.00  0.00     0.361 A 
BRANCH  11  14
HETATM   14  C11 UNL     1      24.474   3.244  49.905  1.00  0.00    -0.001 A 
HETATM   15  C12 UNL     1      24.114   4.475  49.394  1.00  0.00     0.015 A 
HETATM   16  C13 UNL     1      24.982   5.438  48.927  1.00  0.00     0.024 A 
HETATM   17  C14 UNL     1      26.286   5.022  49.032  1.00  0.00     0.034 A 
HETATM   18 CL1  UNL     1      27.526   6.148  48.473  1.00  0.00    -0.084 Cl
HETATM   19  C15 UNL     1      26.748   3.823  49.523  1.00  0.00     0.024 A 
HETATM   20  C16 UNL     1      25.807   2.928  49.964  1.00  0.00     0.015 A 
ENDBRANCH  11  14
ENDBRANCH   3   9
BRANCH   1  21
HETATM   21  C6  UNL     1      25.056  -0.717  54.470  1.00  0.00     0.070 C 
BRANCH  21  22
HETATM   22  C5  UNL     1      26.063   0.399  54.310  1.00  0.00     0.051 A 
HETATM   23  C2  UNL     1      27.370  -0.009  53.826  1.00  0.00     0.046 A 
HETATM   24  C3  UNL     1      27.293   0.699  52.763  1.00  0.00     0.006 A 
HETATM   25  C4  UNL     1      25.965   1.216  53.091  1.00  0.00     0.041 A 
BRANCH  23  26
HETATM   26  O1  UNL     1      28.352  -0.841  54.300  1.00  0.00    -0.360 OA
HETATM   27  C1  UNL     1      29.642  -0.791  53.753  1.00  0.00     0.209 C 
ENDBRANCH  23  26
ENDBRANCH  21  22
ENDBRANCH   1  21
TORSDOF 8
ENDMDL
MODEL 4
REMARK VINA RESULT:      -7.8      3.498      6.805
REMARK  8 active torsions:
REMARK  status: ('A' for Active; 'I' for Inactive)
REMARK    1  A    between atoms: O1_2  and  C2_3 
REMARK    2  A    between atoms: C5_6  and  C6_7 
REMARK    3  A    between atoms: C6_7  and  C7_8 
REMARK    4  A    between atoms: C8_10  and  N2_11 
REMARK    5  A    between atoms: C8_10  and  C9_13 
REMARK    6  A    between atoms: N2_11  and  N3_12 
REMARK    7  A    between atoms: C10_15  and  C11_16 
REMARK    8  A    between atoms: C17_23  and  S1_24 
ROOT
HETATM    1  C7  UNL     1      21.569   2.982  52.112  1.00  0.00     0.064 A 
HETATM    2  N1  UNL     1      21.613   3.755  50.967  1.00  0.00    -0.253 NA
HETATM    3  C8  UNL     1      22.597   4.024  51.879  1.00  0.00     0.219 A 
ENDROOT
BRANCH   3   4
HETATM    4  N2  UNL     1      22.593   5.208  52.718  1.00  0.00    -0.223 NA
HETATM    5  H10 UNL     1      22.243   6.046  52.237  1.00  0.00     0.144 HD
BRANCH   4   6
HETATM    6  N3  UNL     1      23.802   5.395  53.381  1.00  0.00    -0.268 NA
HETATM    7  H11 UNL     1      23.820   6.412  53.695  1.00  0.00     0.137 HD
HETATM    8  H12 UNL     1      24.642   5.199  52.801  1.00  0.00     0.137 HD
ENDBRANCH   4   6
ENDBRANCH   3   4
BRANCH   3   9
HETATM    9  C9  UNL     1      23.999   3.551  51.524  1.00  0.00     0.242 A 
HETATM   10  N4  UNL     1      24.997   3.254  51.216  1.00  0.00     0.070 N 
HETATM   11  C10 UNL     1      25.988   2.496  51.547  1.00  0.00     0.189 A 
HETATM   12  S1  UNL     1      24.919   4.193  49.986  1.00  0.00     0.090 SA
HETATM   13  C17 UNL     1      26.368   3.167  50.356  1.00  0.00     0.361 A 
BRANCH  11  14
HETATM   14  C11 UNL     1      26.902   1.556  52.181  1.00  0.00    -0.001 A 
HETATM   15  C12 UNL     1      28.012   2.018  52.858  1.00  0.00     0.015 A 
HETATM   16  C13 UNL     1      28.949   1.235  53.497  1.00  0.00     0.024 A 
HETATM   17  C14 UNL     1      28.642  -0.098  53.382  1.00  0.00     0.034 A 
HETATM   18 CL1  UNL     1      29.749  -1.238  54.151  1.00  0.00    -0.084 Cl
HETATM   19  C15 UNL     1      27.566  -0.659  52.733  1.00  0.00     0.024 A 
HETATM   20  C16 UNL     1      26.689   0.203  52.126  1.00  0.00     0.015 A 
ENDBRANCH  11  14
ENDBRANCH   3   9
BRANCH   1  21
HETATM   21  C6  UNL     1      20.731   1.910  52.649  1.00  0.00     0.070 C 
BRANCH  21  22
HETATM   22  C5  UNL     1      21.462   0.904  53.510  1.00  0.00     0.051 A 
HETATM   23  C2  UNL     1      20.954  -0.455  53.443  1.00  0.00     0.046 A 
HETATM   24  C3  UNL     1      22.049  -0.933  52.981  1.00  0.00     0.006 A 
HETATM   25  C4  UNL     1      22.723   0.365  52.980  1.00  0.00     0.041 A 
BRANCH  23  26
HETATM   26  O1  UNL     1      19.757  -1.049  53.749  1.00  0.00    -0.360 OA
HETATM   27  C1  UNL     1      18.646  -0.866  52.913  1.00  0.00     0.209 C 
ENDBRANCH  23  26
ENDBRANCH  21  22
ENDBRANCH   1  21
TORSDOF 8
ENDMDL
MODEL 5
REMARK VINA RESULT:      -7.7      1.355      2.182
REMARK  8 active torsions:
REMARK  status: ('A' for Active; 'I' for Inactive)
REMARK    1  A    between atoms: O1_2  and  C2_3 
REMARK    2  A    between atoms: C5_6  and  C6_7 
REMARK    3  A    between atoms: C6_7  and  C7_8 
REMARK    4  A    between atoms: C8_10  and  N2_11 
REMARK    5  A    between atoms: C8_10  and  C9_13 
REMARK    6  A    between atoms: N2_11  and  N3_12 
REMARK    7  A    between atoms: C10_15  and  C11_16 
REMARK    8  A    between atoms: C17_23  and  S1_24 
ROOT
HETATM    1  C7  UNL     1      26.504   1.181  51.683  1.00  0.00     0.064 A 
HETATM    2  N1  UNL     1      26.737   2.383  52.322  1.00  0.00    -0.253 NA
HETATM    3  C8  UNL     1      25.861   2.452  51.272  1.00  0.00     0.219 A 
ENDROOT
BRANCH   3   4
HETATM    4  N2  UNL     1      26.214   3.029  49.988  1.00  0.00    -0.223 NA
HETATM    5  H10 UNL     1      26.531   2.332  49.303  1.00  0.00     0.144 HD
BRANCH   4   6
HETATM    6  N3  UNL     1      27.056   4.130  50.113  1.00  0.00    -0.268 NA
HETATM    7  H11 UNL     1      27.058   4.617  49.167  1.00  0.00     0.137 HD
HETATM    8  H12 UNL     1      28.032   3.893  50.380  1.00  0.00     0.137 HD
ENDBRANCH   4   6
ENDBRANCH   3   4
BRANCH   3   9
HETATM    9  C9  UNL     1      24.392   2.635  51.624  1.00  0.00     0.242 A 
HETATM   10  N4  UNL     1      23.354   2.832  51.872  1.00  0.00     0.070 N 
HETATM   11  C10 UNL     1      22.240   2.247  52.159  1.00  0.00     0.189 A 
HETATM   12  S1  UNL     1      23.598   4.359  51.769  1.00  0.00     0.090 SA
HETATM   13  C17 UNL     1      21.985   3.642  52.181  1.00  0.00     0.361 A 
BRANCH  11  14
HETATM   14  C11 UNL     1      21.170   1.302  52.446  1.00  0.00    -0.001 A 
HETATM   15  C12 UNL     1      21.290   0.415  53.496  1.00  0.00     0.015 A 
HETATM   16  C13 UNL     1      20.353  -0.525  53.868  1.00  0.00     0.024 A 
HETATM   17  C14 UNL     1      19.251  -0.475  53.051  1.00  0.00     0.034 A 
HETATM   18 CL1  UNL     1      17.953  -1.621  53.398  1.00  0.00    -0.084 Cl
HETATM   19  C15 UNL     1      19.034   0.366  51.984  1.00  0.00     0.024 A 
HETATM   20  C16 UNL     1      20.026   1.266  51.691  1.00  0.00     0.015 A 
ENDBRANCH  11  14
ENDBRANCH   3   9
BRANCH   1  21
HETATM   21  C6  UNL     1      26.948  -0.207  51.814  1.00  0.00     0.070 C 
BRANCH  21  22
HETATM   22  C5  UNL     1      26.301  -0.975  52.944  1.00  0.00     0.051 A 
HETATM   23  C2  UNL     1      26.679  -0.549  54.281  1.00  0.00     0.046 A 
HETATM   24  C3  UNL     1      25.486  -0.216  54.605  1.00  0.00     0.006 A 
HETATM   25  C4  UNL     1      24.927  -0.597  53.308  1.00  0.00     0.041 A 
BRANCH  23  26
HETATM   26  O1  UNL     1      27.860  -0.503  54.975  1.00  0.00    -0.360 OA
HETATM   27  C1  UNL     1      28.733   0.582  54.809  1.00  0.00     0.209 C 
ENDBRANCH  23  26
ENDBRANCH  21  22
ENDBRANCH   1  21
TORSDOF 8
ENDMDL
MODEL 6
REMARK VINA RESULT:      -7.7      4.353      8.502
REMARK  8 active torsions:
REMARK  status: ('A' for Active; 'I' for Inactive)
REMARK    1  A    between atoms: O1_2  and  C2_3 
REMARK    2  A    between atoms: C5_6  and  C6_7 
REMARK    3  A    between atoms: C6_7  and  C7_8 
REMARK    4  A    between atoms: C8_10  and  N2_11 
REMARK    5  A    between atoms: C8_10  and  C9_13 
REMARK    6  A    between atoms: N2_11  and  N3_12 
REMARK    7  A    between atoms: C10_15  and  C11_16 
REMARK    8  A    between atoms: C17_23  and  S1_24 
ROOT
HETATM    1  C7  UNL     1      20.145  -0.509  53.671  1.00  0.00     0.064 A 
HETATM    2  N1  UNL     1      20.544   0.261  54.747  1.00  0.00    -0.253 NA
HETATM    3  C8  UNL     1      21.476  -0.641  54.310  1.00  0.00     0.219 A 
ENDROOT
BRANCH   3   4
HETATM    4  N2  UNL     1      21.787  -1.864  55.027  1.00  0.00    -0.223 NA
HETATM    5  H10 UNL     1      20.991  -2.237  55.558  1.00  0.00     0.144 HD
BRANCH   4   6
HETATM    6  N3  UNL     1      22.965  -1.765  55.761  1.00  0.00    -0.268 NA
HETATM    7  H11 UNL     1      23.685  -1.314  55.120  1.00  0.00     0.137 HD
HETATM    8  H12 UNL     1      23.332  -2.676  56.104  1.00  0.00     0.137 HD
ENDBRANCH   4   6
ENDBRANCH   3   4
BRANCH   3   9
HETATM    9  C9  UNL     1      22.670  -0.072  53.557  1.00  0.00     0.242 A 
HETATM   10  N4  UNL     1      23.477   0.367  52.979  1.00  0.00     0.070 N 
HETATM   11  C10 UNL     1      24.764   0.407  52.883  1.00  0.00     0.189 A 
HETATM   12  S1  UNL     1      22.458   1.113  52.082  1.00  0.00     0.090 SA
HETATM   13  C17 UNL     1      24.252   1.243  51.858  1.00  0.00     0.361 A 
BRANCH  11  14
HETATM   14  C11 UNL     1      26.202   0.239  53.042  1.00  0.00    -0.001 A 
HETATM   15  C12 UNL     1      26.770  -1.014  52.936  1.00  0.00     0.015 A 
HETATM   16  C13 UNL     1      28.111  -1.305  53.066  1.00  0.00     0.024 A 
HETATM   17  C14 UNL     1      28.840  -0.170  53.318  1.00  0.00     0.034 A 
HETATM   18 CL1  UNL     1      30.583  -0.372  53.511  1.00  0.00    -0.084 Cl
HETATM   19  C15 UNL     1      28.373   1.119  53.442  1.00  0.00     0.024 A 
HETATM   20  C16 UNL     1      27.023   1.306  53.297  1.00  0.00     0.015 A 
ENDBRANCH  11  14
ENDBRANCH   3   9
BRANCH   1  21
HETATM   21  C6  UNL     1      18.956  -0.639  52.828  1.00  0.00     0.070 C 
BRANCH  21  22
HETATM   22  C5  UNL     1      17.770  -1.291  53.502  1.00  0.00     0.051 A 
HETATM   23  C2  UNL     1      16.611  -1.499  52.651  1.00  0.00     0.046 A 
HETATM   24  C3  UNL     1      16.639  -2.773  52.778  1.00  0.00     0.006 A 
HETATM   25  C4  UNL     1      17.810  -2.753  53.654  1.00  0.00     0.041 A 
BRANCH  23  26
HETATM   26  O1  UNL     1      15.772  -0.670  51.953  1.00  0.00    -0.360 OA
HETATM   27  C1  UNL     1      15.183   0.433  52.587  1.00  0.00     0.209 C 
ENDBRANCH  23  26
ENDBRANCH  21  22
ENDBRANCH   1  21
TORSDOF 8
ENDMDL
MODEL 7
REMARK VINA RESULT:      -7.6      3.428      5.064
REMARK  8 active torsions:
REMARK  status: ('A' for Active; 'I' for Inactive)
REMARK    1  A    between atoms: O1_2  and  C2_3 
REMARK    2  A    between atoms: C5_6  and  C6_7 
REMARK    3  A    between atoms: C6_7  and  C7_8 
REMARK    4  A    between atoms: C8_10  and  N2_11 
REMARK    5  A    between atoms: C8_10  and  C9_13 
REMARK    6  A    between atoms: N2_11  and  N3_12 
REMARK    7  A    between atoms: C10_15  and  C11_16 
REMARK    8  A    between atoms: C17_23  and  S1_24 
ROOT
HETATM    1  C7  UNL     1      26.622   2.500  51.470  1.00  0.00     0.064 A 
HETATM    2  N1  UNL     1      27.456   1.455  51.820  1.00  0.00    -0.253 NA
HETATM    3  C8  UNL     1      26.655   1.914  52.832  1.00  0.00     0.219 A 
ENDROOT
BRANCH   3   4
HETATM    4  N2  UNL     1      27.155   2.723  53.928  1.00  0.00    -0.223 NA
HETATM    5  H10 UNL     1      27.001   3.731  53.792  1.00  0.00     0.144 HD
BRANCH   4   6
HETATM    6  N3  UNL     1      28.458   2.390  54.285  1.00  0.00    -0.268 NA
HETATM    7  H11 UNL     1      28.561   1.345  54.112  1.00  0.00     0.137 HD
HETATM    8  H12 UNL     1      28.697   2.601  55.274  1.00  0.00     0.137 HD
ENDBRANCH   4   6
ENDBRANCH   3   4
BRANCH   3   9
HETATM    9  C9  UNL     1      25.491   1.020  53.234  1.00  0.00     0.242 A 
HETATM   10  N4  UNL     1      24.703   0.350  53.563  1.00  0.00     0.070 N 
HETATM   11  C10 UNL     1      23.454   0.075  53.390  1.00  0.00     0.189 A 
HETATM   12  S1  UNL     1      25.685  -0.366  54.524  1.00  0.00     0.090 SA
HETATM   13  C17 UNL     1      23.942  -0.837  54.360  1.00  0.00     0.361 A 
BRANCH  11  14
HETATM   14  C11 UNL     1      22.060   0.024  52.971  1.00  0.00    -0.001 A 
HETATM   15  C12 UNL     1      21.695   0.471  51.718  1.00  0.00     0.015 A 
HETATM   16  C13 UNL     1      20.416   0.476  51.205  1.00  0.00     0.024 A 
HETATM   17  C14 UNL     1      19.518  -0.033  52.110  1.00  0.00     0.034 A 
HETATM   18 CL1  UNL     1      17.828  -0.096  51.604  1.00  0.00    -0.084 Cl
HETATM   19  C15 UNL     1      19.778  -0.503  53.377  1.00  0.00     0.024 A 
HETATM   20  C16 UNL     1      21.082  -0.466  53.798  1.00  0.00     0.015 A 
ENDBRANCH  11  14
ENDBRANCH   3   9
BRANCH   1  21
HETATM   21  C6  UNL     1      26.339   3.290  50.272  1.00  0.00     0.070 C 
BRANCH  21  22
HETATM   22  C5  UNL     1      25.040   4.062  50.313  1.00  0.00     0.051 A 
HETATM   23  C2  UNL     1      25.089   5.393  49.734  1.00  0.00     0.046 A 
HETATM   24  C3  UNL     1      24.224   5.126  48.829  1.00  0.00     0.006 A 
HETATM   25  C4  UNL     1      24.044   3.746  49.278  1.00  0.00     0.041 A 
BRANCH  23  26
HETATM   26  O1  UNL     1      25.789   6.538  50.018  1.00  0.00    -0.360 OA
HETATM   27  C1  UNL     1      26.648   7.095  49.060  1.00  0.00     0.209 C 
ENDBRANCH  23  26
ENDBRANCH  21  22
ENDBRANCH   1  21
TORSDOF 8
ENDMDL
MODEL 8
REMARK VINA RESULT:      -7.5      5.894      7.971
REMARK  8 active torsions:
REMARK  status: ('A' for Active; 'I' for Inactive)
REMARK    1  A    between atoms: O1_2  and  C2_3 
REMARK    2  A    between atoms: C5_6  and  C6_7 
REMARK    3  A    between atoms: C6_7  and  C7_8 
REMARK    4  A    between atoms: C8_10  and  N2_11 
REMARK    5  A    between atoms: C8_10  and  C9_13 
REMARK    6  A    between atoms: N2_11  and  N3_12 
REMARK    7  A    between atoms: C10_15  and  C11_16 
REMARK    8  A    between atoms: C17_23  and  S1_24 
ROOT
HETATM    1  C7  UNL     1      23.657   2.960  52.418  1.00  0.00     0.064 A 
HETATM    2  N1  UNL     1      22.796   3.570  51.525  1.00  0.00    -0.253 NA
HETATM    3  C8  UNL     1      23.885   4.322  51.878  1.00  0.00     0.219 A 
ENDROOT
BRANCH   3   4
HETATM    4  N2  UNL     1      23.802   5.454  52.783  1.00  0.00    -0.223 NA
HETATM    5  H10 UNL     1      22.872   5.570  53.205  1.00  0.00     0.144 HD
BRANCH   4   6
HETATM    6  N3  UNL     1      24.324   6.618  52.227  1.00  0.00    -0.268 NA
HETATM    7  H11 UNL     1      25.126   6.319  51.596  1.00  0.00     0.137 HD
HETATM    8  H12 UNL     1      24.672   7.305  52.925  1.00  0.00     0.137 HD
ENDBRANCH   4   6
ENDBRANCH   3   4
BRANCH   3   9
HETATM    9  C9  UNL     1      24.971   4.480  50.825  1.00  0.00     0.242 A 
HETATM   10  N4  UNL     1      25.765   4.528  50.086  1.00  0.00     0.070 N 
HETATM   11  C10 UNL     1      26.313   5.315  49.221  1.00  0.00     0.189 A 
HETATM   12  S1  UNL     1      26.177   3.068  50.402  1.00  0.00     0.090 SA
HETATM   13  C17 UNL     1      27.020   4.086  49.161  1.00  0.00     0.361 A 
BRANCH  11  14
HETATM   14  C11 UNL     1      26.694   6.422  48.356  1.00  0.00    -0.001 A 
HETATM   15  C12 UNL     1      28.016   6.609  48.009  1.00  0.00     0.015 A 
HETATM   16  C13 UNL     1      28.503   7.614  47.201  1.00  0.00     0.024 A 
HETATM   17  C14 UNL     1      27.491   8.432  46.766  1.00  0.00     0.034 A 
HETATM   18 CL1  UNL     1      27.951   9.776  45.717  1.00  0.00    -0.084 Cl
HETATM   19  C15 UNL     1      26.149   8.334  47.052  1.00  0.00     0.024 A 
HETATM   20  C16 UNL     1      25.762   7.300  47.866  1.00  0.00     0.015 A 
ENDBRANCH  11  14
ENDBRANCH   3   9
BRANCH   1  21
HETATM   21  C6  UNL     1      23.738   1.682  53.126  1.00  0.00     0.070 C 
BRANCH  21  22
HETATM   22  C5  UNL     1      24.990   0.882  52.848  1.00  0.00     0.051 A 
HETATM   23  C2  UNL     1      26.109   1.151  53.735  1.00  0.00     0.046 A 
HETATM   24  C3  UNL     1      26.148  -0.045  54.189  1.00  0.00     0.006 A 
HETATM   25  C4  UNL     1      25.029  -0.495  53.363  1.00  0.00     0.041 A 
BRANCH  23  26
HETATM   26  O1  UNL     1      26.867   2.259  54.015  1.00  0.00    -0.360 OA
HETATM   27  C1  UNL     1      28.203   2.323  53.593  1.00  0.00     0.209 C 
ENDBRANCH  23  26
ENDBRANCH  21  22
ENDBRANCH   1  21
TORSDOF 8
ENDMDL
MODEL 9
REMARK VINA RESULT:      -7.5      3.758      6.494
REMARK  8 active torsions:
REMARK  status: ('A' for Active; 'I' for Inactive)
REMARK    1  A    between atoms: O1_2  and  C2_3 
REMARK    2  A    between atoms: C5_6  and  C6_7 
REMARK    3  A    between atoms: C6_7  and  C7_8 
REMARK    4  A    between atoms: C8_10  and  N2_11 
REMARK    5  A    between atoms: C8_10  and  C9_13 
REMARK    6  A    between atoms: N2_11  and  N3_12 
REMARK    7  A    between atoms: C10_15  and  C11_16 
REMARK    8  A    between atoms: C17_23  and  S1_24 
ROOT
HETATM    1  C7  UNL     1      21.710   3.561  51.956  1.00  0.00     0.064 A 
HETATM    2  N1  UNL     1      20.667   3.123  52.750  1.00  0.00    -0.253 NA
HETATM    3  C8  UNL     1      21.267   2.147  52.001  1.00  0.00     0.219 A 
ENDROOT
BRANCH   3   4
HETATM    4  N2  UNL     1      20.654   1.571  50.818  1.00  0.00    -0.223 NA
HETATM    5  H10 UNL     1      19.686   1.262  50.972  1.00  0.00     0.144 HD
BRANCH   4   6
HETATM    6  N3  UNL     1      21.465   0.619  50.208  1.00  0.00    -0.268 NA
HETATM    7  H11 UNL     1      21.899   1.091  49.359  1.00  0.00     0.137 HD
HETATM    8  H12 UNL     1      20.963  -0.240  49.906  1.00  0.00     0.137 HD
ENDBRANCH   4   6
ENDBRANCH   3   4
BRANCH   3   9
HETATM    9  C9  UNL     1      22.153   1.164  52.751  1.00  0.00     0.242 A 
HETATM   10  N4  UNL     1      22.728   0.435  53.314  1.00  0.00     0.070 N 
HETATM   11  C10 UNL     1      23.936   0.046  53.551  1.00  0.00     0.189 A 
HETATM   12  S1  UNL     1      21.428  -0.168  53.903  1.00  0.00     0.090 SA
HETATM   13  C17 UNL     1      23.080  -0.796  54.307  1.00  0.00     0.361 A 
BRANCH  11  14
HETATM   14  C11 UNL     1      25.380  -0.140  53.604  1.00  0.00    -0.001 A 
HETATM   15  C12 UNL     1      25.997  -1.022  52.741  1.00  0.00     0.015 A 
HETATM   16  C13 UNL     1      27.349  -1.287  52.691  1.00  0.00     0.024 A 
HETATM   17  C14 UNL     1      28.032  -0.548  53.624  1.00  0.00     0.034 A 
HETATM   18 CL1  UNL     1      29.782  -0.772  53.689  1.00  0.00    -0.084 Cl
HETATM   19  C15 UNL     1      27.514   0.354  54.526  1.00  0.00     0.024 A 
HETATM   20  C16 UNL     1      26.157   0.548  54.499  1.00  0.00     0.015 A 
ENDBRANCH  11  14
ENDBRANCH   3   9
BRANCH   1  21
HETATM   21  C6  UNL     1      22.385   4.829  51.677  1.00  0.00     0.070 C 
BRANCH  21  22
HETATM   22  C5  UNL     1      23.492   4.746  50.651  1.00  0.00     0.051 A 
HETATM   23  C2  UNL     1      24.292   3.534  50.698  1.00  0.00     0.046 A 
HETATM   24  C3  UNL     1      23.965   3.170  49.514  1.00  0.00     0.006 A 
HETATM   25  C4  UNL     1      23.112   4.336  49.291  1.00  0.00     0.041 A 
BRANCH  23  26
HETATM   26  O1  UNL     1      25.106   2.956  51.638  1.00  0.00    -0.360 OA
HETATM   27  C1  UNL     1      26.418   2.592  51.305  1.00  0.00     0.209 C 
ENDBRANCH  23  26
ENDBRANCH  21  22
ENDBRANCH   1  21
TORSDOF 8
ENDMDL
