MODEL 1
REMARK VINA RESULT:      -8.7      0.000      0.000
REMARK  4 active torsions:
REMARK  status: ('A' for Active; 'I' for Inactive)
REMARK    1  A    between atoms: O1_2  and  C2_3 
REMARK    2  A    between atoms: C6_7  and  O2_8 
REMARK    3  A    between atoms: C8_10  and  O3_11 
REMARK    4  A    between atoms: C12_17  and  C14_19 
ROOT
HETATM    1  C2  UNL     1      24.500   0.180  52.941  1.00  0.00     0.106 A 
HETATM    2  C3  UNL     1      24.991   1.390  52.421  1.00  0.00     0.072 A 
HETATM    3  C4  UNL     1      24.289   2.499  52.002  1.00  0.00     0.082 A 
HETATM    4  C5  UNL     1      22.930   2.441  52.092  1.00  0.00     0.100 A 
HETATM    5  C6  UNL     1      22.375   1.290  52.595  1.00  0.00     0.133 A 
HETATM    6  C8  UNL     1      23.101   0.158  53.021  1.00  0.00     0.137 A 
HETATM    7  N1  UNL     1      21.717   3.125  51.823  1.00  0.00    -0.330 N 
HETATM    8  C10 UNL     1      20.535   3.586  52.422  1.00  0.00     0.158 C 
HETATM    9  C11 UNL     1      21.731   3.384  50.451  1.00  0.00     0.162 C 
HETATM   10  N2  UNL     1      21.390   2.868  49.386  1.00  0.00    -0.224 NA
HETATM   11  C12 UNL     1      21.737   3.767  48.254  1.00  0.00     0.212 C 
HETATM   12  C13 UNL     1      20.498   4.522  47.883  1.00  0.00     0.082 C 
HETATM   13  O5  UNL     1      22.618   4.689  48.913  1.00  0.00    -0.308 OA
HETATM   14  C15 UNL     1      22.493   4.545  50.262  1.00  0.00     0.118 C 
HETATM   15  C16 UNL     1      23.037   5.452  51.020  1.00  0.00     0.042 C 
HETATM   16  C17 UNL     1      23.786   6.608  51.386  1.00  0.00     0.020 C 
HETATM   17  C18 UNL     1      24.485   7.390  50.593  1.00  0.00     0.090 C 
HETATM   18  N3  UNL     1      24.564   7.100  49.201  1.00  0.00    -0.348 N 
HETATM   19  C19 UNL     1      25.523   5.982  49.307  1.00  0.00     0.187 A 
HETATM   20  N4  UNL     1      25.407   5.042  50.164  1.00  0.00    -0.042 NA
HETATM   21  C20 UNL     1      25.995   3.981  50.526  1.00  0.00     0.729 A 
HETATM   22  N5  UNL     1      27.083   3.749  49.800  1.00  0.00    -0.072 NA
HETATM   23  C21 UNL     1      27.436   4.618  48.800  1.00  0.00     0.182 A 
HETATM   24  C22 UNL     1      26.665   5.753  48.533  1.00  0.00     0.180 A 
HETATM   25  F1  UNL     1      26.911   6.690  47.565  1.00  0.00    -0.200 F 
HETATM   26  N6  UNL     1      25.276   3.408  51.583  1.00  0.00    -0.186 N 
HETATM   27  H21 UNL     1      24.469   7.071  48.185  1.00  0.00     0.167 HD
HETATM   28  H23 UNL     1      25.797   3.911  52.328  1.00  0.00     0.184 HD
ENDROOT
BRANCH  11  29
HETATM   29  C14 UNL     1      22.371   3.034  47.162  1.00  0.00     0.293 C 
HETATM   30  O4  UNL     1      22.420   1.859  47.550  1.00  0.00    -0.302 OA
ENDBRANCH  11  29
BRANCH   5  31
HETATM   31  O2  UNL     1      21.022   0.955  52.818  1.00  0.00    -0.351 OA
HETATM   32  C7  UNL     1      20.452   0.123  51.785  1.00  0.00     0.210 C 
ENDBRANCH   5  31
BRANCH   6  33
HETATM   33  O3  UNL     1      22.638  -1.070  53.545  1.00  0.00    -0.351 OA
HETATM   34  C9  UNL     1      22.374  -1.216  54.924  1.00  0.00     0.210 C 
ENDBRANCH   6  33
BRANCH   1  35
HETATM   35  O1  UNL     1      25.297  -0.890  53.338  1.00  0.00    -0.353 OA
HETATM   36  C1  UNL     1      26.477  -1.243  52.685  1.00  0.00     0.210 C 
ENDBRANCH   1  35
TORSDOF 4
ENDMDL
MODEL 2
REMARK VINA RESULT:      -8.1      6.176      9.879
REMARK  4 active torsions:
REMARK  status: ('A' for Active; 'I' for Inactive)
REMARK    1  A    between atoms: O1_2  and  C2_3 
REMARK    2  A    between atoms: C6_7  and  O2_8 
REMARK    3  A    between atoms: C8_10  and  O3_11 
REMARK    4  A    between atoms: C12_17  and  C14_19 
ROOT
HETATM    1  C2  UNL     1      27.312   5.950  48.583  1.00  0.00     0.106 A 
HETATM    2  C3  UNL     1      28.645   5.519  48.468  1.00  0.00     0.072 A 
HETATM    3  C4  UNL     1      29.795   6.275  48.390  1.00  0.00     0.082 A 
HETATM    4  C5  UNL     1      29.647   7.630  48.427  1.00  0.00     0.100 A 
HETATM    5  C6  UNL     1      28.373   8.128  48.542  1.00  0.00     0.133 A 
HETATM    6  C8  UNL     1      27.200   7.346  48.620  1.00  0.00     0.137 A 
HETATM    7  N1  UNL     1      30.322   8.875  48.350  1.00  0.00    -0.330 N 
HETATM    8  C10 UNL     1      30.522  10.084  49.034  1.00  0.00     0.158 C 
HETATM    9  C11 UNL     1      30.988   8.863  47.123  1.00  0.00     0.162 C 
HETATM   10  N2  UNL     1      30.807   9.169  45.944  1.00  0.00    -0.224 NA
HETATM   11  C12 UNL     1      32.024   8.861  45.148  1.00  0.00     0.212 C 
HETATM   12  C13 UNL     1      32.796  10.134  44.996  1.00  0.00     0.082 C 
HETATM   13  O5  UNL     1      32.742   8.034  46.077  1.00  0.00    -0.308 OA
HETATM   14  C15 UNL     1      32.186   8.162  47.315  1.00  0.00     0.118 C 
HETATM   15  C16 UNL     1      32.843   7.672  48.326  1.00  0.00     0.042 C 
HETATM   16  C17 UNL     1      33.867   6.987  49.044  1.00  0.00     0.020 C 
HETATM   17  C18 UNL     1      34.886   6.324  48.543  1.00  0.00     0.090 C 
HETATM   18  N3  UNL     1      35.039   6.220  47.132  1.00  0.00    -0.348 N 
HETATM   19  C19 UNL     1      33.988   5.204  46.915  1.00  0.00     0.187 A 
HETATM   20  N4  UNL     1      32.827   5.277  47.441  1.00  0.00    -0.042 NA
HETATM   21  C20 UNL     1      31.736   4.638  47.476  1.00  0.00     0.729 A 
HETATM   22  N5  UNL     1      31.789   3.533  46.740  1.00  0.00    -0.072 NA
HETATM   23  C21 UNL     1      32.937   3.218  46.061  1.00  0.00     0.182 A 
HETATM   24  C22 UNL     1      34.061   4.046  46.134  1.00  0.00     0.180 A 
HETATM   25  F1  UNL     1      35.260   3.841  45.504  1.00  0.00    -0.200 F 
HETATM   26  N6  UNL     1      30.833   5.334  48.292  1.00  0.00    -0.186 N 
HETATM   27  H21 UNL     1      35.317   6.305  46.154  1.00  0.00     0.167 HD
HETATM   28  H23 UNL     1      31.109   4.845  49.167  1.00  0.00     0.184 HD
ENDROOT
BRANCH  11  29
HETATM   29  C14 UNL     1      31.690   8.181  43.900  1.00  0.00     0.293 C 
HETATM   30  O4  UNL     1      32.058   7.010  44.063  1.00  0.00    -0.302 OA
ENDBRANCH  11  29
BRANCH   5  31
HETATM   31  O2  UNL     1      27.922   9.463  48.620  1.00  0.00    -0.351 OA
HETATM   32  C7  UNL     1      27.375   9.965  47.382  1.00  0.00     0.210 C 
ENDBRANCH   5  31
BRANCH   6  33
HETATM   33  O3  UNL     1      25.850   7.748  48.733  1.00  0.00    -0.351 OA
HETATM   34  C9  UNL     1      25.268   7.982  49.998  1.00  0.00     0.210 C 
ENDBRANCH   6  33
BRANCH   1  35
HETATM   35  O1  UNL     1      26.211   5.101  48.654  1.00  0.00    -0.353 OA
HETATM   36  C1  UNL     1      26.011   4.201  49.698  1.00  0.00     0.210 C 
ENDBRANCH   1  35
TORSDOF 4
ENDMDL
MODEL 3
REMARK VINA RESULT:      -7.5      2.943      4.766
REMARK  4 active torsions:
REMARK  status: ('A' for Active; 'I' for Inactive)
REMARK    1  A    between atoms: O1_2  and  C2_3 
REMARK    2  A    between atoms: C6_7  and  O2_8 
REMARK    3  A    between atoms: C8_10  and  O3_11 
REMARK    4  A    between atoms: C12_17  and  C14_19 
ROOT
HETATM    1  C2  UNL     1      18.038  -0.391  52.249  1.00  0.00     0.106 A 
HETATM    2  C3  UNL     1      19.291   0.164  52.559  1.00  0.00     0.072 A 
HETATM    3  C4  UNL     1      19.831   1.364  52.149  1.00  0.00     0.082 A 
HETATM    4  C5  UNL     1      19.064   2.138  51.329  1.00  0.00     0.100 A 
HETATM    5  C6  UNL     1      17.823   1.664  50.984  1.00  0.00     0.133 A 
HETATM    6  C8  UNL     1      17.279   0.433  51.407  1.00  0.00     0.137 A 
HETATM    7  N1  UNL     1      19.018   3.336  50.571  1.00  0.00    -0.330 N 
HETATM    8  C10 UNL     1      18.277   4.513  50.382  1.00  0.00     0.158 C 
HETATM    9  C11 UNL     1      20.095   3.261  49.686  1.00  0.00     0.162 C 
HETATM   10  N2  UNL     1      20.367   2.848  48.557  1.00  0.00    -0.224 NA
HETATM   11  C12 UNL     1      21.794   3.125  48.248  1.00  0.00     0.212 C 
HETATM   12  C13 UNL     1      21.841   4.373  47.423  1.00  0.00     0.082 C 
HETATM   13  O5  UNL     1      22.286   3.456  49.554  1.00  0.00    -0.308 OA
HETATM   14  C15 UNL     1      21.231   3.683  50.388  1.00  0.00     0.118 C 
HETATM   15  C16 UNL     1      21.481   4.221  51.546  1.00  0.00     0.042 C 
HETATM   16  C17 UNL     1      22.234   4.757  52.632  1.00  0.00     0.020 C 
HETATM   17  C18 UNL     1      23.542   4.800  52.751  1.00  0.00     0.090 C 
HETATM   18  N3  UNL     1      24.366   4.252  51.727  1.00  0.00    -0.348 N 
HETATM   19  C19 UNL     1      24.161   2.832  52.076  1.00  0.00     0.187 A 
HETATM   20  N4  UNL     1      23.012   2.333  52.326  1.00  0.00    -0.042 NA
HETATM   21  C20 UNL     1      22.482   1.227  52.637  1.00  0.00     0.729 A 
HETATM   22  N5  UNL     1      23.387   0.260  52.746  1.00  0.00    -0.072 NA
HETATM   23  C21 UNL     1      24.711   0.535  52.525  1.00  0.00     0.182 A 
HETATM   24  C22 UNL     1      25.127   1.826  52.186  1.00  0.00     0.180 A 
HETATM   25  F1  UNL     1      26.414   2.224  51.940  1.00  0.00    -0.200 F 
HETATM   26  N6  UNL     1      21.097   1.411  52.755  1.00  0.00    -0.186 N 
HETATM   27  H21 UNL     1      24.991   4.086  50.938  1.00  0.00     0.167 HD
HETATM   28  H23 UNL     1      21.125   1.644  53.768  1.00  0.00     0.184 HD
ENDROOT
BRANCH  11  29
HETATM   29  C14 UNL     1      22.449   1.961  47.656  1.00  0.00     0.293 C 
HETATM   30  O4  UNL     1      21.816   0.985  48.082  1.00  0.00    -0.302 OA
ENDBRANCH  11  29
BRANCH   5  31
HETATM   31  O2  UNL     1      16.819   2.244  50.178  1.00  0.00    -0.351 OA
HETATM   32  C7  UNL     1      16.748   1.686  48.849  1.00  0.00     0.210 C 
ENDBRANCH   5  31
BRANCH   6  33
HETATM   33  O3  UNL     1      16.027  -0.153  51.112  1.00  0.00    -0.351 OA
HETATM   34  C9  UNL     1      14.889   0.137  51.897  1.00  0.00     0.210 C 
ENDBRANCH   6  33
BRANCH   1  35
HETATM   35  O1  UNL     1      17.583  -1.621  52.715  1.00  0.00    -0.353 OA
HETATM   36  C1  UNL     1      18.214  -2.329  53.736  1.00  0.00     0.210 C 
ENDBRANCH   1  35
TORSDOF 4
ENDMDL
MODEL 4
REMARK VINA RESULT:      -6.9      4.096      6.323
REMARK  4 active torsions:
REMARK  status: ('A' for Active; 'I' for Inactive)
REMARK    1  A    between atoms: O1_2  and  C2_3 
REMARK    2  A    between atoms: C6_7  and  O2_8 
REMARK    3  A    between atoms: C8_10  and  O3_11 
REMARK    4  A    between atoms: C12_17  and  C14_19 
ROOT
HETATM    1  C2  UNL     1      25.796   4.188  49.376  1.00  0.00     0.106 A 
HETATM    2  C3  UNL     1      26.806   5.154  49.228  1.00  0.00     0.072 A 
HETATM    3  C4  UNL     1      26.686   6.493  48.925  1.00  0.00     0.082 A 
HETATM    4  C5  UNL     1      25.422   6.972  48.738  1.00  0.00     0.100 A 
HETATM    5  C6  UNL     1      24.380   6.088  48.871  1.00  0.00     0.133 A 
HETATM    6  C8  UNL     1      24.514   4.718  49.180  1.00  0.00     0.137 A 
HETATM    7  N1  UNL     1      24.652   8.111  48.391  1.00  0.00    -0.330 N 
HETATM    8  C10 UNL     1      23.604   8.931  48.836  1.00  0.00     0.158 C 
HETATM    9  C11 UNL     1      25.113   8.505  47.134  1.00  0.00     0.162 C 
HETATM   10  N2  UNL     1      24.897   8.301  45.938  1.00  0.00    -0.224 NA
HETATM   11  C12 UNL     1      25.824   9.115  45.110  1.00  0.00     0.212 C 
HETATM   12  C13 UNL     1      25.082  10.340  44.676  1.00  0.00     0.082 C 
HETATM   13  O5  UNL     1      26.776   9.521  46.105  1.00  0.00    -0.308 OA
HETATM   14  C15 UNL     1      26.263   9.278  47.344  1.00  0.00     0.118 C 
HETATM   15  C16 UNL     1      26.881   9.794  48.366  1.00  0.00     0.042 C 
HETATM   16  C17 UNL     1      27.874  10.502  49.104  1.00  0.00     0.020 C 
HETATM   17  C18 UNL     1      28.987  11.028  48.643  1.00  0.00     0.090 C 
HETATM   18  N3  UNL     1      29.313  10.899  47.263  1.00  0.00    -0.348 N 
HETATM   19  C19 UNL     1      29.743   9.487  47.314  1.00  0.00     0.187 A 
HETATM   20  N4  UNL     1      29.079   8.576  47.914  1.00  0.00    -0.042 NA
HETATM   21  C20 UNL     1      29.130   7.334  48.150  1.00  0.00     0.729 A 
HETATM   22  N5  UNL     1      30.210   6.775  47.614  1.00  0.00    -0.072 NA
HETATM   23  C21 UNL     1      31.098   7.544  46.908  1.00  0.00     0.182 A 
HETATM   24  C22 UNL     1      30.884   8.915  46.742  1.00  0.00     0.180 A 
HETATM   25  F1  UNL     1      31.693   9.785  46.059  1.00  0.00    -0.200 F 
HETATM   26  N6  UNL     1      28.005   6.974  48.905  1.00  0.00    -0.186 N 
HETATM   27  H21 UNL     1      29.481  11.033  46.265  1.00  0.00     0.167 HD
HETATM   28  H23 UNL     1      28.461   7.133  49.825  1.00  0.00     0.184 HD
ENDROOT
BRANCH  11  29
HETATM   29  C14 UNL     1      26.411   8.325  44.030  1.00  0.00     0.293 C 
HETATM   30  O4  UNL     1      25.460   8.031  43.294  1.00  0.00    -0.302 OA
ENDBRANCH  11  29
BRANCH   5  31
HETATM   31  O2  UNL     1      22.990   6.298  48.754  1.00  0.00    -0.351 OA
HETATM   32  C7  UNL     1      22.438   5.846  47.499  1.00  0.00     0.210 C 
ENDBRANCH   5  31
BRANCH   6  33
HETATM   33  O3  UNL     1      23.521   3.724  49.334  1.00  0.00    -0.351 OA
HETATM   34  C9  UNL     1      22.864   3.541  50.570  1.00  0.00     0.210 C 
ENDBRANCH   6  33
BRANCH   1  35
HETATM   35  O1  UNL     1      26.022   2.850  49.684  1.00  0.00    -0.353 OA
HETATM   36  C1  UNL     1      26.448   2.419  50.939  1.00  0.00     0.210 C 
ENDBRANCH   1  35
TORSDOF 4
ENDMDL
MODEL 5
REMARK VINA RESULT:      -6.9      5.225      8.899
REMARK  4 active torsions:
REMARK  status: ('A' for Active; 'I' for Inactive)
REMARK    1  A    between atoms: O1_2  and  C2_3 
REMARK    2  A    between atoms: C6_7  and  O2_8 
REMARK    3  A    between atoms: C8_10  and  O3_11 
REMARK    4  A    between atoms: C12_17  and  C14_19 
ROOT
HETATM    1  C2  UNL     1      25.509   6.449  48.550  1.00  0.00     0.106 A 
HETATM    2  C3  UNL     1      26.888   6.199  48.655  1.00  0.00     0.072 A 
HETATM    3  C4  UNL     1      27.933   7.098  48.643  1.00  0.00     0.082 A 
HETATM    4  C5  UNL     1      27.612   8.417  48.511  1.00  0.00     0.100 A 
HETATM    5  C6  UNL     1      26.281   8.740  48.407  1.00  0.00     0.133 A 
HETATM    6  C8  UNL     1      25.218   7.813  48.418  1.00  0.00     0.137 A 
HETATM    7  N1  UNL     1      28.129   9.731  48.386  1.00  0.00    -0.330 N 
HETATM    8  C10 UNL     1      28.076  11.014  48.953  1.00  0.00     0.158 C 
HETATM    9  C11 UNL     1      28.958   9.701  47.263  1.00  0.00     0.162 C 
HETATM   10  N2  UNL     1      28.909   9.869  46.044  1.00  0.00    -0.224 NA
HETATM   11  C12 UNL     1      30.256   9.663  45.450  1.00  0.00     0.212 C 
HETATM   12  C13 UNL     1      30.875  11.012  45.259  1.00  0.00     0.082 C 
HETATM   13  O5  UNL     1      30.933   9.033  46.548  1.00  0.00    -0.308 OA
HETATM   14  C15 UNL     1      30.196   9.195  47.683  1.00  0.00     0.118 C 
HETATM   15  C16 UNL     1      30.759   8.895  48.817  1.00  0.00     0.042 C 
HETATM   16  C17 UNL     1      31.749   8.430  49.731  1.00  0.00     0.020 C 
HETATM   17  C18 UNL     1      32.903   7.872  49.442  1.00  0.00     0.090 C 
HETATM   18  N3  UNL     1      33.267   7.661  48.081  1.00  0.00    -0.348 N 
HETATM   19  C19 UNL     1      32.394   6.494  47.844  1.00  0.00     0.187 A 
HETATM   20  N4  UNL     1      31.170   6.452  48.206  1.00  0.00    -0.042 NA
HETATM   21  C20 UNL     1      30.175   5.672  48.171  1.00  0.00     0.729 A 
HETATM   22  N5  UNL     1      30.470   4.522  47.573  1.00  0.00    -0.072 NA
HETATM   23  C21 UNL     1      31.734   4.310  47.086  1.00  0.00     0.182 A 
HETATM   24  C22 UNL     1      32.723   5.290  47.211  1.00  0.00     0.180 A 
HETATM   25  F1  UNL     1      34.015   5.198  46.766  1.00  0.00    -0.200 F 
HETATM   26  N6  UNL     1      29.085   6.306  48.782  1.00  0.00    -0.186 N 
HETATM   27  H21 UNL     1      33.668   7.695  47.144  1.00  0.00     0.167 HD
HETATM   28  H23 UNL     1      29.293   5.943  49.733  1.00  0.00     0.184 HD
ENDROOT
BRANCH  11  29
HETATM   29  C14 UNL     1      30.191   8.831  44.251  1.00  0.00     0.293 C 
HETATM   30  O4  UNL     1      30.955   7.883  44.475  1.00  0.00    -0.302 OA
ENDBRANCH  11  29
BRANCH   5  31
HETATM   31  O2  UNL     1      25.660  10.001  48.279  1.00  0.00    -0.351 OA
HETATM   32  C7  UNL     1      25.237  10.306  46.933  1.00  0.00     0.210 C 
ENDBRANCH   5  31
BRANCH   6  33
HETATM   33  O3  UNL     1      23.826   8.031  48.313  1.00  0.00    -0.351 OA
HETATM   34  C9  UNL     1      23.052   8.339  49.453  1.00  0.00     0.210 C 
ENDBRANCH   6  33
BRANCH   1  35
HETATM   35  O1  UNL     1      24.525   5.464  48.571  1.00  0.00    -0.353 OA
HETATM   36  C1  UNL     1      24.490   4.444  49.520  1.00  0.00     0.210 C 
ENDBRANCH   1  35
TORSDOF 4
ENDMDL
MODEL 6
REMARK VINA RESULT:      -6.7      1.923      2.693
REMARK  4 active torsions:
REMARK  status: ('A' for Active; 'I' for Inactive)
REMARK    1  A    between atoms: O1_2  and  C2_3 
REMARK    2  A    between atoms: C6_7  and  O2_8 
REMARK    3  A    between atoms: C8_10  and  O3_11 
REMARK    4  A    between atoms: C12_17  and  C14_19 
ROOT
HETATM    1  C2  UNL     1      21.244   0.359  52.162  1.00  0.00     0.106 A 
HETATM    2  C3  UNL     1      21.976   1.527  51.887  1.00  0.00     0.072 A 
HETATM    3  C4  UNL     1      21.532   2.724  51.368  1.00  0.00     0.082 A 
HETATM    4  C5  UNL     1      20.204   2.813  51.071  1.00  0.00     0.100 A 
HETATM    5  C6  UNL     1      19.421   1.712  51.315  1.00  0.00     0.133 A 
HETATM    6  C8  UNL     1      19.885   0.489  51.845  1.00  0.00     0.137 A 
HETATM    7  N1  UNL     1      19.190   3.639  50.522  1.00  0.00    -0.330 N 
HETATM    8  C10 UNL     1      17.935   4.204  50.798  1.00  0.00     0.158 C 
HETATM    9  C11 UNL     1      19.619   3.951  49.231  1.00  0.00     0.162 C 
HETATM   10  N2  UNL     1      19.549   3.521  48.079  1.00  0.00    -0.224 NA
HETATM   11  C12 UNL     1      20.288   4.422  47.156  1.00  0.00     0.212 C 
HETATM   12  C13 UNL     1      19.285   5.324  46.509  1.00  0.00     0.082 C 
HETATM   13  O5  UNL     1      21.028   5.212  48.099  1.00  0.00    -0.308 OA
HETATM   14  C15 UNL     1      20.510   5.027  49.346  1.00  0.00     0.118 C 
HETATM   15  C16 UNL     1      20.899   5.835  50.289  1.00  0.00     0.042 C 
HETATM   16  C17 UNL     1      21.619   6.885  50.930  1.00  0.00     0.020 C 
HETATM   17  C18 UNL     1      22.586   7.616  50.422  1.00  0.00     0.090 C 
HETATM   18  N3  UNL     1      23.031   7.377  49.091  1.00  0.00    -0.348 N 
HETATM   19  C19 UNL     1      23.809   6.155  49.381  1.00  0.00     0.187 A 
HETATM   20  N4  UNL     1      23.364   5.199  50.102  1.00  0.00    -0.042 NA
HETATM   21  C20 UNL     1      23.721   4.066  50.537  1.00  0.00     0.729 A 
HETATM   22  N5  UNL     1      24.944   3.744  50.130  1.00  0.00    -0.072 NA
HETATM   23  C21 UNL     1      25.649   4.609  49.334  1.00  0.00     0.182 A 
HETATM   24  C22 UNL     1      25.097   5.832  48.943  1.00  0.00     0.180 A 
HETATM   25  F1  UNL     1      25.698   6.776  48.152  1.00  0.00    -0.200 F 
HETATM   26  N6  UNL     1      22.679   3.533  51.308  1.00  0.00    -0.186 N 
HETATM   27  H21 UNL     1      23.228   7.400  48.090  1.00  0.00     0.167 HD
HETATM   28  H23 UNL     1      23.011   3.944  52.203  1.00  0.00     0.184 HD
ENDROOT
BRANCH  11  29
HETATM   29  C14 UNL     1      21.135   3.668  46.236  1.00  0.00     0.293 C 
HETATM   30  O4  UNL     1      22.235   4.236  46.272  1.00  0.00    -0.302 OA
ENDBRANCH  11  29
BRANCH   5  31
HETATM   31  O2  UNL     1      18.036   1.521  51.126  1.00  0.00    -0.351 OA
HETATM   32  C7  UNL     1      17.712   0.735  49.959  1.00  0.00     0.210 C 
ENDBRANCH   5  31
BRANCH   6  33
HETATM   33  O3  UNL     1      19.177  -0.701  52.130  1.00  0.00    -0.351 OA
HETATM   34  C9  UNL     1      18.584  -0.906  53.395  1.00  0.00     0.210 C 
ENDBRANCH   6  33
BRANCH   1  35
HETATM   35  O1  UNL     1      21.789  -0.809  52.688  1.00  0.00    -0.353 OA
HETATM   36  C1  UNL     1      22.696  -0.815  53.746  1.00  0.00     0.210 C 
ENDBRANCH   1  35
TORSDOF 4
ENDMDL
MODEL 7
REMARK VINA RESULT:      -6.4      7.659     10.724
REMARK  4 active torsions:
REMARK  status: ('A' for Active; 'I' for Inactive)
REMARK    1  A    between atoms: O1_2  and  C2_3 
REMARK    2  A    between atoms: C6_7  and  O2_8 
REMARK    3  A    between atoms: C8_10  and  O3_11 
REMARK    4  A    between atoms: C12_17  and  C14_19 
ROOT
HETATM    1  C2  UNL     1      32.962   6.933  44.613  1.00  0.00     0.106 A 
HETATM    2  C3  UNL     1      32.456   8.211  44.908  1.00  0.00     0.072 A 
HETATM    3  C4  UNL     1      31.867   8.661  46.070  1.00  0.00     0.082 A 
HETATM    4  C5  UNL     1      31.746   7.762  47.089  1.00  0.00     0.100 A 
HETATM    5  C6  UNL     1      32.221   6.492  46.877  1.00  0.00     0.133 A 
HETATM    6  C8  UNL     1      32.821   6.039  45.683  1.00  0.00     0.137 A 
HETATM    7  N1  UNL     1      31.249   7.554  48.401  1.00  0.00    -0.330 N 
HETATM    8  C10 UNL     1      31.627   7.145  49.689  1.00  0.00     0.158 C 
HETATM    9  C11 UNL     1      29.884   7.838  48.333  1.00  0.00     0.162 C 
HETATM   10  N2  UNL     1      28.810   7.280  48.104  1.00  0.00    -0.224 NA
HETATM   11  C12 UNL     1      27.697   8.258  48.218  1.00  0.00     0.212 C 
HETATM   12  C13 UNL     1      27.092   8.094  49.577  1.00  0.00     0.082 C 
HETATM   13  O5  UNL     1      28.431   9.491  48.223  1.00  0.00    -0.308 OA
HETATM   14  C15 UNL     1      29.750   9.229  48.443  1.00  0.00     0.118 C 
HETATM   15  C16 UNL     1      30.530  10.235  48.712  1.00  0.00     0.042 C 
HETATM   16  C17 UNL     1      30.940  11.585  48.918  1.00  0.00     0.020 C 
HETATM   17  C18 UNL     1      30.223  12.672  48.744  1.00  0.00     0.090 C 
HETATM   18  N3  UNL     1      28.880  12.569  48.281  1.00  0.00    -0.348 N 
HETATM   19  C19 UNL     1      29.202  12.289  46.867  1.00  0.00     0.187 A 
HETATM   20  N4  UNL     1      30.083  11.439  46.506  1.00  0.00    -0.042 NA
HETATM   21  C20 UNL     1      30.594  10.959  45.453  1.00  0.00     0.729 A 
HETATM   22  N5  UNL     1      30.063  11.496  44.359  1.00  0.00    -0.072 NA
HETATM   23  C21 UNL     1      29.083  12.447  44.471  1.00  0.00     0.182 A 
HETATM   24  C22 UNL     1      28.632  12.865  45.727  1.00  0.00     0.180 A 
HETATM   25  F1  UNL     1      27.661  13.801  45.968  1.00  0.00    -0.200 F 
HETATM   26  N6  UNL     1      31.557  10.007  45.814  1.00  0.00    -0.186 N 
HETATM   27  H21 UNL     1      27.866  12.542  48.174  1.00  0.00     0.167 HD
HETATM   28  H23 UNL     1      32.344  10.685  45.847  1.00  0.00     0.184 HD
ENDROOT
BRANCH  11  29
HETATM   29  C14 UNL     1      26.763   8.139  47.101  1.00  0.00     0.293 C 
HETATM   30  O4  UNL     1      26.895   9.190  46.459  1.00  0.00    -0.302 OA
ENDBRANCH  11  29
BRANCH   5  31
HETATM   31  O2  UNL     1      32.247   5.375  47.739  1.00  0.00    -0.351 OA
HETATM   32  C7  UNL     1      31.244   4.382  47.434  1.00  0.00     0.210 C 
ENDBRANCH   5  31
BRANCH   6  33
HETATM   33  O3  UNL     1      33.337   4.765  45.355  1.00  0.00    -0.351 OA
HETATM   34  C9  UNL     1      34.643   4.390  45.740  1.00  0.00     0.210 C 
ENDBRANCH   6  33
BRANCH   1  35
HETATM   35  O1  UNL     1      33.541   6.575  43.399  1.00  0.00    -0.353 OA
HETATM   36  C1  UNL     1      32.803   6.375  42.234  1.00  0.00     0.210 C 
ENDBRANCH   1  35
TORSDOF 4
ENDMDL
MODEL 8
REMARK VINA RESULT:      -6.4      7.221     10.784
REMARK  4 active torsions:
REMARK  status: ('A' for Active; 'I' for Inactive)
REMARK    1  A    between atoms: O1_2  and  C2_3 
REMARK    2  A    between atoms: C6_7  and  O2_8 
REMARK    3  A    between atoms: C8_10  and  O3_11 
REMARK    4  A    between atoms: C12_17  and  C14_19 
ROOT
HETATM    1  C2  UNL     1      28.026   6.830  48.135  1.00  0.00     0.106 A 
HETATM    2  C3  UNL     1      29.346   6.729  47.663  1.00  0.00     0.072 A 
HETATM    3  C4  UNL     1      30.303   7.715  47.556  1.00  0.00     0.082 A 
HETATM    4  C5  UNL     1      29.946   8.969  47.956  1.00  0.00     0.100 A 
HETATM    5  C6  UNL     1      28.672   9.145  48.434  1.00  0.00     0.133 A 
HETATM    6  C8  UNL     1      27.697   8.131  48.538  1.00  0.00     0.137 A 
HETATM    7  N1  UNL     1      30.369  10.318  48.063  1.00  0.00    -0.330 N 
HETATM    8  C10 UNL     1      30.523  11.374  48.974  1.00  0.00     0.158 C 
HETATM    9  C11 UNL     1      30.718  10.704  46.768  1.00  0.00     0.162 C 
HETATM   10  N2  UNL     1      30.215  11.200  45.758  1.00  0.00    -0.224 NA
HETATM   11  C12 UNL     1      31.243  11.333  44.693  1.00  0.00     0.212 C 
HETATM   12  C13 UNL     1      31.735  12.746  44.717  1.00  0.00     0.082 C 
HETATM   13  O5  UNL     1      32.286  10.507  45.231  1.00  0.00    -0.308 OA
HETATM   14  C15 UNL     1      32.026  10.254  46.545  1.00  0.00     0.118 C 
HETATM   15  C16 UNL     1      32.976   9.719  47.257  1.00  0.00     0.042 C 
HETATM   16  C17 UNL     1      34.239   9.139  47.572  1.00  0.00     0.020 C 
HETATM   17  C18 UNL     1      35.205   8.829  46.736  1.00  0.00     0.090 C 
HETATM   18  N3  UNL     1      35.035   9.053  45.341  1.00  0.00    -0.348 N 
HETATM   19  C19 UNL     1      34.145   7.902  45.084  1.00  0.00     0.187 A 
HETATM   20  N4  UNL     1      33.146   7.613  45.825  1.00  0.00    -0.042 NA
HETATM   21  C20 UNL     1      32.216   6.760  45.909  1.00  0.00     0.729 A 
HETATM   22  N5  UNL     1      32.274   5.868  44.925  1.00  0.00    -0.072 NA
HETATM   23  C21 UNL     1      33.265   5.955  43.982  1.00  0.00     0.182 A 
HETATM   24  C22 UNL     1      34.222   6.973  44.041  1.00  0.00     0.180 A 
HETATM   25  F1  UNL     1      35.254   7.167  43.162  1.00  0.00    -0.200 F 
HETATM   26  N6  UNL     1      31.430   7.061  47.029  1.00  0.00    -0.186 N 
HETATM   27  H21 UNL     1      35.055   9.396  44.380  1.00  0.00     0.167 HD
HETATM   28  H23 UNL     1      31.982   6.474  47.686  1.00  0.00     0.184 HD
ENDROOT
BRANCH  11  29
HETATM   29  C14 UNL     1      30.739  10.869  43.403  1.00  0.00     0.293 C 
HETATM   30  O4  UNL     1      31.420   9.870  43.132  1.00  0.00    -0.302 OA
ENDBRANCH  11  29
BRANCH   5  31
HETATM   31  O2  UNL     1      28.038  10.306  48.927  1.00  0.00    -0.351 OA
HETATM   32  C7  UNL     1      27.135  10.921  47.982  1.00  0.00     0.210 C 
ENDBRANCH   5  31
BRANCH   6  33
HETATM   33  O3  UNL     1      26.365   8.200  49.005  1.00  0.00    -0.351 OA
HETATM   34  C9  UNL     1      26.060   7.967  50.365  1.00  0.00     0.210 C 
ENDBRANCH   6  33
BRANCH   1  35
HETATM   35  O1  UNL     1      27.129   5.767  48.203  1.00  0.00    -0.353 OA
HETATM   36  C1  UNL     1      27.403   4.582  48.881  1.00  0.00     0.210 C 
ENDBRANCH   1  35
TORSDOF 4
ENDMDL
MODEL 9
REMARK VINA RESULT:      -6.4      5.710      8.729
REMARK  4 active torsions:
REMARK  status: ('A' for Active; 'I' for Inactive)
REMARK    1  A    between atoms: O1_2  and  C2_3 
REMARK    2  A    between atoms: C6_7  and  O2_8 
REMARK    3  A    between atoms: C8_10  and  O3_11 
REMARK    4  A    between atoms: C12_17  and  C14_19 
ROOT
HETATM    1  C2  UNL     1      26.062   6.341  48.706  1.00  0.00     0.106 A 
HETATM    2  C3  UNL     1      27.263   7.057  48.849  1.00  0.00     0.072 A 
HETATM    3  C4  UNL     1      27.519   8.381  48.566  1.00  0.00     0.082 A 
HETATM    4  C5  UNL     1      26.482   9.120  48.078  1.00  0.00     0.100 A 
HETATM    5  C6  UNL     1      25.273   8.490  47.915  1.00  0.00     0.133 A 
HETATM    6  C8  UNL     1      25.020   7.132  48.206  1.00  0.00     0.137 A 
HETATM    7  N1  UNL     1      26.093  10.390  47.581  1.00  0.00    -0.330 N 
HETATM    8  C10 UNL     1      25.172  11.432  47.769  1.00  0.00     0.158 C 
HETATM    9  C11 UNL     1      26.934  10.640  46.495  1.00  0.00     0.162 C 
HETATM   10  N2  UNL     1      26.991  10.455  45.278  1.00  0.00    -0.224 NA
HETATM   11  C12 UNL     1      28.253  11.023  44.738  1.00  0.00     0.212 C 
HETATM   12  C13 UNL     1      27.932  12.368  44.166  1.00  0.00     0.082 C 
HETATM   13  O5  UNL     1      28.985  11.238  45.954  1.00  0.00    -0.308 OA
HETATM   14  C15 UNL     1      28.132  11.147  47.014  1.00  0.00     0.118 C 
HETATM   15  C16 UNL     1      28.567  11.543  48.175  1.00  0.00     0.042 C 
HETATM   16  C17 UNL     1      29.470  12.036  49.162  1.00  0.00     0.020 C 
HETATM   17  C18 UNL     1      30.750  12.293  49.016  1.00  0.00     0.090 C 
HETATM   18  N3  UNL     1      31.381  12.058  47.761  1.00  0.00    -0.348 N 
HETATM   19  C19 UNL     1      31.464  10.588  47.876  1.00  0.00     0.187 A 
HETATM   20  N4  UNL     1      30.486   9.862  48.260  1.00  0.00    -0.042 NA
HETATM   21  C20 UNL     1      30.203   8.646  48.464  1.00  0.00     0.729 A 
HETATM   22  N5  UNL     1      31.235   7.849  48.204  1.00  0.00    -0.072 NA
HETATM   23  C21 UNL     1      32.419   8.385  47.770  1.00  0.00     0.182 A 
HETATM   24  C22 UNL     1      32.560   9.765  47.597  1.00  0.00     0.180 A 
HETATM   25  F1  UNL     1      33.686  10.417  47.169  1.00  0.00    -0.200 F 
HETATM   26  N6  UNL     1      28.873   8.561  48.896  1.00  0.00    -0.186 N 
HETATM   27  H21 UNL     1      31.822  12.125  46.843  1.00  0.00     0.167 HD
HETATM   28  H23 UNL     1      29.102   8.642  49.907  1.00  0.00     0.184 HD
ENDROOT
BRANCH  11  29
HETATM   29  C14 UNL     1      28.909  10.095  43.820  1.00  0.00     0.293 C 
HETATM   30  O4  UNL     1      28.036   9.788  42.996  1.00  0.00    -0.302 OA
ENDBRANCH  11  29
BRANCH   5  31
HETATM   31  O2  UNL     1      24.039   8.996  47.454  1.00  0.00    -0.351 OA
HETATM   32  C7  UNL     1      23.742   8.645  46.085  1.00  0.00     0.210 C 
ENDBRANCH   5  31
BRANCH   6  33
HETATM   33  O3  UNL     1      23.829   6.385  48.072  1.00  0.00    -0.351 OA
HETATM   34  C9  UNL     1      22.865   6.367  49.104  1.00  0.00     0.210 C 
ENDBRANCH   6  33
BRANCH   1  35
HETATM   35  O1  UNL     1      25.905   4.994  49.021  1.00  0.00    -0.353 OA
HETATM   36  C1  UNL     1      26.978   4.124  49.203  1.00  0.00     0.210 C 
ENDBRANCH   1  35
TORSDOF 4
ENDMDL
