MODEL 1
REMARK VINA RESULT:      -8.1      0.000      0.000
REMARK  3 active torsions:
REMARK  status: ('A' for Active; 'I' for Inactive)
REMARK    1  A    between atoms: O1_2  and  C2_3 
REMARK    2  A    between atoms: C7_10  and  N3_11 
REMARK    3  A    between atoms: N3_11  and  C8_12 
ROOT
HETATM    1  C2  UNL     1      27.132   2.072  52.161  1.00  0.00     0.050 C 
HETATM    2  C3  UNL     1      26.120   1.204  52.200  1.00  0.00     0.051 C 
HETATM    3  C4  UNL     1      25.494   0.368  53.259  1.00  0.00     0.060 A 
HETATM    4  C5  UNL     1      26.044  -0.332  54.354  1.00  0.00     0.165 A 
HETATM    5  N1  UNL     1      25.246  -1.044  55.161  1.00  0.00    -0.222 NA
HETATM    6  C6  UNL     1      23.927  -1.083  54.920  1.00  0.00     0.237 A 
HETATM    7  N2  UNL     1      23.415  -0.411  53.875  1.00  0.00    -0.223 NA
HETATM    8  C7  UNL     1      24.136   0.321  53.022  1.00  0.00     0.143 A 
HETATM    9  N4  UNL     1      27.379  -0.495  54.891  1.00  0.00    -0.227 NA
HETATM   10  C14 UNL     1      28.461   0.183  54.663  1.00  0.00     0.084 C 
HETATM   11  C15 UNL     1      28.389   1.410  54.167  1.00  0.00     0.014 C 
HETATM   12  C16 UNL     1      28.054   2.543  53.237  1.00  0.00     0.094 C 
ENDROOT
BRANCH   8  13
HETATM   13  N3  UNL     1      23.571   1.066  51.969  1.00  0.00    -0.340 N 
HETATM   14  H6  UNL     1      23.943   1.411  51.066  1.00  0.00     0.167 HD
BRANCH  13  15
HETATM   15  C8  UNL     1      22.223   1.540  52.011  1.00  0.00     0.035 A 
HETATM   16  C9  UNL     1      21.892   2.851  52.283  1.00  0.00     0.029 A 
HETATM   17  C10 UNL     1      20.613   3.356  52.316  1.00  0.00     0.004 A 
HETATM   18  C11 UNL     1      19.554   2.511  52.062  1.00  0.00     0.019 A 
HETATM   19  C12 UNL     1      19.788   1.199  51.784  1.00  0.00     0.013 A 
HETATM   20 BR1  UNL     1      18.368  -0.017  51.422  1.00  0.00    -0.051 Br
HETATM   21  C13 UNL     1      21.075   0.775  51.770  1.00  0.00     0.048 A 
ENDBRANCH  13  15
ENDBRANCH   8  13
BRANCH   1  22
HETATM   22  O1  UNL     1      27.123   2.446  50.845  1.00  0.00    -0.360 OA
HETATM   23  C1  UNL     1      26.262   3.320  50.194  1.00  0.00     0.209 C 
ENDBRANCH   1  22
TORSDOF 3
ENDMDL
MODEL 2
REMARK VINA RESULT:      -8.0      1.782      2.078
REMARK  3 active torsions:
REMARK  status: ('A' for Active; 'I' for Inactive)
REMARK    1  A    between atoms: O1_2  and  C2_3 
REMARK    2  A    between atoms: C7_10  and  N3_11 
REMARK    3  A    between atoms: N3_11  and  C8_12 
ROOT
HETATM    1  C2  UNL     1      27.414   2.375  52.323  1.00  0.00     0.050 C 
HETATM    2  C3  UNL     1      26.308   1.631  52.301  1.00  0.00     0.051 C 
HETATM    3  C4  UNL     1      25.697   0.631  53.219  1.00  0.00     0.060 A 
HETATM    4  C5  UNL     1      26.266  -0.364  54.041  1.00  0.00     0.165 A 
HETATM    5  N1  UNL     1      25.475  -1.165  54.767  1.00  0.00    -0.222 NA
HETATM    6  C6  UNL     1      24.143  -1.011  54.705  1.00  0.00     0.237 A 
HETATM    7  N2  UNL     1      23.613  -0.058  53.919  1.00  0.00    -0.223 NA
HETATM    8  C7  UNL     1      24.327   0.781  53.164  1.00  0.00     0.143 A 
HETATM    9  N4  UNL     1      27.619  -0.786  54.340  1.00  0.00    -0.227 NA
HETATM   10  C14 UNL     1      28.749  -0.186  54.127  1.00  0.00     0.084 C 
HETATM   11  C15 UNL     1      28.784   1.125  53.936  1.00  0.00     0.014 C 
HETATM   12  C16 UNL     1      28.502   2.477  53.342  1.00  0.00     0.094 C 
ENDROOT
BRANCH   8  13
HETATM   13  N3  UNL     1      23.753   1.811  52.394  1.00  0.00    -0.340 N 
HETATM   14  H6  UNL     1      23.830   2.844  52.423  1.00  0.00     0.167 HD
BRANCH  13  15
HETATM   15  C8  UNL     1      22.833   1.545  51.332  1.00  0.00     0.035 A 
HETATM   16  C9  UNL     1      21.770   0.675  51.454  1.00  0.00     0.029 A 
HETATM   17  C10 UNL     1      20.851   0.402  50.468  1.00  0.00     0.004 A 
HETATM   18  C11 UNL     1      20.973   1.031  49.248  1.00  0.00     0.019 A 
HETATM   19  C12 UNL     1      21.994   1.907  49.038  1.00  0.00     0.013 A 
HETATM   20 BR1  UNL     1      22.214   2.810  47.376  1.00  0.00    -0.051 Br
HETATM   21  C13 UNL     1      22.860   2.125  50.057  1.00  0.00     0.048 A 
ENDBRANCH  13  15
ENDBRANCH   8  13
BRANCH   1  22
HETATM   22  O1  UNL     1      27.312   3.054  51.139  1.00  0.00    -0.360 OA
HETATM   23  C1  UNL     1      26.436   2.836  50.084  1.00  0.00     0.209 C 
ENDBRANCH   1  22
TORSDOF 3
ENDMDL
MODEL 3
REMARK VINA RESULT:      -8.0      2.833      5.127
REMARK  3 active torsions:
REMARK  status: ('A' for Active; 'I' for Inactive)
REMARK    1  A    between atoms: O1_2  and  C2_3 
REMARK    2  A    between atoms: C7_10  and  N3_11 
REMARK    3  A    between atoms: N3_11  and  C8_12 
ROOT
HETATM    1  C2  UNL     1      22.024   0.435  53.421  1.00  0.00     0.050 C 
HETATM    2  C3  UNL     1      23.209   0.951  53.096  1.00  0.00     0.051 C 
HETATM    3  C4  UNL     1      24.613   0.457  53.126  1.00  0.00     0.060 A 
HETATM    4  C5  UNL     1      25.301  -0.370  54.039  1.00  0.00     0.165 A 
HETATM    5  N1  UNL     1      26.597  -0.649  53.843  1.00  0.00    -0.222 NA
HETATM    6  C6  UNL     1      27.228  -0.139  52.775  1.00  0.00     0.237 A 
HETATM    7  N2  UNL     1      26.561   0.646  51.911  1.00  0.00    -0.223 NA
HETATM    8  C7  UNL     1      25.273   0.975  52.031  1.00  0.00     0.143 A 
HETATM    9  N4  UNL     1      24.936  -1.070  55.253  1.00  0.00    -0.227 NA
HETATM   10  C14 UNL     1      23.765  -1.358  55.733  1.00  0.00     0.084 C 
HETATM   11  C15 UNL     1      22.703  -1.373  54.941  1.00  0.00     0.014 C 
HETATM   12  C16 UNL     1      21.660  -0.907  53.964  1.00  0.00     0.094 C 
ENDROOT
BRANCH   8  13
HETATM   13  N3  UNL     1      24.579   1.750  51.082  1.00  0.00    -0.340 N 
HETATM   14  H6  UNL     1      23.682   1.620  50.581  1.00  0.00     0.167 HD
BRANCH  13  15
HETATM   15  C8  UNL     1      25.097   2.986  50.584  1.00  0.00     0.035 A 
HETATM   16  C9  UNL     1      26.193   3.065  49.750  1.00  0.00     0.029 A 
HETATM   17  C10 UNL     1      26.715   4.227  49.233  1.00  0.00     0.004 A 
HETATM   18  C11 UNL     1      26.119   5.428  49.554  1.00  0.00     0.019 A 
HETATM   19  C12 UNL     1      25.030   5.445  50.372  1.00  0.00     0.013 A 
HETATM   20 BR1  UNL     1      24.161   7.071  50.849  1.00  0.00    -0.051 Br
HETATM   21  C13 UNL     1      24.574   4.260  50.843  1.00  0.00     0.048 A 
ENDBRANCH  13  15
ENDBRANCH   8  13
BRANCH   1  22
HETATM   22  O1  UNL     1      21.182   1.473  53.124  1.00  0.00    -0.360 OA
HETATM   23  C1  UNL     1      21.183   2.303  52.011  1.00  0.00     0.209 C 
ENDBRANCH   1  22
TORSDOF 3
ENDMDL
MODEL 4
REMARK VINA RESULT:      -8.0      3.146      6.257
REMARK  3 active torsions:
REMARK  status: ('A' for Active; 'I' for Inactive)
REMARK    1  A    between atoms: O1_2  and  C2_3 
REMARK    2  A    between atoms: C7_10  and  N3_11 
REMARK    3  A    between atoms: N3_11  and  C8_12 
ROOT
HETATM    1  C2  UNL     1      22.112   1.362  50.764  1.00  0.00     0.050 C 
HETATM    2  C3  UNL     1      22.926   1.229  51.811  1.00  0.00     0.051 C 
HETATM    3  C4  UNL     1      22.958   0.349  53.011  1.00  0.00     0.060 A 
HETATM    4  C5  UNL     1      21.930  -0.159  53.833  1.00  0.00     0.165 A 
HETATM    5  N1  UNL     1      22.236  -0.927  54.888  1.00  0.00    -0.222 NA
HETATM    6  C6  UNL     1      23.521  -1.207  55.151  1.00  0.00     0.237 A 
HETATM    7  N2  UNL     1      24.491  -0.718  54.359  1.00  0.00    -0.223 NA
HETATM    8  C7  UNL     1      24.275   0.054  53.291  1.00  0.00     0.143 A 
HETATM    9  N4  UNL     1      20.485  -0.064  53.833  1.00  0.00    -0.227 NA
HETATM   10  C14 UNL     1      19.672   0.322  52.898  1.00  0.00     0.084 C 
HETATM   11  C15 UNL     1      20.062   0.322  51.632  1.00  0.00     0.014 C 
HETATM   12  C16 UNL     1      20.865   0.628  50.398  1.00  0.00     0.094 C 
ENDROOT
BRANCH   8  13
HETATM   13  N3  UNL     1      25.304   0.506  52.441  1.00  0.00    -0.340 N 
HETATM   14  H6  UNL     1      25.346   0.706  51.426  1.00  0.00     0.167 HD
BRANCH  13  15
HETATM   15  C8  UNL     1      26.626   0.765  52.918  1.00  0.00     0.035 A 
HETATM   16  C9  UNL     1      27.070   2.022  53.268  1.00  0.00     0.029 A 
HETATM   17  C10 UNL     1      28.325   2.316  53.748  1.00  0.00     0.004 A 
HETATM   18  C11 UNL     1      29.237   1.294  53.903  1.00  0.00     0.019 A 
HETATM   19  C12 UNL     1      28.885   0.019  53.582  1.00  0.00     0.013 A 
HETATM   20 BR1  UNL     1      30.098  -1.435  53.777  1.00  0.00    -0.051 Br
HETATM   21  C13 UNL     1      27.630  -0.192  53.115  1.00  0.00     0.048 A 
ENDBRANCH  13  15
ENDBRANCH   8  13
BRANCH   1  22
HETATM   22  O1  UNL     1      22.719   2.375  50.072  1.00  0.00    -0.360 OA
HETATM   23  C1  UNL     1      23.689   3.268  50.508  1.00  0.00     0.209 C 
ENDBRANCH   1  22
TORSDOF 3
ENDMDL
MODEL 5
REMARK VINA RESULT:      -7.9      3.175      5.206
REMARK  3 active torsions:
REMARK  status: ('A' for Active; 'I' for Inactive)
REMARK    1  A    between atoms: O1_2  and  C2_3 
REMARK    2  A    between atoms: C7_10  and  N3_11 
REMARK    3  A    between atoms: N3_11  and  C8_12 
ROOT
HETATM    1  C2  UNL     1      22.022   0.259  53.544  1.00  0.00     0.050 C 
HETATM    2  C3  UNL     1      23.174   0.822  53.178  1.00  0.00     0.051 C 
HETATM    3  C4  UNL     1      24.600   0.398  53.189  1.00  0.00     0.060 A 
HETATM    4  C5  UNL     1      25.347  -0.368  54.109  1.00  0.00     0.165 A 
HETATM    5  N1  UNL     1      26.650  -0.590  53.890  1.00  0.00    -0.222 NA
HETATM    6  C6  UNL     1      27.233  -0.081  52.794  1.00  0.00     0.237 A 
HETATM    7  N2  UNL     1      26.510   0.646  51.925  1.00  0.00    -0.223 NA
HETATM    8  C7  UNL     1      25.210   0.915  52.066  1.00  0.00     0.143 A 
HETATM    9  N4  UNL     1      25.043  -1.050  55.349  1.00  0.00    -0.227 NA
HETATM   10  C14 UNL     1      23.899  -1.380  55.864  1.00  0.00     0.084 C 
HETATM   11  C15 UNL     1      22.822  -1.469  55.098  1.00  0.00     0.014 C 
HETATM   12  C16 UNL     1      21.736  -1.083  54.132  1.00  0.00     0.094 C 
ENDROOT
BRANCH   8  13
HETATM   13  N3  UNL     1      24.458   1.629  51.111  1.00  0.00    -0.340 N 
HETATM   14  H6  UNL     1      23.649   1.377  50.515  1.00  0.00     0.167 HD
BRANCH  13  15
HETATM   15  C8  UNL     1      24.762   2.981  50.760  1.00  0.00     0.035 A 
HETATM   16  C9  UNL     1      24.002   4.056  51.169  1.00  0.00     0.029 A 
HETATM   17  C10 UNL     1      24.265   5.373  50.872  1.00  0.00     0.004 A 
HETATM   18  C11 UNL     1      25.369   5.677  50.105  1.00  0.00     0.019 A 
HETATM   19  C12 UNL     1      26.178   4.677  49.657  1.00  0.00     0.013 A 
HETATM   20 BR1  UNL     1      27.719   5.033  48.597  1.00  0.00    -0.051 Br
HETATM   21  C13 UNL     1      25.853   3.404  49.991  1.00  0.00     0.048 A 
ENDBRANCH  13  15
ENDBRANCH   8  13
BRANCH   1  22
HETATM   22  O1  UNL     1      21.125   1.246  53.239  1.00  0.00    -0.360 OA
HETATM   23  C1  UNL     1      19.891   1.137  52.610  1.00  0.00     0.209 C 
ENDBRANCH   1  22
TORSDOF 3
ENDMDL
MODEL 6
REMARK VINA RESULT:      -7.8      3.312      6.820
REMARK  3 active torsions:
REMARK  status: ('A' for Active; 'I' for Inactive)
REMARK    1  A    between atoms: O1_2  and  C2_3 
REMARK    2  A    between atoms: C7_10  and  N3_11 
REMARK    3  A    between atoms: N3_11  and  C8_12 
ROOT
HETATM    1  C2  UNL     1      22.496  -0.259  53.795  1.00  0.00     0.050 C 
HETATM    2  C3  UNL     1      23.565   0.257  53.188  1.00  0.00     0.051 C 
HETATM    3  C4  UNL     1      23.779   1.282  52.130  1.00  0.00     0.060 A 
HETATM    4  C5  UNL     1      23.051   1.598  50.964  1.00  0.00     0.165 A 
HETATM    5  N1  UNL     1      23.480   2.572  50.150  1.00  0.00    -0.222 NA
HETATM    6  C6  UNL     1      24.603   3.241  50.456  1.00  0.00     0.237 A 
HETATM    7  N2  UNL     1      25.287   2.932  51.570  1.00  0.00    -0.223 NA
HETATM    8  C7  UNL     1      24.931   1.977  52.434  1.00  0.00     0.143 A 
HETATM    9  N4  UNL     1      21.835   1.098  50.357  1.00  0.00    -0.227 NA
HETATM   10  C14 UNL     1      20.892   0.360  50.857  1.00  0.00     0.084 C 
HETATM   11  C15 UNL     1      20.733   0.278  52.169  1.00  0.00     0.014 C 
HETATM   12  C16 UNL     1      21.041   0.028  53.619  1.00  0.00     0.094 C 
ENDROOT
BRANCH   8  13
HETATM   13  N3  UNL     1      25.631   1.711  53.627  1.00  0.00    -0.340 N 
HETATM   14  H6  UNL     1      25.386   1.812  54.628  1.00  0.00     0.167 HD
BRANCH  13  15
HETATM   15  C8  UNL     1      26.973   1.220  53.628  1.00  0.00     0.035 A 
HETATM   16  C9  UNL     1      28.071   2.023  53.856  1.00  0.00     0.029 A 
HETATM   17  C10 UNL     1      29.377   1.593  53.885  1.00  0.00     0.004 A 
HETATM   18  C11 UNL     1      29.645   0.258  53.672  1.00  0.00     0.019 A 
HETATM   19  C12 UNL     1      28.621  -0.609  53.439  1.00  0.00     0.013 A 
HETATM   20 BR1  UNL     1      28.927  -2.465  53.142  1.00  0.00    -0.051 Br
HETATM   21  C13 UNL     1      27.361  -0.111  53.426  1.00  0.00     0.048 A 
ENDBRANCH  13  15
ENDBRANCH   8  13
BRANCH   1  22
HETATM   22  O1  UNL     1      23.074  -1.151  54.657  1.00  0.00    -0.360 OA
HETATM   23  C1  UNL     1      24.291  -1.059  55.318  1.00  0.00     0.209 C 
ENDBRANCH   1  22
TORSDOF 3
ENDMDL
MODEL 7
REMARK VINA RESULT:      -7.8      1.837      2.160
REMARK  3 active torsions:
REMARK  status: ('A' for Active; 'I' for Inactive)
REMARK    1  A    between atoms: O1_2  and  C2_3 
REMARK    2  A    between atoms: C7_10  and  N3_11 
REMARK    3  A    between atoms: N3_11  and  C8_12 
ROOT
HETATM    1  C2  UNL     1      26.962   1.823  51.984  1.00  0.00     0.050 C 
HETATM    2  C3  UNL     1      25.966   0.945  52.100  1.00  0.00     0.051 C 
HETATM    3  C4  UNL     1      25.348   0.202  53.231  1.00  0.00     0.060 A 
HETATM    4  C5  UNL     1      25.902  -0.379  54.392  1.00  0.00     0.165 A 
HETATM    5  N1  UNL     1      25.111  -1.025  55.259  1.00  0.00    -0.222 NA
HETATM    6  C6  UNL     1      23.794  -1.112  55.014  1.00  0.00     0.237 A 
HETATM    7  N2  UNL     1      23.279  -0.553  53.906  1.00  0.00    -0.223 NA
HETATM    8  C7  UNL     1      23.993   0.106  52.991  1.00  0.00     0.143 A 
HETATM    9  N4  UNL     1      27.235  -0.463  54.950  1.00  0.00    -0.227 NA
HETATM   10  C14 UNL     1      28.306   0.211  54.664  1.00  0.00     0.084 C 
HETATM   11  C15 UNL     1      28.215   1.382  54.052  1.00  0.00     0.014 C 
HETATM   12  C16 UNL     1      27.867   2.414  53.015  1.00  0.00     0.094 C 
ENDROOT
BRANCH   8  13
HETATM   13  N3  UNL     1      23.422   0.735  51.868  1.00  0.00    -0.340 N 
HETATM   14  H6  UNL     1      23.393   0.495  50.860  1.00  0.00     0.167 HD
BRANCH  13  15
HETATM   15  C8  UNL     1      22.726   1.980  51.964  1.00  0.00     0.035 A 
HETATM   16  C9  UNL     1      21.415   2.083  52.378  1.00  0.00     0.029 A 
HETATM   17  C10 UNL     1      20.711   3.258  52.504  1.00  0.00     0.004 A 
HETATM   18  C11 UNL     1      21.338   4.447  52.200  1.00  0.00     0.019 A 
HETATM   19  C12 UNL     1      22.635   4.442  51.784  1.00  0.00     0.013 A 
HETATM   20 BR1  UNL     1      23.556   6.051  51.353  1.00  0.00    -0.051 Br
HETATM   21  C13 UNL     1      23.261   3.244  51.684  1.00  0.00     0.048 A 
ENDBRANCH  13  15
ENDBRANCH   8  13
BRANCH   1  22
HETATM   22  O1  UNL     1      26.957   2.069  50.638  1.00  0.00    -0.360 OA
HETATM   23  C1  UNL     1      26.438   3.160  49.954  1.00  0.00     0.209 C 
ENDBRANCH   1  22
TORSDOF 3
ENDMDL
MODEL 8
REMARK VINA RESULT:      -7.2      3.035      6.072
REMARK  3 active torsions:
REMARK  status: ('A' for Active; 'I' for Inactive)
REMARK    1  A    between atoms: O1_2  and  C2_3 
REMARK    2  A    between atoms: C7_10  and  N3_11 
REMARK    3  A    between atoms: N3_11  and  C8_12 
ROOT
HETATM    1  C2  UNL     1      23.599   3.341  50.246  1.00  0.00     0.050 C 
HETATM    2  C3  UNL     1      23.594   2.812  51.469  1.00  0.00     0.051 C 
HETATM    3  C4  UNL     1      23.210   1.493  52.042  1.00  0.00     0.060 A 
HETATM    4  C5  UNL     1      22.165   0.599  51.727  1.00  0.00     0.165 A 
HETATM    5  N1  UNL     1      22.023  -0.535  52.426  1.00  0.00    -0.222 NA
HETATM    6  C6  UNL     1      22.880  -0.810  53.421  1.00  0.00     0.237 A 
HETATM    7  N2  UNL     1      23.871   0.049  53.710  1.00  0.00    -0.223 NA
HETATM    8  C7  UNL     1      24.084   1.200  53.066  1.00  0.00     0.143 A 
HETATM    9  N4  UNL     1      21.102   0.581  50.743  1.00  0.00    -0.227 NA
HETATM   10  C14 UNL     1      20.949   1.284  49.664  1.00  0.00     0.084 C 
HETATM   11  C15 UNL     1      21.990   1.878  49.100  1.00  0.00     0.014 C 
HETATM   12  C16 UNL     1      23.196   2.760  48.930  1.00  0.00     0.094 C 
ENDROOT
BRANCH   8  13
HETATM   13  N3  UNL     1      25.166   2.056  53.348  1.00  0.00    -0.340 N 
HETATM   14  H6  UNL     1      25.236   3.075  53.521  1.00  0.00     0.167 HD
BRANCH  13  15
HETATM   15  C8  UNL     1      26.513   1.582  53.420  1.00  0.00     0.035 A 
HETATM   16  C9  UNL     1      27.587   2.398  53.707  1.00  0.00     0.029 A 
HETATM   17  C10 UNL     1      28.895   1.985  53.805  1.00  0.00     0.004 A 
HETATM   18  C11 UNL     1      29.191   0.654  53.604  1.00  0.00     0.019 A 
HETATM   19  C12 UNL     1      28.192  -0.225  53.316  1.00  0.00     0.013 A 
HETATM   20 BR1  UNL     1      28.537  -2.076  53.032  1.00  0.00    -0.051 Br
HETATM   21  C13 UNL     1      26.929   0.257  53.236  1.00  0.00     0.048 A 
ENDBRANCH  13  15
ENDBRANCH   8  13
BRANCH   1  22
HETATM   22  O1  UNL     1      24.084   4.597  50.491  1.00  0.00    -0.360 OA
HETATM   23  C1  UNL     1      23.663   5.524  51.435  1.00  0.00     0.209 C 
ENDBRANCH   1  22
TORSDOF 3
ENDMDL
MODEL 9
REMARK VINA RESULT:      -7.2      3.489      7.190
REMARK  3 active torsions:
REMARK  status: ('A' for Active; 'I' for Inactive)
REMARK    1  A    between atoms: O1_2  and  C2_3 
REMARK    2  A    between atoms: C7_10  and  N3_11 
REMARK    3  A    between atoms: N3_11  and  C8_12 
ROOT
HETATM    1  C2  UNL     1      20.534  -0.113  52.989  1.00  0.00     0.050 C 
HETATM    2  C3  UNL     1      21.725   0.146  52.449  1.00  0.00     0.051 C 
HETATM    3  C4  UNL     1      22.226   1.089  51.412  1.00  0.00     0.060 A 
HETATM    4  C5  UNL     1      21.657   1.551  50.206  1.00  0.00     0.165 A 
HETATM    5  N1  UNL     1      22.342   2.398  49.426  1.00  0.00    -0.222 NA
HETATM    6  C6  UNL     1      23.565   2.800  49.801  1.00  0.00     0.237 A 
HETATM    7  N2  UNL     1      24.095   2.354  50.953  1.00  0.00    -0.223 NA
HETATM    8  C7  UNL     1      23.484   1.510  51.788  1.00  0.00     0.143 A 
HETATM    9  N4  UNL     1      20.398   1.332  49.525  1.00  0.00    -0.227 NA
HETATM   10  C14 UNL     1      19.286   0.828  49.964  1.00  0.00     0.084 C 
HETATM   11  C15 UNL     1      19.035   0.793  51.265  1.00  0.00     0.014 C 
HETATM   12  C16 UNL     1      19.194   0.492  52.729  1.00  0.00     0.094 C 
ENDROOT
BRANCH   8  13
HETATM   13  N3  UNL     1      24.035   1.103  53.019  1.00  0.00    -0.340 N 
HETATM   14  H6  UNL     1      23.669   1.090  53.988  1.00  0.00     0.167 HD
BRANCH  13  15
HETATM   15  C8  UNL     1      25.369   0.603  53.127  1.00  0.00     0.035 A 
HETATM   16  C9  UNL     1      25.707  -0.711  52.878  1.00  0.00     0.029 A 
HETATM   17  C10 UNL     1      26.977  -1.232  52.951  1.00  0.00     0.004 A 
HETATM   18  C11 UNL     1      28.021  -0.401  53.299  1.00  0.00     0.019 A 
HETATM   19  C12 UNL     1      27.780   0.913  53.562  1.00  0.00     0.013 A 
HETATM   20 BR1  UNL     1      29.180   2.110  54.045  1.00  0.00    -0.051 Br
HETATM   21  C13 UNL     1      26.502   1.352  53.470  1.00  0.00     0.048 A 
ENDBRANCH  13  15
ENDBRANCH   8  13
BRANCH   1  22
HETATM   22  O1  UNL     1      20.845  -1.106  53.878  1.00  0.00    -0.360 OA
HETATM   23  C1  UNL     1      22.094  -1.603  54.225  1.00  0.00     0.209 C 
ENDBRANCH   1  22
TORSDOF 3
ENDMDL
