MODEL 1
REMARK VINA RESULT:      -8.4      0.000      0.000
REMARK  6 active torsions:
REMARK  status: ('A' for Active; 'I' for Inactive)
REMARK    1  A    between atoms: N1_2  and  C3_4 
REMARK    2  A    between atoms: C3_4  and  C4_5 
REMARK    3  A    between atoms: C5_6  and  C6_7 
REMARK    4  A    between atoms: C6_7  and  C7_8 
REMARK    5  A    between atoms: C14_17  and  N4_18 
REMARK    6  A    between atoms: N4_18  and  C15_19 
ROOT
HETATM    1  C7  UNL     1      23.820   0.644  53.246  1.00  0.00     0.056 A 
HETATM    2  C8  UNL     1      22.538   0.411  52.919  1.00  0.00     0.035 A 
HETATM    3  C9  UNL     1      21.574   1.353  52.353  1.00  0.00     0.035 A 
HETATM    4  C10 UNL     1      21.740   2.630  52.055  1.00  0.00     0.071 A 
HETATM    5  N2  UNL     1      20.598   3.089  51.566  1.00  0.00    -0.259 NA
HETATM    6  C11 UNL     1      20.530   4.399  51.194  1.00  0.00     0.142 A 
HETATM    7  C12 UNL     1      21.642   5.238  51.326  1.00  0.00     0.089 A 
HETATM    8  C13 UNL     1      21.547   6.620  50.927  1.00  0.00     0.103 C 
HETATM    9  N3  UNL     1      21.477   7.755  50.619  1.00  0.00    -0.191 NA
HETATM   10  C14 UNL     1      22.792   4.691  51.841  1.00  0.00     0.069 A 
HETATM   11  C21 UNL     1      22.893   3.370  52.226  1.00  0.00     0.043 A 
HETATM   12  C22 UNL     1      24.110   3.105  52.672  1.00  0.00     0.158 A 
HETATM   13  O1  UNL     1      24.498   1.847  53.112  1.00  0.00    -0.326 OA
ENDROOT
BRANCH  10  14
HETATM   14  N4  UNL     1      23.909   5.584  51.958  1.00  0.00    -0.354 N 
HETATM   15  H16 UNL     1      24.126   6.066  52.858  1.00  0.00     0.166 HD
BRANCH  14  16
HETATM   16  C15 UNL     1      24.769   5.861  50.872  1.00  0.00     0.033 A 
HETATM   17  C16 UNL     1      25.239   4.924  49.943  1.00  0.00     0.029 A 
HETATM   18  C17 UNL     1      26.084   5.346  48.911  1.00  0.00     0.004 A 
HETATM   19  C18 UNL     1      26.466   6.661  48.782  1.00  0.00     0.019 A 
HETATM   20  C19 UNL     1      26.013   7.597  49.685  1.00  0.00     0.013 A 
HETATM   21 BR1  UNL     1      26.527   9.427  49.532  1.00  0.00    -0.051 Br
HETATM   22  C20 UNL     1      25.182   7.180  50.702  1.00  0.00     0.048 A 
ENDBRANCH  14  16
ENDBRANCH  10  14
BRANCH   1  23
HETATM   23  C6  UNL     1      24.637  -0.462  53.812  1.00  0.00     0.091 C 
BRANCH  23  24
HETATM   24  C5  UNL     1      25.938  -0.589  53.084  1.00  0.00    -0.022 C 
HETATM   25  C4  UNL     1      27.101  -0.277  53.627  1.00  0.00    -0.001 C 
BRANCH  25  26
HETATM   26  C3  UNL     1      27.824   0.217  54.809  1.00  0.00     0.298 C 
BRANCH  26  27
HETATM   27  N1  UNL     1      29.068   0.855  54.437  1.00  0.00     0.083 N 
HETATM   28  C1  UNL     1      29.782  -0.066  53.563  1.00  0.00     0.309 C 
HETATM   29  C2  UNL     1      28.784   2.081  53.741  1.00  0.00     0.309 C 
ENDBRANCH  26  27
ENDBRANCH  25  26
ENDBRANCH  23  24
ENDBRANCH   1  23
TORSDOF 6
ENDMDL
MODEL 2
REMARK VINA RESULT:      -8.4      3.292      6.713
REMARK  6 active torsions:
REMARK  status: ('A' for Active; 'I' for Inactive)
REMARK    1  A    between atoms: N1_2  and  C3_4 
REMARK    2  A    between atoms: C3_4  and  C4_5 
REMARK    3  A    between atoms: C5_6  and  C6_7 
REMARK    4  A    between atoms: C6_7  and  C7_8 
REMARK    5  A    between atoms: C14_17  and  N4_18 
REMARK    6  A    between atoms: N4_18  and  C15_19 
ROOT
HETATM    1  C7  UNL     1      24.448   3.736  49.730  1.00  0.00     0.056 A 
HETATM    2  C8  UNL     1      23.308   3.314  49.158  1.00  0.00     0.035 A 
HETATM    3  C9  UNL     1      22.385   2.294  49.650  1.00  0.00     0.035 A 
HETATM    4  C10 UNL     1      22.471   1.557  50.745  1.00  0.00     0.071 A 
HETATM    5  N2  UNL     1      21.411   0.764  50.790  1.00  0.00    -0.259 NA
HETATM    6  C11 UNL     1      21.290  -0.100  51.838  1.00  0.00     0.142 A 
HETATM    7  C12 UNL     1      22.262  -0.146  52.843  1.00  0.00     0.089 A 
HETATM    8  C13 UNL     1      22.114  -1.067  53.941  1.00  0.00     0.103 C 
HETATM    9  N3  UNL     1      22.012  -1.827  54.835  1.00  0.00    -0.191 NA
HETATM   10  C14 UNL     1      23.334   0.707  52.728  1.00  0.00     0.069 A 
HETATM   11  C21 UNL     1      23.485   1.592  51.681  1.00  0.00     0.043 A 
HETATM   12  C22 UNL     1      24.593   2.301  51.824  1.00  0.00     0.158 A 
HETATM   13  O1  UNL     1      24.989   3.280  50.923  1.00  0.00    -0.326 OA
ENDROOT
BRANCH  10  14
HETATM   14  N4  UNL     1      24.307   0.629  53.780  1.00  0.00    -0.354 N 
HETATM   15  H16 UNL     1      24.098   0.979  54.740  1.00  0.00     0.166 HD
BRANCH  14  16
HETATM   16  C15 UNL     1      25.593   0.079  53.576  1.00  0.00     0.033 A 
HETATM   17  C16 UNL     1      25.867  -1.154  52.972  1.00  0.00     0.029 A 
HETATM   18  C17 UNL     1      27.196  -1.569  52.832  1.00  0.00     0.004 A 
HETATM   19  C18 UNL     1      28.244  -0.795  53.273  1.00  0.00     0.019 A 
HETATM   20  C19 UNL     1      27.994   0.421  53.869  1.00  0.00     0.013 A 
HETATM   21 BR1  UNL     1      29.427   1.515  54.489  1.00  0.00    -0.051 Br
HETATM   22  C20 UNL     1      26.685   0.828  54.007  1.00  0.00     0.048 A 
ENDBRANCH  14  16
ENDBRANCH  10  14
BRANCH   1  23
HETATM   23  C6  UNL     1      25.248   4.795  49.059  1.00  0.00     0.091 C 
BRANCH  23  24
HETATM   24  C5  UNL     1      26.702   4.442  49.054  1.00  0.00    -0.022 C 
HETATM   25  C4  UNL     1      27.644   5.274  48.650  1.00  0.00    -0.001 C 
BRANCH  25  26
HETATM   26  C3  UNL     1      27.978   6.604  48.116  1.00  0.00     0.298 C 
BRANCH  26  27
HETATM   27  N1  UNL     1      29.314   6.629  47.562  1.00  0.00     0.083 N 
HETATM   28  C1  UNL     1      29.910   7.905  47.928  1.00  0.00     0.309 C 
HETATM   29  C2  UNL     1      30.079   5.545  48.118  1.00  0.00     0.309 C 
ENDBRANCH  26  27
ENDBRANCH  25  26
ENDBRANCH  23  24
ENDBRANCH   1  23
TORSDOF 6
ENDMDL
MODEL 3
REMARK VINA RESULT:      -8.4      3.941      7.506
REMARK  6 active torsions:
REMARK  status: ('A' for Active; 'I' for Inactive)
REMARK    1  A    between atoms: N1_2  and  C3_4 
REMARK    2  A    between atoms: C3_4  and  C4_5 
REMARK    3  A    between atoms: C5_6  and  C6_7 
REMARK    4  A    between atoms: C6_7  and  C7_8 
REMARK    5  A    between atoms: C14_17  and  N4_18 
REMARK    6  A    between atoms: N4_18  and  C15_19 
ROOT
HETATM    1  C7  UNL     1      25.619   3.576  50.485  1.00  0.00     0.056 A 
HETATM    2  C8  UNL     1      26.586   2.676  50.731  1.00  0.00     0.035 A 
HETATM    3  C9  UNL     1      26.489   1.457  51.532  1.00  0.00     0.035 A 
HETATM    4  C10 UNL     1      25.449   0.983  52.197  1.00  0.00     0.071 A 
HETATM    5  N2  UNL     1      25.817  -0.149  52.780  1.00  0.00    -0.259 NA
HETATM    6  C11 UNL     1      24.900  -0.818  53.535  1.00  0.00     0.142 A 
HETATM    7  C12 UNL     1      23.601  -0.322  53.689  1.00  0.00     0.089 A 
HETATM    8  C13 UNL     1      22.648  -1.046  54.493  1.00  0.00     0.103 C 
HETATM    9  N3  UNL     1      21.866  -1.621  55.159  1.00  0.00    -0.191 NA
HETATM   10  C14 UNL     1      23.293   0.857  53.054  1.00  0.00     0.069 A 
HETATM   11  C21 UNL     1      24.197   1.557  52.284  1.00  0.00     0.043 A 
HETATM   12  C22 UNL     1      23.638   2.646  51.779  1.00  0.00     0.158 A 
HETATM   13  O1  UNL     1      24.314   3.531  50.951  1.00  0.00    -0.326 OA
ENDROOT
BRANCH  10  14
HETATM   14  N4  UNL     1      21.951   1.330  53.237  1.00  0.00    -0.354 N 
HETATM   15  H16 UNL     1      21.705   1.975  54.019  1.00  0.00     0.166 HD
BRANCH  14  16
HETATM   16  C15 UNL     1      20.895   0.954  52.375  1.00  0.00     0.033 A 
HETATM   17  C16 UNL     1      20.805   1.263  51.012  1.00  0.00     0.029 A 
HETATM   18  C17 UNL     1      19.699   0.815  50.281  1.00  0.00     0.004 A 
HETATM   19  C18 UNL     1      18.697   0.077  50.865  1.00  0.00     0.019 A 
HETATM   20  C19 UNL     1      18.770  -0.237  52.204  1.00  0.00     0.013 A 
HETATM   21 BR1  UNL     1      17.395  -1.260  53.041  1.00  0.00    -0.051 Br
HETATM   22  C20 UNL     1      19.858   0.204  52.924  1.00  0.00     0.048 A 
ENDBRANCH  14  16
ENDBRANCH  10  14
BRANCH   1  23
HETATM   23  C6  UNL     1      25.928   4.757  49.636  1.00  0.00     0.091 C 
BRANCH  23  24
HETATM   24  C5  UNL     1      27.193   4.544  48.867  1.00  0.00    -0.022 C 
HETATM   25  C4  UNL     1      27.961   5.536  48.454  1.00  0.00    -0.001 C 
BRANCH  25  26
HETATM   26  C3  UNL     1      28.183   6.989  48.391  1.00  0.00     0.298 C 
BRANCH  26  27
HETATM   27  N1  UNL     1      29.561   7.299  48.081  1.00  0.00     0.083 N 
HETATM   28  C1  UNL     1      29.931   8.463  48.872  1.00  0.00     0.309 C 
HETATM   29  C2  UNL     1      30.391   6.176  48.430  1.00  0.00     0.309 C 
ENDBRANCH  26  27
ENDBRANCH  25  26
ENDBRANCH  23  24
ENDBRANCH   1  23
TORSDOF 6
ENDMDL
MODEL 4
REMARK VINA RESULT:      -8.0      3.909      7.153
REMARK  6 active torsions:
REMARK  status: ('A' for Active; 'I' for Inactive)
REMARK    1  A    between atoms: N1_2  and  C3_4 
REMARK    2  A    between atoms: C3_4  and  C4_5 
REMARK    3  A    between atoms: C5_6  and  C6_7 
REMARK    4  A    between atoms: C6_7  and  C7_8 
REMARK    5  A    between atoms: C14_17  and  N4_18 
REMARK    6  A    between atoms: N4_18  and  C15_19 
ROOT
HETATM    1  C7  UNL     1      27.196   4.912  49.071  1.00  0.00     0.056 A 
HETATM    2  C8  UNL     1      26.196   5.794  49.240  1.00  0.00     0.035 A 
HETATM    3  C9  UNL     1      24.952   5.602  49.983  1.00  0.00     0.035 A 
HETATM    4  C10 UNL     1      24.531   4.529  50.631  1.00  0.00     0.071 A 
HETATM    5  N2  UNL     1      23.346   4.806  51.157  1.00  0.00    -0.259 NA
HETATM    6  C11 UNL     1      22.709   3.835  51.870  1.00  0.00     0.142 A 
HETATM    7  C12 UNL     1      23.294   2.577  52.045  1.00  0.00     0.089 A 
HETATM    8  C13 UNL     1      22.601   1.565  52.803  1.00  0.00     0.103 C 
HETATM    9  N3  UNL     1      22.038   0.725  53.408  1.00  0.00    -0.191 NA
HETATM   10  C14 UNL     1      24.524   2.363  51.471  1.00  0.00     0.069 A 
HETATM   11  C21 UNL     1      25.194   3.324  50.744  1.00  0.00     0.043 A 
HETATM   12  C22 UNL     1      26.358   2.861  50.319  1.00  0.00     0.158 A 
HETATM   13  O1  UNL     1      27.250   3.621  49.573  1.00  0.00    -0.326 OA
ENDROOT
BRANCH  10  14
HETATM   14  N4  UNL     1      25.088   1.060  51.676  1.00  0.00    -0.354 N 
HETATM   15  H16 UNL     1      24.822   0.252  51.070  1.00  0.00     0.166 HD
BRANCH  14  16
HETATM   16  C15 UNL     1      26.028   0.797  52.699  1.00  0.00     0.033 A 
HETATM   17  C16 UNL     1      26.146   1.508  53.899  1.00  0.00     0.029 A 
HETATM   18  C17 UNL     1      27.124   1.128  54.826  1.00  0.00     0.004 A 
HETATM   19  C18 UNL     1      27.972   0.072  54.590  1.00  0.00     0.019 A 
HETATM   20  C19 UNL     1      27.870  -0.638  53.415  1.00  0.00     0.013 A 
HETATM   21 BR1  UNL     1      29.033  -2.107  53.059  1.00  0.00    -0.051 Br
HETATM   22  C20 UNL     1      26.908  -0.264  52.502  1.00  0.00     0.048 A 
ENDBRANCH  14  16
ENDBRANCH  10  14
BRANCH   1  23
HETATM   23  C6  UNL     1      28.386   5.310  48.273  1.00  0.00     0.091 C 
BRANCH  23  24
HETATM   24  C5  UNL     1      28.357   6.775  47.969  1.00  0.00    -0.022 C 
HETATM   25  C4  UNL     1      29.335   7.599  48.300  1.00  0.00    -0.001 C 
BRANCH  25  26
HETATM   26  C3  UNL     1      30.653   7.769  48.932  1.00  0.00     0.298 C 
BRANCH  26  27
HETATM   27  N1  UNL     1      31.710   7.245  48.096  1.00  0.00     0.083 N 
HETATM   28  C1  UNL     1      32.858   8.127  48.247  1.00  0.00     0.309 C 
HETATM   29  C2  UNL     1      32.044   5.915  48.530  1.00  0.00     0.309 C 
ENDBRANCH  26  27
ENDBRANCH  25  26
ENDBRANCH  23  24
ENDBRANCH   1  23
TORSDOF 6
ENDMDL
MODEL 5
REMARK VINA RESULT:      -8.0      2.700      4.052
REMARK  6 active torsions:
REMARK  status: ('A' for Active; 'I' for Inactive)
REMARK    1  A    between atoms: N1_2  and  C3_4 
REMARK    2  A    between atoms: C3_4  and  C4_5 
REMARK    3  A    between atoms: C5_6  and  C6_7 
REMARK    4  A    between atoms: C6_7  and  C7_8 
REMARK    5  A    between atoms: C14_17  and  N4_18 
REMARK    6  A    between atoms: N4_18  and  C15_19 
ROOT
HETATM    1  C7  UNL     1      23.575  -0.685  54.181  1.00  0.00     0.056 A 
HETATM    2  C8  UNL     1      22.526  -1.237  54.813  1.00  0.00     0.035 A 
HETATM    3  C9  UNL     1      21.122  -1.206  54.409  1.00  0.00     0.035 A 
HETATM    4  C10 UNL     1      20.575  -0.623  53.356  1.00  0.00     0.071 A 
HETATM    5  N2  UNL     1      19.271  -0.855  53.390  1.00  0.00    -0.259 NA
HETATM    6  C11 UNL     1      18.493  -0.337  52.397  1.00  0.00     0.142 A 
HETATM    7  C12 UNL     1      19.060   0.419  51.366  1.00  0.00     0.089 A 
HETATM    8  C13 UNL     1      18.218   0.958  50.327  1.00  0.00     0.103 C 
HETATM    9  N3  UNL     1      17.538   1.415  49.481  1.00  0.00    -0.191 NA
HETATM   10  C14 UNL     1      20.419   0.617  51.397  1.00  0.00     0.069 A 
HETATM   11  C21 UNL     1      21.233   0.107  52.387  1.00  0.00     0.043 A 
HETATM   12  C22 UNL     1      22.496   0.434  52.167  1.00  0.00     0.158 A 
HETATM   13  O1  UNL     1      23.537   0.040  52.999  1.00  0.00    -0.326 OA
ENDROOT
BRANCH  10  14
HETATM   14  N4  UNL     1      20.960   1.397  50.321  1.00  0.00    -0.354 N 
HETATM   15  H16 UNL     1      21.099   0.987  49.371  1.00  0.00     0.166 HD
BRANCH  14  16
HETATM   16  C15 UNL     1      21.331   2.750  50.483  1.00  0.00     0.033 A 
HETATM   17  C16 UNL     1      20.613   3.712  51.204  1.00  0.00     0.029 A 
HETATM   18  C17 UNL     1      21.108   5.019  51.285  1.00  0.00     0.004 A 
HETATM   19  C18 UNL     1      22.285   5.384  50.675  1.00  0.00     0.019 A 
HETATM   20  C19 UNL     1      23.005   4.451  49.963  1.00  0.00     0.013 A 
HETATM   21 BR1  UNL     1      24.641   4.929  49.107  1.00  0.00    -0.051 Br
HETATM   22  C20 UNL     1      22.517   3.165  49.883  1.00  0.00     0.048 A 
ENDBRANCH  14  16
ENDBRANCH  10  14
BRANCH   1  23
HETATM   23  C6  UNL     1      24.935  -0.835  54.764  1.00  0.00     0.091 C 
BRANCH  23  24
HETATM   24  C5  UNL     1      25.985  -0.697  53.708  1.00  0.00    -0.022 C 
HETATM   25  C4  UNL     1      27.210  -0.272  53.961  1.00  0.00    -0.001 C 
BRANCH  25  26
HETATM   26  C3  UNL     1      28.174   0.205  54.965  1.00  0.00     0.298 C 
BRANCH  26  27
HETATM   27  N1  UNL     1      29.254   0.944  54.349  1.00  0.00     0.083 N 
HETATM   28  C1  UNL     1      29.917   0.045  53.416  1.00  0.00     0.309 C 
HETATM   29  C2  UNL     1      28.715   2.079  53.649  1.00  0.00     0.309 C 
ENDBRANCH  26  27
ENDBRANCH  25  26
ENDBRANCH  23  24
ENDBRANCH   1  23
TORSDOF 6
ENDMDL
MODEL 6
REMARK VINA RESULT:      -7.9      3.887      6.828
REMARK  6 active torsions:
REMARK  status: ('A' for Active; 'I' for Inactive)
REMARK    1  A    between atoms: N1_2  and  C3_4 
REMARK    2  A    between atoms: C3_4  and  C4_5 
REMARK    3  A    between atoms: C5_6  and  C6_7 
REMARK    4  A    between atoms: C6_7  and  C7_8 
REMARK    5  A    between atoms: C14_17  and  N4_18 
REMARK    6  A    between atoms: N4_18  and  C15_19 
ROOT
HETATM    1  C7  UNL     1      26.597   4.925  49.150  1.00  0.00     0.056 A 
HETATM    2  C8  UNL     1      26.083   6.122  49.481  1.00  0.00     0.035 A 
HETATM    3  C9  UNL     1      24.805   6.395  50.136  1.00  0.00     0.035 A 
HETATM    4  C10 UNL     1      23.875   5.541  50.528  1.00  0.00     0.071 A 
HETATM    5  N2  UNL     1      22.885   6.233  51.072  1.00  0.00    -0.259 NA
HETATM    6  C11 UNL     1      21.801   5.555  51.545  1.00  0.00     0.142 A 
HETATM    7  C12 UNL     1      21.737   4.161  51.458  1.00  0.00     0.089 A 
HETATM    8  C13 UNL     1      20.580   3.464  51.963  1.00  0.00     0.103 C 
HETATM    9  N3  UNL     1      19.634   2.886  52.359  1.00  0.00    -0.191 NA
HETATM   10  C14 UNL     1      22.801   3.511  50.881  1.00  0.00     0.069 A 
HETATM   11  C21 UNL     1      23.912   4.168  50.394  1.00  0.00     0.043 A 
HETATM   12  C22 UNL     1      24.789   3.305  49.906  1.00  0.00     0.158 A 
HETATM   13  O1  UNL     1      26.008   3.688  49.363  1.00  0.00    -0.326 OA
ENDROOT
BRANCH  10  14
HETATM   14  N4  UNL     1      22.696   2.081  50.813  1.00  0.00    -0.354 N 
HETATM   15  H16 UNL     1      22.253   1.608  49.994  1.00  0.00     0.166 HD
BRANCH  14  16
HETATM   16  C15 UNL     1      23.180   1.240  51.840  1.00  0.00     0.033 A 
HETATM   17  C16 UNL     1      24.507   1.175  52.283  1.00  0.00     0.029 A 
HETATM   18  C17 UNL     1      24.841   0.295  53.319  1.00  0.00     0.004 A 
HETATM   19  C18 UNL     1      23.898  -0.509  53.916  1.00  0.00     0.019 A 
HETATM   20  C19 UNL     1      22.588  -0.457  53.494  1.00  0.00     0.013 A 
HETATM   21 BR1  UNL     1      21.260  -1.560  54.302  1.00  0.00    -0.051 Br
HETATM   22  C20 UNL     1      22.261   0.408  52.473  1.00  0.00     0.048 A 
ENDBRANCH  14  16
ENDBRANCH  10  14
BRANCH   1  23
HETATM   23  C6  UNL     1      27.925   4.866  48.485  1.00  0.00     0.091 C 
BRANCH  23  24
HETATM   24  C5  UNL     1      28.395   6.236  48.111  1.00  0.00    -0.022 C 
HETATM   25  C4  UNL     1      29.658   6.614  48.198  1.00  0.00    -0.001 C 
BRANCH  25  26
HETATM   26  C3  UNL     1      31.040   6.250  48.550  1.00  0.00     0.298 C 
BRANCH  26  27
HETATM   27  N1  UNL     1      31.731   5.658  47.425  1.00  0.00     0.083 N 
HETATM   28  C1  UNL     1      32.798   6.571  47.045  1.00  0.00     0.309 C 
HETATM   29  C2  UNL     1      32.280   4.388  47.820  1.00  0.00     0.309 C 
ENDBRANCH  26  27
ENDBRANCH  25  26
ENDBRANCH  23  24
ENDBRANCH   1  23
TORSDOF 6
ENDMDL
MODEL 7
REMARK VINA RESULT:      -7.7      6.499      9.753
REMARK  6 active torsions:
REMARK  status: ('A' for Active; 'I' for Inactive)
REMARK    1  A    between atoms: N1_2  and  C3_4 
REMARK    2  A    between atoms: C3_4  and  C4_5 
REMARK    3  A    between atoms: C5_6  and  C6_7 
REMARK    4  A    between atoms: C6_7  and  C7_8 
REMARK    5  A    between atoms: C14_17  and  N4_18 
REMARK    6  A    between atoms: N4_18  and  C15_19 
ROOT
HETATM    1  C7  UNL     1      28.086   6.180  48.392  1.00  0.00     0.056 A 
HETATM    2  C8  UNL     1      28.006   7.481  48.065  1.00  0.00     0.035 A 
HETATM    3  C9  UNL     1      29.108   8.418  47.856  1.00  0.00     0.035 A 
HETATM    4  C10 UNL     1      30.409   8.204  47.956  1.00  0.00     0.071 A 
HETATM    5  N2  UNL     1      31.033   9.340  47.680  1.00  0.00    -0.259 NA
HETATM    6  C11 UNL     1      32.396   9.360  47.729  1.00  0.00     0.142 A 
HETATM    7  C12 UNL     1      33.116   8.208  48.061  1.00  0.00     0.089 A 
HETATM    8  C13 UNL     1      34.556   8.253  48.108  1.00  0.00     0.103 C 
HETATM    9  N3  UNL     1      35.732   8.282  48.164  1.00  0.00    -0.191 NA
HETATM   10  C14 UNL     1      32.400   7.068  48.335  1.00  0.00     0.069 A 
HETATM   11  C21 UNL     1      31.022   7.015  48.293  1.00  0.00     0.043 A 
HETATM   12  C22 UNL     1      30.593   5.797  48.584  1.00  0.00     0.158 A 
HETATM   13  O1  UNL     1      29.248   5.452  48.602  1.00  0.00    -0.326 OA
ENDROOT
BRANCH  10  14
HETATM   14  N4  UNL     1      33.177   5.909  48.670  1.00  0.00    -0.354 N 
HETATM   15  H16 UNL     1      33.325   5.624  49.662  1.00  0.00     0.166 HD
BRANCH  14  16
HETATM   16  C15 UNL     1      33.780   5.096  47.684  1.00  0.00     0.033 A 
HETATM   17  C16 UNL     1      34.717   4.083  47.923  1.00  0.00     0.029 A 
HETATM   18  C17 UNL     1      35.226   3.352  46.844  1.00  0.00     0.004 A 
HETATM   19  C18 UNL     1      34.829   3.601  45.551  1.00  0.00     0.019 A 
HETATM   20  C19 UNL     1      33.908   4.592  45.297  1.00  0.00     0.013 A 
HETATM   21 BR1  UNL     1      33.339   4.960  43.515  1.00  0.00    -0.051 Br
HETATM   22  C20 UNL     1      33.408   5.312  46.360  1.00  0.00     0.048 A 
ENDBRANCH  14  16
ENDBRANCH  10  14
BRANCH   1  23
HETATM   23  C6  UNL     1      26.833   5.396  48.558  1.00  0.00     0.091 C 
BRANCH  23  24
HETATM   24  C5  UNL     1      27.112   4.078  49.209  1.00  0.00    -0.022 C 
HETATM   25  C4  UNL     1      26.189   3.378  49.844  1.00  0.00    -0.001 C 
BRANCH  25  26
HETATM   26  C3  UNL     1      24.785   3.280  50.275  1.00  0.00     0.298 C 
BRANCH  26  27
HETATM   27  N1  UNL     1      24.683   2.761  51.621  1.00  0.00     0.083 N 
HETATM   28  C1  UNL     1      23.929   3.730  52.402  1.00  0.00     0.309 C 
HETATM   29  C2  UNL     1      23.992   1.499  51.592  1.00  0.00     0.309 C 
ENDBRANCH  26  27
ENDBRANCH  25  26
ENDBRANCH  23  24
ENDBRANCH   1  23
TORSDOF 6
ENDMDL
MODEL 8
REMARK VINA RESULT:      -7.7      4.300      6.932
REMARK  6 active torsions:
REMARK  status: ('A' for Active; 'I' for Inactive)
REMARK    1  A    between atoms: N1_2  and  C3_4 
REMARK    2  A    between atoms: C3_4  and  C4_5 
REMARK    3  A    between atoms: C5_6  and  C6_7 
REMARK    4  A    between atoms: C6_7  and  C7_8 
REMARK    5  A    between atoms: C14_17  and  N4_18 
REMARK    6  A    between atoms: N4_18  and  C15_19 
ROOT
HETATM    1  C7  UNL     1      28.401   5.852  48.350  1.00  0.00     0.056 A 
HETATM    2  C8  UNL     1      27.809   7.028  48.618  1.00  0.00     0.035 A 
HETATM    3  C9  UNL     1      26.538   7.253  49.305  1.00  0.00     0.035 A 
HETATM    4  C10 UNL     1      25.691   6.362  49.793  1.00  0.00     0.071 A 
HETATM    5  N2  UNL     1      24.671   7.017  50.329  1.00  0.00    -0.259 NA
HETATM    6  C11 UNL     1      23.661   6.296  50.892  1.00  0.00     0.142 A 
HETATM    7  C12 UNL     1      23.701   4.898  50.905  1.00  0.00     0.089 A 
HETATM    8  C13 UNL     1      22.620   4.156  51.505  1.00  0.00     0.103 C 
HETATM    9  N3  UNL     1      21.736   3.539  51.979  1.00  0.00    -0.191 NA
HETATM   10  C14 UNL     1      24.791   4.289  50.331  1.00  0.00     0.069 A 
HETATM   11  C21 UNL     1      25.829   4.989  49.753  1.00  0.00     0.043 A 
HETATM   12  C22 UNL     1      26.751   4.161  49.291  1.00  0.00     0.158 A 
HETATM   13  O1  UNL     1      27.917   4.593  48.673  1.00  0.00    -0.326 OA
ENDROOT
BRANCH  10  14
HETATM   14  N4  UNL     1      24.793   2.854  50.366  1.00  0.00    -0.354 N 
HETATM   15  H16 UNL     1      24.495   2.291  49.540  1.00  0.00     0.166 HD
BRANCH  14  16
HETATM   16  C15 UNL     1      25.195   2.130  51.511  1.00  0.00     0.033 A 
HETATM   17  C16 UNL     1      24.432   1.160  52.172  1.00  0.00     0.029 A 
HETATM   18  C17 UNL     1      24.965   0.517  53.295  1.00  0.00     0.004 A 
HETATM   19  C18 UNL     1      26.223   0.812  53.768  1.00  0.00     0.019 A 
HETATM   20  C19 UNL     1      26.988   1.763  53.130  1.00  0.00     0.013 A 
HETATM   21 BR1  UNL     1      28.734   2.193  53.762  1.00  0.00    -0.051 Br
HETATM   22  C20 UNL     1      26.462   2.396  52.025  1.00  0.00     0.048 A 
ENDBRANCH  14  16
ENDBRANCH  10  14
BRANCH   1  23
HETATM   23  C6  UNL     1      29.705   5.844  47.636  1.00  0.00     0.091 C 
BRANCH  23  24
HETATM   24  C5  UNL     1      30.832   6.113  48.583  1.00  0.00    -0.022 C 
HETATM   25  C4  UNL     1      31.972   5.447  48.555  1.00  0.00    -0.001 C 
BRANCH  25  26
HETATM   26  C3  UNL     1      32.775   4.391  47.919  1.00  0.00     0.298 C 
BRANCH  26  27
HETATM   27  N1  UNL     1      34.027   4.912  47.415  1.00  0.00     0.083 N 
HETATM   28  C1  UNL     1      34.910   5.095  48.556  1.00  0.00     0.309 C 
HETATM   29  C2  UNL     1      34.597   3.968  46.491  1.00  0.00     0.309 C 
ENDBRANCH  26  27
ENDBRANCH  25  26
ENDBRANCH  23  24
ENDBRANCH   1  23
TORSDOF 6
ENDMDL
MODEL 9
REMARK VINA RESULT:      -7.5      2.366      2.960
REMARK  6 active torsions:
REMARK  status: ('A' for Active; 'I' for Inactive)
REMARK    1  A    between atoms: N1_2  and  C3_4 
REMARK    2  A    between atoms: C3_4  and  C4_5 
REMARK    3  A    between atoms: C5_6  and  C6_7 
REMARK    4  A    between atoms: C6_7  and  C7_8 
REMARK    5  A    between atoms: C14_17  and  N4_18 
REMARK    6  A    between atoms: N4_18  and  C15_19 
ROOT
HETATM    1  C7  UNL     1      24.007   2.006  51.456  1.00  0.00     0.056 A 
HETATM    2  C8  UNL     1      23.029   1.732  50.576  1.00  0.00     0.035 A 
HETATM    3  C9  UNL     1      22.591   2.546  49.444  1.00  0.00     0.035 A 
HETATM    4  C10 UNL     1      23.042   3.724  49.047  1.00  0.00     0.071 A 
HETATM    5  N2  UNL     1      22.352   4.087  47.975  1.00  0.00    -0.259 NA
HETATM    6  C11 UNL     1      22.640   5.285  47.392  1.00  0.00     0.142 A 
HETATM    7  C12 UNL     1      23.643   6.110  47.911  1.00  0.00     0.089 A 
HETATM    8  C13 UNL     1      23.930   7.373  47.279  1.00  0.00     0.103 C 
HETATM    9  N3  UNL     1      24.164   8.414  46.779  1.00  0.00    -0.191 NA
HETATM   10  C14 UNL     1      24.316   5.667  49.024  1.00  0.00     0.069 A 
HETATM   11  C21 UNL     1      24.048   4.461  49.637  1.00  0.00     0.043 A 
HETATM   12  C22 UNL     1      24.849   4.275  50.674  1.00  0.00     0.158 A 
HETATM   13  O1  UNL     1      24.811   3.137  51.468  1.00  0.00    -0.326 OA
ENDROOT
BRANCH  10  14
HETATM   14  N4  UNL     1      25.338   6.542  49.524  1.00  0.00    -0.354 N 
HETATM   15  H16 UNL     1      25.135   7.240  50.273  1.00  0.00     0.166 HD
BRANCH  14  16
HETATM   16  C15 UNL     1      26.663   6.509  49.036  1.00  0.00     0.033 A 
HETATM   17  C16 UNL     1      27.355   5.362  48.629  1.00  0.00     0.029 A 
HETATM   18  C17 UNL     1      28.667   5.484  48.159  1.00  0.00     0.004 A 
HETATM   19  C18 UNL     1      29.298   6.704  48.084  1.00  0.00     0.019 A 
HETATM   20  C19 UNL     1      28.633   7.843  48.479  1.00  0.00     0.013 A 
HETATM   21 BR1  UNL     1      29.481   9.548  48.388  1.00  0.00    -0.051 Br
HETATM   22  C20 UNL     1      27.341   7.722  48.943  1.00  0.00     0.048 A 
ENDBRANCH  14  16
ENDBRANCH  10  14
BRANCH   1  23
HETATM   23  C6  UNL     1      24.297   1.036  52.544  1.00  0.00     0.091 C 
BRANCH  23  24
HETATM   24  C5  UNL     1      25.393   1.539  53.429  1.00  0.00    -0.022 C 
HETATM   25  C4  UNL     1      26.560   0.932  53.547  1.00  0.00    -0.001 C 
BRANCH  25  26
HETATM   26  C3  UNL     1      27.418  -0.194  53.146  1.00  0.00     0.298 C 
BRANCH  26  27
HETATM   27  N1  UNL     1      28.499  -0.394  54.086  1.00  0.00     0.083 N 
HETATM   28  C1  UNL     1      29.513  -1.194  53.415  1.00  0.00     0.309 C 
HETATM   29  C2  UNL     1      29.043   0.883  54.464  1.00  0.00     0.309 C 
ENDBRANCH  26  27
ENDBRANCH  25  26
ENDBRANCH  23  24
ENDBRANCH   1  23
TORSDOF 6
ENDMDL
