MODEL 1
REMARK VINA RESULT:      -7.5      0.000      0.000
REMARK  8 active torsions:
REMARK  status: ('A' for Active; 'I' for Inactive)
REMARK    1  A    between atoms: O1_1  and  C1_2 
REMARK    2  A    between atoms: C5_8  and  N3_9 
REMARK    3  A    between atoms: N3_9  and  C6_10 
REMARK    4  A    between atoms: C13_18  and  O2_19 
REMARK    5  A    between atoms: O2_19  and  C14_20 
REMARK    6  A    between atoms: C14_20  and  C15_21 
REMARK    7  A    between atoms: C15_21  and  C16_22 
REMARK    8  A    between atoms: C16_22  and  C17_23 
ROOT
HETATM    1  C1  UNL     1      25.239  -0.590  54.924  1.00  0.00     0.101 A 
HETATM    2  C2  UNL     1      26.419   0.106  55.213  1.00  0.00     0.072 A 
HETATM    3  C3  UNL     1      26.982   0.934  54.251  1.00  0.00     0.075 A 
HETATM    4  N1  UNL     1      28.119   1.590  54.504  1.00  0.00    -0.241 NA
HETATM    5  C4  UNL     1      28.698   2.381  53.586  1.00  0.00     0.236 A 
HETATM    6  N2  UNL     1      28.093   2.505  52.366  1.00  0.00    -0.224 NA
HETATM    7  C5  UNL     1      26.945   1.844  52.108  1.00  0.00     0.141 A 
HETATM    8  C11 UNL     1      26.336   1.028  53.038  1.00  0.00     0.042 A 
HETATM    9  C12 UNL     1      25.194   0.358  52.756  1.00  0.00     0.057 A 
HETATM   10  C13 UNL     1      24.598  -0.475  53.675  1.00  0.00     0.102 A 
ENDROOT
BRANCH   7  11
HETATM   11  N3  UNL     1      26.326   1.951  50.815  1.00  0.00    -0.343 N 
HETATM   12  H4  UNL     1      26.043   1.116  50.281  1.00  0.00     0.167 HD
BRANCH  11  13
HETATM   13  C6  UNL     1      26.126   3.286  50.299  1.00  0.00     0.017 A 
HETATM   14  C7  UNL     1      26.869   3.874  49.349  1.00  0.00     0.067 A 
HETATM   15  C8  UNL     1      26.393   5.219  49.071  1.00  0.00     0.114 A 
HETATM   16  F1  UNL     1      26.942   6.066  48.160  1.00  0.00    -0.206 F 
HETATM   17  C9  UNL     1      25.339   5.424  49.883  1.00  0.00     0.021 A 
HETATM   18  C10 UNL     1      25.068   4.242  50.729  1.00  0.00     0.087 A 
ENDBRANCH  11  13
ENDBRANCH   7  11
BRANCH  10  19
HETATM   19  O2  UNL     1      23.497  -1.260  53.709  1.00  0.00    -0.347 OA
BRANCH  19  20
HETATM   20  C14 UNL     1      22.217  -1.129  53.222  1.00  0.00     0.193 C 
BRANCH  20  21
HETATM   21  C15 UNL     1      21.687   0.176  53.746  1.00  0.00     0.099 C 
BRANCH  21  22
HETATM   22  C16 UNL     1      21.529   1.209  52.935  1.00  0.00    -0.136 C 
BRANCH  22  23
HETATM   23  C17 UNL     1      21.707   2.182  52.053  1.00  0.00     0.135 C 
HETATM   24 CL1  UNL     1      22.587   1.522  50.671  1.00  0.00    -0.088 Cl
ENDBRANCH  22  23
ENDBRANCH  21  22
ENDBRANCH  20  21
ENDBRANCH  19  20
ENDBRANCH  10  19
BRANCH   1  25
HETATM   25  O1  UNL     1      24.835  -1.368  56.026  1.00  0.00    -0.358 OA
HETATM   26  H1  UNL     1      25.443  -1.388  56.852  1.00  0.00     0.217 HD
ENDBRANCH   1  25
TORSDOF 8
ENDMDL
MODEL 2
REMARK VINA RESULT:      -7.1      3.435      4.807
REMARK  8 active torsions:
REMARK  status: ('A' for Active; 'I' for Inactive)
REMARK    1  A    between atoms: O1_1  and  C1_2 
REMARK    2  A    between atoms: C5_8  and  N3_9 
REMARK    3  A    between atoms: N3_9  and  C6_10 
REMARK    4  A    between atoms: C13_18  and  O2_19 
REMARK    5  A    between atoms: O2_19  and  C14_20 
REMARK    6  A    between atoms: C14_20  and  C15_21 
REMARK    7  A    between atoms: C15_21  and  C16_22 
REMARK    8  A    between atoms: C16_22  and  C17_23 
ROOT
HETATM    1  C1  UNL     1      20.515  -0.524  53.518  1.00  0.00     0.101 A 
HETATM    2  C2  UNL     1      21.163  -1.068  54.634  1.00  0.00     0.072 A 
HETATM    3  C3  UNL     1      22.546  -0.998  54.727  1.00  0.00     0.075 A 
HETATM    4  N1  UNL     1      23.182  -1.530  55.775  1.00  0.00    -0.241 NA
HETATM    5  C4  UNL     1      24.520  -1.495  55.883  1.00  0.00     0.236 A 
HETATM    6  N2  UNL     1      25.234  -0.896  54.882  1.00  0.00    -0.224 NA
HETATM    7  C5  UNL     1      24.594  -0.358  53.822  1.00  0.00     0.141 A 
HETATM    8  C11 UNL     1      23.222  -0.383  53.696  1.00  0.00     0.042 A 
HETATM    9  C12 UNL     1      22.598   0.146  52.616  1.00  0.00     0.057 A 
HETATM   10  C13 UNL     1      21.229   0.100  52.477  1.00  0.00     0.102 A 
ENDROOT
BRANCH   7  11
HETATM   11  N3  UNL     1      25.346   0.246  52.756  1.00  0.00    -0.343 N 
HETATM   12  H4  UNL     1      24.958   0.336  51.805  1.00  0.00     0.167 HD
BRANCH  11  13
HETATM   13  C6  UNL     1      26.674   0.712  53.081  1.00  0.00     0.017 A 
HETATM   14  C7  UNL     1      27.790  -0.033  53.058  1.00  0.00     0.067 A 
HETATM   15  C8  UNL     1      28.952   0.752  53.442  1.00  0.00     0.114 A 
HETATM   16  F1  UNL     1      30.223   0.277  53.517  1.00  0.00    -0.206 F 
HETATM   17  C9  UNL     1      28.502   1.996  53.697  1.00  0.00     0.021 A 
HETATM   18  C10 UNL     1      27.039   2.095  53.498  1.00  0.00     0.087 A 
ENDBRANCH  11  13
ENDBRANCH   7  11
BRANCH  10  19
HETATM   19  O2  UNL     1      20.328   0.517  51.559  1.00  0.00    -0.347 OA
BRANCH  19  20
HETATM   20  C14 UNL     1      20.125   1.704  50.892  1.00  0.00     0.193 C 
BRANCH  20  21
HETATM   21  C15 UNL     1      19.976   2.768  51.943  1.00  0.00     0.099 C 
BRANCH  21  22
HETATM   22  C16 UNL     1      20.816   3.788  51.988  1.00  0.00    -0.136 C 
BRANCH  22  23
HETATM   23  C17 UNL     1      21.896   4.555  52.028  1.00  0.00     0.135 C 
HETATM   24 CL1  UNL     1      23.266   3.557  52.524  1.00  0.00    -0.088 Cl
ENDBRANCH  22  23
ENDBRANCH  21  22
ENDBRANCH  20  21
ENDBRANCH  19  20
ENDBRANCH  10  19
BRANCH   1  25
HETATM   25  O1  UNL     1      19.120  -0.698  53.617  1.00  0.00    -0.358 OA
HETATM   26  H1  UNL     1      18.771  -1.562  54.045  1.00  0.00     0.217 HD
ENDBRANCH   1  25
TORSDOF 8
ENDMDL
MODEL 3
REMARK VINA RESULT:      -7.1      3.485      5.723
REMARK  8 active torsions:
REMARK  status: ('A' for Active; 'I' for Inactive)
REMARK    1  A    between atoms: O1_1  and  C1_2 
REMARK    2  A    between atoms: C5_8  and  N3_9 
REMARK    3  A    between atoms: N3_9  and  C6_10 
REMARK    4  A    between atoms: C13_18  and  O2_19 
REMARK    5  A    between atoms: O2_19  and  C14_20 
REMARK    6  A    between atoms: C14_20  and  C15_21 
REMARK    7  A    between atoms: C15_21  and  C16_22 
REMARK    8  A    between atoms: C16_22  and  C17_23 
ROOT
HETATM    1  C1  UNL     1      21.339   0.310  52.183  1.00  0.00     0.101 A 
HETATM    2  C2  UNL     1      21.402  -0.454  53.355  1.00  0.00     0.072 A 
HETATM    3  C3  UNL     1      22.619  -0.625  53.999  1.00  0.00     0.075 A 
HETATM    4  N1  UNL     1      22.701  -1.367  55.108  1.00  0.00    -0.241 NA
HETATM    5  C4  UNL     1      23.868  -1.567  55.741  1.00  0.00     0.236 A 
HETATM    6  N2  UNL     1      24.993  -0.988  55.221  1.00  0.00    -0.224 NA
HETATM    7  C5  UNL     1      24.914  -0.238  54.102  1.00  0.00     0.141 A 
HETATM    8  C11 UNL     1      23.724  -0.021  53.440  1.00  0.00     0.042 A 
HETATM    9  C12 UNL     1      23.667   0.720  52.307  1.00  0.00     0.057 A 
HETATM   10  C13 UNL     1      22.484   0.917  51.632  1.00  0.00     0.102 A 
ENDROOT
BRANCH   7  11
HETATM   11  N3  UNL     1      26.101   0.346  53.539  1.00  0.00    -0.343 N 
HETATM   12  H4  UNL     1      26.121   1.327  53.222  1.00  0.00     0.167 HD
BRANCH  11  13
HETATM   13  C6  UNL     1      27.259  -0.511  53.434  1.00  0.00     0.017 A 
HETATM   14  C7  UNL     1      28.464  -0.264  53.971  1.00  0.00     0.067 A 
HETATM   15  C8  UNL     1      29.400  -1.334  53.670  1.00  0.00     0.114 A 
HETATM   16  F1  UNL     1      30.698  -1.370  54.073  1.00  0.00    -0.206 F 
HETATM   17  C9  UNL     1      28.722  -2.236  52.935  1.00  0.00     0.021 A 
HETATM   18  C10 UNL     1      27.322  -1.814  52.715  1.00  0.00     0.087 A 
ENDBRANCH  11  13
ENDBRANCH   7  11
BRANCH  10  19
HETATM   19  O2  UNL     1      22.097   1.577  50.516  1.00  0.00    -0.347 OA
BRANCH  19  20
HETATM   20  C14 UNL     1      22.754   2.010  49.387  1.00  0.00     0.193 C 
BRANCH  20  21
HETATM   21  C15 UNL     1      23.315   3.367  49.710  1.00  0.00     0.099 C 
BRANCH  21  22
HETATM   22  C16 UNL     1      24.604   3.614  49.548  1.00  0.00    -0.136 C 
BRANCH  22  23
HETATM   23  C17 UNL     1      25.919   3.697  49.692  1.00  0.00     0.135 C 
HETATM   24 CL1  UNL     1      26.458   2.320  50.658  1.00  0.00    -0.088 Cl
ENDBRANCH  22  23
ENDBRANCH  21  22
ENDBRANCH  20  21
ENDBRANCH  19  20
ENDBRANCH  10  19
BRANCH   1  25
HETATM   25  O1  UNL     1      20.020   0.360  51.690  1.00  0.00    -0.358 OA
HETATM   26  H1  UNL     1      19.294   0.761  52.292  1.00  0.00     0.217 HD
ENDBRANCH   1  25
TORSDOF 8
ENDMDL
MODEL 4
REMARK VINA RESULT:      -7.0      3.455      5.595
REMARK  8 active torsions:
REMARK  status: ('A' for Active; 'I' for Inactive)
REMARK    1  A    between atoms: O1_1  and  C1_2 
REMARK    2  A    between atoms: C5_8  and  N3_9 
REMARK    3  A    between atoms: N3_9  and  C6_10 
REMARK    4  A    between atoms: C13_18  and  O2_19 
REMARK    5  A    between atoms: O2_19  and  C14_20 
REMARK    6  A    between atoms: C14_20  and  C15_21 
REMARK    7  A    between atoms: C15_21  and  C16_22 
REMARK    8  A    between atoms: C16_22  and  C17_23 
ROOT
HETATM    1  C1  UNL     1      22.693  -1.238  54.826  1.00  0.00     0.101 A 
HETATM    2  C2  UNL     1      21.309  -1.294  54.624  1.00  0.00     0.072 A 
HETATM    3  C3  UNL     1      20.749  -0.658  53.525  1.00  0.00     0.075 A 
HETATM    4  N1  UNL     1      19.427  -0.684  53.327  1.00  0.00    -0.241 NA
HETATM    5  C4  UNL     1      18.856  -0.061  52.284  1.00  0.00     0.236 A 
HETATM    6  N2  UNL     1      19.664   0.615  51.412  1.00  0.00    -0.224 NA
HETATM    7  C5  UNL     1      20.999   0.644  51.609  1.00  0.00     0.141 A 
HETATM    8  C11 UNL     1      21.603   0.008  52.673  1.00  0.00     0.042 A 
HETATM    9  C12 UNL     1      22.943   0.063  52.865  1.00  0.00     0.057 A 
HETATM   10  C13 UNL     1      23.545  -0.550  53.940  1.00  0.00     0.102 A 
ENDROOT
BRANCH   7  11
HETATM   11  N3  UNL     1      21.845   1.378  50.709  1.00  0.00    -0.343 N 
HETATM   12  H4  UNL     1      22.196   0.959  49.835  1.00  0.00     0.167 HD
BRANCH  11  13
HETATM   13  C6  UNL     1      22.186   2.729  51.095  1.00  0.00     0.017 A 
HETATM   14  C7  UNL     1      23.335   3.356  50.804  1.00  0.00     0.067 A 
HETATM   15  C8  UNL     1      23.346   4.705  51.346  1.00  0.00     0.114 A 
HETATM   16  F1  UNL     1      24.373   5.587  51.220  1.00  0.00    -0.206 F 
HETATM   17  C9  UNL     1      22.166   4.872  51.973  1.00  0.00     0.021 A 
HETATM   18  C10 UNL     1      21.326   3.658  51.880  1.00  0.00     0.087 A 
ENDBRANCH  11  13
ENDBRANCH   7  11
BRANCH  10  19
HETATM   19  O2  UNL     1      24.808  -0.682  54.405  1.00  0.00    -0.347 OA
BRANCH  19  20
HETATM   20  C14 UNL     1      26.053  -0.539  53.838  1.00  0.00     0.193 C 
BRANCH  20  21
HETATM   21  C15 UNL     1      26.903   0.188  54.842  1.00  0.00     0.099 C 
BRANCH  21  22
HETATM   22  C16 UNL     1      28.164   0.479  54.568  1.00  0.00    -0.136 C 
BRANCH  22  23
HETATM   23  C17 UNL     1      29.344   0.630  53.985  1.00  0.00     0.135 C 
HETATM   24 CL1  UNL     1      30.005  -0.973  53.649  1.00  0.00    -0.088 Cl
ENDBRANCH  22  23
ENDBRANCH  21  22
ENDBRANCH  20  21
ENDBRANCH  19  20
ENDBRANCH  10  19
BRANCH   1  25
HETATM   25  O1  UNL     1      23.056  -1.943  55.991  1.00  0.00    -0.358 OA
HETATM   26  H1  UNL     1      24.043  -2.195  56.114  1.00  0.00     0.217 HD
ENDBRANCH   1  25
TORSDOF 8
ENDMDL
MODEL 5
REMARK VINA RESULT:      -7.0      3.142      5.225
REMARK  8 active torsions:
REMARK  status: ('A' for Active; 'I' for Inactive)
REMARK    1  A    between atoms: O1_1  and  C1_2 
REMARK    2  A    between atoms: C5_8  and  N3_9 
REMARK    3  A    between atoms: N3_9  and  C6_10 
REMARK    4  A    between atoms: C13_18  and  O2_19 
REMARK    5  A    between atoms: O2_19  and  C14_20 
REMARK    6  A    between atoms: C14_20  and  C15_21 
REMARK    7  A    between atoms: C15_21  and  C16_22 
REMARK    8  A    between atoms: C16_22  and  C17_23 
ROOT
HETATM    1  C1  UNL     1      22.001   2.683  50.861  1.00  0.00     0.101 A 
HETATM    2  C2  UNL     1      22.997   3.101  49.970  1.00  0.00     0.072 A 
HETATM    3  C3  UNL     1      24.333   2.976  50.325  1.00  0.00     0.075 A 
HETATM    4  N1  UNL     1      25.296   3.389  49.495  1.00  0.00    -0.241 NA
HETATM    5  C4  UNL     1      26.595   3.299  49.820  1.00  0.00     0.236 A 
HETATM    6  N2  UNL     1      26.923   2.768  51.037  1.00  0.00    -0.224 NA
HETATM    7  C5  UNL     1      25.953   2.351  51.878  1.00  0.00     0.141 A 
HETATM    8  C11 UNL     1      24.614   2.434  51.560  1.00  0.00     0.042 A 
HETATM    9  C12 UNL     1      23.653   2.026  52.423  1.00  0.00     0.057 A 
HETATM   10  C13 UNL     1      22.315   2.132  52.119  1.00  0.00     0.102 A 
ENDROOT
BRANCH   7  11
HETATM   11  N3  UNL     1      26.296   1.821  53.169  1.00  0.00    -0.343 N 
HETATM   12  H4  UNL     1      25.936   2.242  54.038  1.00  0.00     0.167 HD
BRANCH  11  13
HETATM   13  C6  UNL     1      27.174   0.673  53.187  1.00  0.00     0.017 A 
HETATM   14  C7  UNL     1      28.356   0.607  53.819  1.00  0.00     0.067 A 
HETATM   15  C8  UNL     1      28.978  -0.694  53.630  1.00  0.00     0.114 A 
HETATM   16  F1  UNL     1      30.180  -1.065  54.144  1.00  0.00    -0.206 F 
HETATM   17  C9  UNL     1      28.133  -1.410  52.864  1.00  0.00     0.021 A 
HETATM   18  C10 UNL     1      26.926  -0.630  52.512  1.00  0.00     0.087 A 
ENDBRANCH  11  13
ENDBRANCH   7  11
BRANCH  10  19
HETATM   19  O2  UNL     1      21.148   1.830  52.733  1.00  0.00    -0.347 OA
BRANCH  19  20
HETATM   20  C14 UNL     1      20.501   0.651  53.024  1.00  0.00     0.193 C 
BRANCH  20  21
HETATM   21  C15 UNL     1      20.862   0.300  54.441  1.00  0.00     0.099 C 
BRANCH  21  22
HETATM   22  C16 UNL     1      21.764  -0.635  54.690  1.00  0.00    -0.136 C 
BRANCH  22  23
HETATM   23  C17 UNL     1      22.656  -1.433  55.259  1.00  0.00     0.135 C 
HETATM   24 CL1  UNL     1      24.269  -0.850  54.837  1.00  0.00    -0.088 Cl
ENDBRANCH  22  23
ENDBRANCH  21  22
ENDBRANCH  20  21
ENDBRANCH  19  20
ENDBRANCH  10  19
BRANCH   1  25
HETATM   25  O1  UNL     1      20.720   2.895  50.313  1.00  0.00    -0.358 OA
HETATM   26  H1  UNL     1      20.014   3.351  50.900  1.00  0.00     0.217 HD
ENDBRANCH   1  25
TORSDOF 8
ENDMDL
MODEL 6
REMARK VINA RESULT:      -6.8      3.862      6.609
REMARK  8 active torsions:
REMARK  status: ('A' for Active; 'I' for Inactive)
REMARK    1  A    between atoms: O1_1  and  C1_2 
REMARK    2  A    between atoms: C5_8  and  N3_9 
REMARK    3  A    between atoms: N3_9  and  C6_10 
REMARK    4  A    between atoms: C13_18  and  O2_19 
REMARK    5  A    between atoms: O2_19  and  C14_20 
REMARK    6  A    between atoms: C14_20  and  C15_21 
REMARK    7  A    between atoms: C15_21  and  C16_22 
REMARK    8  A    between atoms: C16_22  and  C17_23 
ROOT
HETATM    1  C1  UNL     1      23.706   2.534  50.734  1.00  0.00     0.101 A 
HETATM    2  C2  UNL     1      22.974   1.500  51.330  1.00  0.00     0.072 A 
HETATM    3  C3  UNL     1      23.506   0.819  52.416  1.00  0.00     0.075 A 
HETATM    4  N1  UNL     1      22.829  -0.184  52.985  1.00  0.00    -0.241 NA
HETATM    5  C4  UNL     1      23.327  -0.873  54.023  1.00  0.00     0.236 A 
HETATM    6  N2  UNL     1      24.562  -0.527  54.498  1.00  0.00    -0.224 NA
HETATM    7  C5  UNL     1      25.248   0.485  53.926  1.00  0.00     0.141 A 
HETATM    8  C11 UNL     1      24.752   1.205  52.860  1.00  0.00     0.042 A 
HETATM    9  C12 UNL     1      25.462   2.206  52.287  1.00  0.00     0.057 A 
HETATM   10  C13 UNL     1      24.979   2.909  51.207  1.00  0.00     0.102 A 
ENDROOT
BRANCH   7  11
HETATM   11  N3  UNL     1      26.558   0.829  54.405  1.00  0.00    -0.343 N 
HETATM   12  H4  UNL     1      26.716   1.661  54.993  1.00  0.00     0.167 HD
BRANCH  11  13
HETATM   13  C6  UNL     1      27.643  -0.042  54.013  1.00  0.00     0.017 A 
HETATM   14  C7  UNL     1      28.903   0.030  54.467  1.00  0.00     0.067 A 
HETATM   15  C8  UNL     1      29.736  -0.999  53.864  1.00  0.00     0.114 A 
HETATM   16  F1  UNL     1      31.058  -1.180  54.121  1.00  0.00    -0.206 F 
HETATM   17  C9  UNL     1      28.937  -1.694  53.033  1.00  0.00     0.021 A 
HETATM   18  C10 UNL     1      27.555  -1.167  53.042  1.00  0.00     0.087 A 
ENDBRANCH  11  13
ENDBRANCH   7  11
BRANCH  10  19
HETATM   19  O2  UNL     1      25.418   3.926  50.431  1.00  0.00    -0.347 OA
BRANCH  19  20
HETATM   20  C14 UNL     1      26.513   4.100  49.616  1.00  0.00     0.193 C 
BRANCH  20  21
HETATM   21  C15 UNL     1      26.295   5.388  48.871  1.00  0.00     0.099 C 
BRANCH  21  22
HETATM   22  C16 UNL     1      27.325   6.125  48.492  1.00  0.00    -0.136 C 
BRANCH  22  23
HETATM   23  C17 UNL     1      28.532   6.570  48.176  1.00  0.00     0.135 C 
HETATM   24 CL1  UNL     1      29.616   5.182  48.040  1.00  0.00    -0.088 Cl
ENDBRANCH  22  23
ENDBRANCH  21  22
ENDBRANCH  20  21
ENDBRANCH  19  20
ENDBRANCH  10  19
BRANCH   1  25
HETATM   25  O1  UNL     1      22.994   3.093  49.655  1.00  0.00    -0.358 OA
HETATM   26  H1  UNL     1      22.052   2.737  49.462  1.00  0.00     0.217 HD
ENDBRANCH   1  25
TORSDOF 8
ENDMDL
MODEL 7
REMARK VINA RESULT:      -6.8      3.542      6.017
REMARK  8 active torsions:
REMARK  status: ('A' for Active; 'I' for Inactive)
REMARK    1  A    between atoms: O1_1  and  C1_2 
REMARK    2  A    between atoms: C5_8  and  N3_9 
REMARK    3  A    between atoms: N3_9  and  C6_10 
REMARK    4  A    between atoms: C13_18  and  O2_19 
REMARK    5  A    between atoms: O2_19  and  C14_20 
REMARK    6  A    between atoms: C14_20  and  C15_21 
REMARK    7  A    between atoms: C15_21  and  C16_22 
REMARK    8  A    between atoms: C16_22  and  C17_23 
ROOT
HETATM    1  C1  UNL     1      27.647   2.162  52.842  1.00  0.00     0.101 A 
HETATM    2  C2  UNL     1      27.565   1.448  54.043  1.00  0.00     0.072 A 
HETATM    3  C3  UNL     1      26.502   0.581  54.257  1.00  0.00     0.075 A 
HETATM    4  N1  UNL     1      26.398  -0.094  55.406  1.00  0.00    -0.241 NA
HETATM    5  C4  UNL     1      25.371  -0.923  55.648  1.00  0.00     0.236 A 
HETATM    6  N2  UNL     1      24.414  -1.069  54.681  1.00  0.00    -0.224 NA
HETATM    7  C5  UNL     1      24.516  -0.389  53.520  1.00  0.00     0.141 A 
HETATM    8  C11 UNL     1      25.565   0.466  53.253  1.00  0.00     0.042 A 
HETATM    9  C12 UNL     1      25.642   1.154  52.089  1.00  0.00     0.057 A 
HETATM   10  C13 UNL     1      26.675   2.026  51.831  1.00  0.00     0.102 A 
ENDROOT
BRANCH   7  11
HETATM   11  N3  UNL     1      23.496  -0.518  52.516  1.00  0.00    -0.343 N 
HETATM   12  H4  UNL     1      23.653  -1.062  51.655  1.00  0.00     0.167 HD
BRANCH  11  13
HETATM   13  C6  UNL     1      22.245   0.159  52.771  1.00  0.00     0.017 A 
HETATM   14  C7  UNL     1      21.987   1.448  52.504  1.00  0.00     0.067 A 
HETATM   15  C8  UNL     1      20.630   1.800  52.887  1.00  0.00     0.114 A 
HETATM   16  F1  UNL     1      20.076   3.033  52.744  1.00  0.00    -0.206 F 
HETATM   17  C9  UNL     1      20.076   0.682  53.394  1.00  0.00     0.021 A 
HETATM   18  C10 UNL     1      21.027  -0.451  53.372  1.00  0.00     0.087 A 
ENDBRANCH  11  13
ENDBRANCH   7  11
BRANCH  10  19
HETATM   19  O2  UNL     1      27.035   2.837  50.810  1.00  0.00    -0.347 OA
BRANCH  19  20
HETATM   20  C14 UNL     1      26.542   3.051  49.543  1.00  0.00     0.193 C 
BRANCH  20  21
HETATM   21  C15 UNL     1      26.694   4.520  49.265  1.00  0.00     0.099 C 
BRANCH  21  22
HETATM   22  C16 UNL     1      27.756   4.974  48.620  1.00  0.00    -0.136 C 
BRANCH  22  23
HETATM   23  C17 UNL     1      28.879   5.588  48.278  1.00  0.00     0.135 C 
HETATM   24 CL1  UNL     1      28.590   7.330  48.309  1.00  0.00    -0.088 Cl
ENDBRANCH  22  23
ENDBRANCH  21  22
ENDBRANCH  20  21
ENDBRANCH  19  20
ENDBRANCH  10  19
BRANCH   1  25
HETATM   25  O1  UNL     1      28.793   2.980  52.824  1.00  0.00    -0.358 OA
HETATM   26  H1  UNL     1      29.268   3.165  53.714  1.00  0.00     0.217 HD
ENDBRANCH   1  25
TORSDOF 8
ENDMDL
MODEL 8
REMARK VINA RESULT:      -6.8      3.196      5.340
REMARK  8 active torsions:
REMARK  status: ('A' for Active; 'I' for Inactive)
REMARK    1  A    between atoms: O1_1  and  C1_2 
REMARK    2  A    between atoms: C5_8  and  N3_9 
REMARK    3  A    between atoms: N3_9  and  C6_10 
REMARK    4  A    between atoms: C13_18  and  O2_19 
REMARK    5  A    between atoms: O2_19  and  C14_20 
REMARK    6  A    between atoms: C14_20  and  C15_21 
REMARK    7  A    between atoms: C15_21  and  C16_22 
REMARK    8  A    between atoms: C16_22  and  C17_23 
ROOT
HETATM    1  C1  UNL     1      27.720   2.225  52.872  1.00  0.00     0.101 A 
HETATM    2  C2  UNL     1      27.688   1.474  54.053  1.00  0.00     0.072 A 
HETATM    3  C3  UNL     1      26.631   0.606  54.287  1.00  0.00     0.075 A 
HETATM    4  N1  UNL     1      26.575  -0.103  55.419  1.00  0.00    -0.241 NA
HETATM    5  C4  UNL     1      25.555  -0.936  55.682  1.00  0.00     0.236 A 
HETATM    6  N2  UNL     1      24.556  -1.048  54.754  1.00  0.00    -0.224 NA
HETATM    7  C5  UNL     1      24.610  -0.333  53.610  1.00  0.00     0.141 A 
HETATM    8  C11 UNL     1      25.650   0.525  53.323  1.00  0.00     0.042 A 
HETATM    9  C12 UNL     1      25.679   1.248  52.178  1.00  0.00     0.057 A 
HETATM   10  C13 UNL     1      26.704   2.124  51.902  1.00  0.00     0.102 A 
ENDROOT
BRANCH   7  11
HETATM   11  N3  UNL     1      23.546  -0.428  52.649  1.00  0.00    -0.343 N 
HETATM   12  H4  UNL     1      23.675  -0.907  51.746  1.00  0.00     0.167 HD
BRANCH  11  13
HETATM   13  C6  UNL     1      22.289   0.189  53.009  1.00  0.00     0.017 A 
HETATM   14  C7  UNL     1      21.723   1.231  52.380  1.00  0.00     0.067 A 
HETATM   15  C8  UNL     1      20.462   1.597  53.005  1.00  0.00     0.114 A 
HETATM   16  F1  UNL     1      19.658   2.613  52.597  1.00  0.00    -0.206 F 
HETATM   17  C9  UNL     1      20.284   0.742  54.030  1.00  0.00     0.021 A 
HETATM   18  C10 UNL     1      21.404  -0.219  54.135  1.00  0.00     0.087 A 
ENDBRANCH  11  13
ENDBRANCH   7  11
BRANCH  10  19
HETATM   19  O2  UNL     1      27.022   2.964  50.890  1.00  0.00    -0.347 OA
BRANCH  19  20
HETATM   20  C14 UNL     1      26.583   3.106  49.594  1.00  0.00     0.193 C 
BRANCH  20  21
HETATM   21  C15 UNL     1      25.301   3.888  49.657  1.00  0.00     0.099 C 
BRANCH  21  22
HETATM   22  C16 UNL     1      24.154   3.323  49.322  1.00  0.00    -0.136 C 
BRANCH  22  23
HETATM   23  C17 UNL     1      22.921   2.836  49.315  1.00  0.00     0.135 C 
HETATM   24 CL1  UNL     1      22.610   2.137  47.723  1.00  0.00    -0.088 Cl
ENDBRANCH  22  23
ENDBRANCH  21  22
ENDBRANCH  20  21
ENDBRANCH  19  20
ENDBRANCH  10  19
BRANCH   1  25
HETATM   25  O1  UNL     1      28.869   3.039  52.828  1.00  0.00    -0.358 OA
HETATM   26  H1  UNL     1      29.279   3.344  53.717  1.00  0.00     0.217 HD
ENDBRANCH   1  25
TORSDOF 8
ENDMDL
MODEL 9
REMARK VINA RESULT:      -6.8      2.558      4.749
REMARK  8 active torsions:
REMARK  status: ('A' for Active; 'I' for Inactive)
REMARK    1  A    between atoms: O1_1  and  C1_2 
REMARK    2  A    between atoms: C5_8  and  N3_9 
REMARK    3  A    between atoms: N3_9  and  C6_10 
REMARK    4  A    between atoms: C13_18  and  O2_19 
REMARK    5  A    between atoms: O2_19  and  C14_20 
REMARK    6  A    between atoms: C14_20  and  C15_21 
REMARK    7  A    between atoms: C15_21  and  C16_22 
REMARK    8  A    between atoms: C16_22  and  C17_23 
ROOT
HETATM    1  C1  UNL     1      22.629  -0.154  52.932  1.00  0.00     0.101 A 
HETATM    2  C2  UNL     1      21.630   0.497  52.198  1.00  0.00     0.072 A 
HETATM    3  C3  UNL     1      21.863   1.772  51.702  1.00  0.00     0.075 A 
HETATM    4  N1  UNL     1      20.913   2.416  51.016  1.00  0.00    -0.241 NA
HETATM    5  C4  UNL     1      21.102   3.658  50.542  1.00  0.00     0.236 A 
HETATM    6  N2  UNL     1      22.305   4.264  50.777  1.00  0.00    -0.224 NA
HETATM    7  C5  UNL     1      23.266   3.617  51.470  1.00  0.00     0.141 A 
HETATM    8  C11 UNL     1      23.090   2.341  51.963  1.00  0.00     0.042 A 
HETATM    9  C12 UNL     1      24.059   1.714  52.671  1.00  0.00     0.057 A 
HETATM   10  C13 UNL     1      23.876   0.451  53.185  1.00  0.00     0.102 A 
ENDROOT
BRANCH   7  11
HETATM   11  N3  UNL     1      24.520   4.265  51.743  1.00  0.00    -0.343 N 
HETATM   12  H4  UNL     1      24.758   4.604  52.686  1.00  0.00     0.167 HD
BRANCH  11  13
HETATM   13  C6  UNL     1      25.425   4.425  50.627  1.00  0.00     0.017 A 
HETATM   14  C7  UNL     1      25.548   5.529  49.875  1.00  0.00     0.067 A 
HETATM   15  C8  UNL     1      26.550   5.346  48.838  1.00  0.00     0.114 A 
HETATM   16  F1  UNL     1      26.898   6.284  47.918  1.00  0.00    -0.206 F 
HETATM   17  C9  UNL     1      27.028   4.096  48.988  1.00  0.00     0.021 A 
HETATM   18  C10 UNL     1      26.374   3.398  50.116  1.00  0.00     0.087 A 
ENDBRANCH  11  13
ENDBRANCH   7  11
BRANCH  10  19
HETATM   19  O2  UNL     1      24.612  -0.424  53.909  1.00  0.00    -0.347 OA
BRANCH  19  20
HETATM   20  C14 UNL     1      25.930  -0.819  53.875  1.00  0.00     0.193 C 
BRANCH  20  21
HETATM   21  C15 UNL     1      26.674   0.080  54.823  1.00  0.00     0.099 C 
BRANCH  21  22
HETATM   22  C16 UNL     1      27.985   0.223  54.722  1.00  0.00    -0.136 C 
BRANCH  22  23
HETATM   23  C17 UNL     1      29.208   0.587  54.368  1.00  0.00     0.135 C 
HETATM   24 CL1  UNL     1      29.909  -0.705  53.388  1.00  0.00    -0.088 Cl
ENDBRANCH  22  23
ENDBRANCH  21  22
ENDBRANCH  20  21
ENDBRANCH  19  20
ENDBRANCH  10  19
BRANCH   1  25
HETATM   25  O1  UNL     1      22.196  -1.430  53.343  1.00  0.00    -0.358 OA
HETATM   26  H1  UNL     1      21.188  -1.618  53.350  1.00  0.00     0.217 HD
ENDBRANCH   1  25
TORSDOF 8
ENDMDL
