MODEL 1
REMARK VINA RESULT:      -7.5      0.000      0.000
REMARK  7 active torsions:
REMARK  status: ('A' for Active; 'I' for Inactive)
REMARK    1  A    between atoms: C2_2  and  C3_4 
REMARK    2  A    between atoms: C4_5  and  C5_6 
REMARK    3  A    between atoms: C6_7  and  C7_8 
REMARK    4  A    between atoms: C7_8  and  O1_9 
REMARK    5  A    between atoms: O1_9  and  C8_10 
REMARK    6  A    between atoms: C11_13  and  N1_14 
REMARK    7  A    between atoms: N1_14  and  C12_15 
ROOT
HETATM    1  C8  UNL     1      23.929   3.015  51.805  1.00  0.00     0.090 A 
HETATM    2  C9  UNL     1      24.194   2.524  53.064  1.00  0.00     0.041 A 
HETATM    3  C10 UNL     1      25.424   2.036  53.439  1.00  0.00     0.032 A 
HETATM    4  C11 UNL     1      26.496   1.999  52.582  1.00  0.00     0.032 A 
HETATM    5  C16 UNL     1      26.267   2.481  51.319  1.00  0.00     0.056 A 
HETATM    6  C17 UNL     1      25.021   2.982  50.918  1.00  0.00     0.069 A 
HETATM    7 CL1  UNL     1      25.008   3.536  49.239  1.00  0.00    -0.081 Cl
ENDROOT
BRANCH   1   8
HETATM    8  O1  UNL     1      22.867   3.543  51.163  1.00  0.00    -0.346 OA
BRANCH   8   9
HETATM    9  C7  UNL     1      21.670   2.859  50.935  1.00  0.00     0.203 C 
BRANCH   9  10
HETATM   10  C6  UNL     1      21.934   1.454  50.539  1.00  0.00    -0.000 C 
HETATM   11  C5  UNL     1      21.444   0.446  51.278  1.00  0.00    -0.002 C 
BRANCH  11  12
HETATM   12  C4  UNL     1      20.646   0.606  52.485  1.00  0.00     0.003 C 
HETATM   13  C3  UNL     1      21.065   0.160  53.648  1.00  0.00     0.041 C 
BRANCH  13  14
HETATM   14  C2  UNL     1      22.308  -0.533  53.973  1.00  0.00     0.107 C 
HETATM   15  C1  UNL     1      22.875  -1.203  54.982  1.00  0.00     0.056 C 
HETATM   16  F1  UNL     1      23.478  -0.801  53.355  1.00  0.00    -0.207 F 
ENDBRANCH  13  14
ENDBRANCH  11  12
ENDBRANCH   9  10
ENDBRANCH   8   9
ENDBRANCH   1   8
BRANCH   4  17
HETATM   17  N1  UNL     1      27.769   1.502  52.965  1.00  0.00    -0.354 N 
HETATM   18  H11 UNL     1      28.606   1.857  52.447  1.00  0.00     0.162 HD
BRANCH  17  19
HETATM   19  C12 UNL     1      27.735   0.467  54.141  1.00  0.00     0.217 A 
HETATM   20  N2  UNL     1      28.788   0.996  54.992  1.00  0.00    -0.245 NA
HETATM   21  C13 UNL     1      29.086  -0.168  54.419  1.00  0.00     0.247 A 
HETATM   22  N3  UNL     1      28.977  -1.352  53.638  1.00  0.00    -0.251 NA
HETATM   23  C14 UNL     1      27.783  -0.864  53.387  1.00  0.00     0.061 A 
HETATM   24  C15 UNL     1      26.715  -1.468  52.558  1.00  0.00     0.070 C 
ENDBRANCH  17  19
ENDBRANCH   4  17
TORSDOF 7
ENDMDL
MODEL 2
REMARK VINA RESULT:      -7.3      2.584      4.155
REMARK  7 active torsions:
REMARK  status: ('A' for Active; 'I' for Inactive)
REMARK    1  A    between atoms: C2_2  and  C3_4 
REMARK    2  A    between atoms: C4_5  and  C5_6 
REMARK    3  A    between atoms: C6_7  and  C7_8 
REMARK    4  A    between atoms: C7_8  and  O1_9 
REMARK    5  A    between atoms: O1_9  and  C8_10 
REMARK    6  A    between atoms: C11_13  and  N1_14 
REMARK    7  A    between atoms: N1_14  and  C12_15 
ROOT
HETATM    1  C8  UNL     1      22.961   2.391  52.376  1.00  0.00     0.090 A 
HETATM    2  C9  UNL     1      24.070   3.064  52.836  1.00  0.00     0.041 A 
HETATM    3  C10 UNL     1      25.156   2.433  53.397  1.00  0.00     0.032 A 
HETATM    4  C11 UNL     1      25.223   1.069  53.543  1.00  0.00     0.032 A 
HETATM    5  C16 UNL     1      24.134   0.367  53.094  1.00  0.00     0.056 A 
HETATM    6  C17 UNL     1      23.018   0.992  52.520  1.00  0.00     0.069 A 
HETATM    7 CL1  UNL     1      21.762  -0.152  52.031  1.00  0.00    -0.081 Cl
ENDROOT
BRANCH   1   8
HETATM    8  O1  UNL     1      21.787   2.718  51.798  1.00  0.00    -0.346 OA
BRANCH   8   9
HETATM    9  C7  UNL     1      21.672   3.472  50.628  1.00  0.00     0.203 C 
BRANCH   9  10
HETATM   10  C6  UNL     1      22.345   2.792  49.495  1.00  0.00    -0.000 C 
HETATM   11  C5  UNL     1      23.308   3.427  48.809  1.00  0.00    -0.002 C 
BRANCH  11  12
HETATM   12  C4  UNL     1      23.776   4.778  49.081  1.00  0.00     0.003 C 
HETATM   13  C3  UNL     1      25.040   5.027  49.342  1.00  0.00     0.041 C 
BRANCH  13  14
HETATM   14  C2  UNL     1      26.164   4.098  49.413  1.00  0.00     0.107 C 
HETATM   15  C1  UNL     1      26.576   3.038  50.116  1.00  0.00     0.056 C 
HETATM   16  F1  UNL     1      27.330   3.908  48.758  1.00  0.00    -0.207 F 
ENDBRANCH  13  14
ENDBRANCH  11  12
ENDBRANCH   9  10
ENDBRANCH   8   9
ENDBRANCH   1   8
BRANCH   4  17
HETATM   17  N1  UNL     1      26.343   0.412  54.114  1.00  0.00    -0.354 N 
HETATM   18  H11 UNL     1      26.313   0.199  55.139  1.00  0.00     0.162 HD
BRANCH  17  19
HETATM   19  C12 UNL     1      27.494   0.089  53.100  1.00  0.00     0.217 A 
HETATM   20  N2  UNL     1      27.475  -1.363  53.128  1.00  0.00    -0.245 NA
HETATM   21  C13 UNL     1      28.562  -0.824  53.676  1.00  0.00     0.247 A 
HETATM   22  N3  UNL     1      29.503   0.140  54.132  1.00  0.00    -0.251 NA
HETATM   23  C14 UNL     1      28.627   0.976  53.622  1.00  0.00     0.061 A 
HETATM   24  C15 UNL     1      28.715   2.453  53.562  1.00  0.00     0.070 C 
ENDBRANCH  17  19
ENDBRANCH   4  17
TORSDOF 7
ENDMDL
MODEL 3
REMARK VINA RESULT:      -6.9      2.691      4.115
REMARK  7 active torsions:
REMARK  status: ('A' for Active; 'I' for Inactive)
REMARK    1  A    between atoms: C2_2  and  C3_4 
REMARK    2  A    between atoms: C4_5  and  C5_6 
REMARK    3  A    between atoms: C6_7  and  C7_8 
REMARK    4  A    between atoms: C7_8  and  O1_9 
REMARK    5  A    between atoms: O1_9  and  C8_10 
REMARK    6  A    between atoms: C11_13  and  N1_14 
REMARK    7  A    between atoms: N1_14  and  C12_15 
ROOT
HETATM    1  C8  UNL     1      22.697   0.237  52.975  1.00  0.00     0.090 A 
HETATM    2  C9  UNL     1      23.785   0.860  52.408  1.00  0.00     0.041 A 
HETATM    3  C10 UNL     1      25.077   0.654  52.833  1.00  0.00     0.032 A 
HETATM    4  C11 UNL     1      25.388  -0.198  53.864  1.00  0.00     0.032 A 
HETATM    5  C16 UNL     1      24.326  -0.836  54.451  1.00  0.00     0.056 A 
HETATM    6  C17 UNL     1      23.003  -0.639  54.032  1.00  0.00     0.069 A 
HETATM    7 CL1  UNL     1      21.836  -1.588  54.964  1.00  0.00    -0.081 Cl
ENDROOT
BRANCH   1   8
HETATM    8  O1  UNL     1      21.361   0.233  52.784  1.00  0.00    -0.346 OA
BRANCH   8   9
HETATM    9  C7  UNL     1      20.538   1.345  52.980  1.00  0.00     0.203 C 
BRANCH   9  10
HETATM   10  C6  UNL     1      20.142   1.941  51.681  1.00  0.00    -0.000 C 
HETATM   11  C5  UNL     1      20.651   3.125  51.304  1.00  0.00    -0.002 C 
BRANCH  11  12
HETATM   12  C4  UNL     1      21.595   3.915  52.082  1.00  0.00     0.003 C 
HETATM   13  C3  UNL     1      22.777   4.236  51.606  1.00  0.00     0.041 C 
BRANCH  13  14
HETATM   14  C2  UNL     1      23.366   3.909  50.311  1.00  0.00     0.107 C 
HETATM   15  C1  UNL     1      23.456   4.402  49.071  1.00  0.00     0.056 C 
HETATM   16  F1  UNL     1      24.110   2.910  49.790  1.00  0.00    -0.207 F 
ENDBRANCH  13  14
ENDBRANCH  11  12
ENDBRANCH   9  10
ENDBRANCH   8   9
ENDBRANCH   1   8
BRANCH   4  17
HETATM   17  N1  UNL     1      26.719  -0.419  54.303  1.00  0.00    -0.354 N 
HETATM   18  H11 UNL     1      26.881  -0.536  55.331  1.00  0.00     0.162 HD
BRANCH  17  19
HETATM   19  C12 UNL     1      27.784  -0.460  53.154  1.00  0.00     0.217 A 
HETATM   20  N2  UNL     1      28.126  -1.872  53.156  1.00  0.00    -0.245 NA
HETATM   21  C13 UNL     1      29.104  -1.076  53.581  1.00  0.00     0.247 A 
HETATM   22  N3  UNL     1      29.828   0.095  53.940  1.00  0.00    -0.251 NA
HETATM   23  C14 UNL     1      28.718   0.684  53.553  1.00  0.00     0.061 A 
HETATM   24  C15 UNL     1      28.433   2.136  53.511  1.00  0.00     0.070 C 
ENDBRANCH  17  19
ENDBRANCH   4  17
TORSDOF 7
ENDMDL
MODEL 4
REMARK VINA RESULT:      -6.9      1.624      2.088
REMARK  7 active torsions:
REMARK  status: ('A' for Active; 'I' for Inactive)
REMARK    1  A    between atoms: C2_2  and  C3_4 
REMARK    2  A    between atoms: C4_5  and  C5_6 
REMARK    3  A    between atoms: C6_7  and  C7_8 
REMARK    4  A    between atoms: C7_8  and  O1_9 
REMARK    5  A    between atoms: O1_9  and  C8_10 
REMARK    6  A    between atoms: C11_13  and  N1_14 
REMARK    7  A    between atoms: N1_14  and  C12_15 
ROOT
HETATM    1  C8  UNL     1      23.918   3.093  51.803  1.00  0.00     0.090 A 
HETATM    2  C9  UNL     1      24.181   2.615  53.067  1.00  0.00     0.041 A 
HETATM    3  C10 UNL     1      25.400   2.095  53.438  1.00  0.00     0.032 A 
HETATM    4  C11 UNL     1      26.460   2.011  52.571  1.00  0.00     0.032 A 
HETATM    5  C16 UNL     1      26.233   2.479  51.302  1.00  0.00     0.056 A 
HETATM    6  C17 UNL     1      24.999   3.012  50.905  1.00  0.00     0.069 A 
HETATM    7 CL1  UNL     1      24.986   3.538  49.217  1.00  0.00    -0.081 Cl
ENDROOT
BRANCH   1   8
HETATM    8  O1  UNL     1      22.866   3.642  51.163  1.00  0.00    -0.346 OA
BRANCH   8   9
HETATM    9  C7  UNL     1      21.605   3.046  51.071  1.00  0.00     0.203 C 
BRANCH   9  10
HETATM   10  C6  UNL     1      21.624   1.924  50.101  1.00  0.00    -0.000 C 
HETATM   11  C5  UNL     1      21.441   0.665  50.531  1.00  0.00    -0.002 C 
BRANCH  11  12
HETATM   12  C4  UNL     1      21.219   0.278  51.916  1.00  0.00     0.003 C 
HETATM   13  C3  UNL     1      20.016  -0.007  52.364  1.00  0.00     0.041 C 
BRANCH  13  14
HETATM   14  C2  UNL     1      18.744  -0.004  51.648  1.00  0.00     0.107 C 
HETATM   15  C1  UNL     1      17.458   0.305  51.843  1.00  0.00     0.056 C 
HETATM   16  F1  UNL     1      18.307  -0.334  50.413  1.00  0.00    -0.207 F 
ENDBRANCH  13  14
ENDBRANCH  11  12
ENDBRANCH   9  10
ENDBRANCH   8   9
ENDBRANCH   1   8
BRANCH   4  17
HETATM   17  N1  UNL     1      27.722   1.482  52.949  1.00  0.00    -0.354 N 
HETATM   18  H11 UNL     1      28.568   1.828  52.440  1.00  0.00     0.162 HD
BRANCH  17  19
HETATM   19  C12 UNL     1      27.662   0.426  54.106  1.00  0.00     0.217 A 
HETATM   20  N2  UNL     1      28.674   0.957  55.004  1.00  0.00    -0.245 NA
HETATM   21  C13 UNL     1      29.012  -0.192  54.424  1.00  0.00     0.247 A 
HETATM   22  N3  UNL     1      28.953  -1.364  53.620  1.00  0.00    -0.251 NA
HETATM   23  C14 UNL     1      27.761  -0.891  53.333  1.00  0.00     0.061 A 
HETATM   24  C15 UNL     1      26.734  -1.498  52.455  1.00  0.00     0.070 C 
ENDBRANCH  17  19
ENDBRANCH   4  17
TORSDOF 7
ENDMDL
MODEL 5
REMARK VINA RESULT:      -6.6      3.495      4.213
REMARK  7 active torsions:
REMARK  status: ('A' for Active; 'I' for Inactive)
REMARK    1  A    between atoms: C2_2  and  C3_4 
REMARK    2  A    between atoms: C4_5  and  C5_6 
REMARK    3  A    between atoms: C6_7  and  C7_8 
REMARK    4  A    between atoms: C7_8  and  O1_9 
REMARK    5  A    between atoms: O1_9  and  C8_10 
REMARK    6  A    between atoms: C11_13  and  N1_14 
REMARK    7  A    between atoms: N1_14  and  C12_15 
ROOT
HETATM    1  C8  UNL     1      22.950   0.740  53.001  1.00  0.00     0.090 A 
HETATM    2  C9  UNL     1      23.729   1.447  52.113  1.00  0.00     0.041 A 
HETATM    3  C10 UNL     1      25.083   1.245  51.972  1.00  0.00     0.032 A 
HETATM    4  C11 UNL     1      25.771   0.314  52.709  1.00  0.00     0.032 A 
HETATM    5  C16 UNL     1      25.024  -0.409  53.604  1.00  0.00     0.056 A 
HETATM    6  C17 UNL     1      23.645  -0.218  53.762  1.00  0.00     0.069 A 
HETATM    7 CL1  UNL     1      22.937  -1.285  54.982  1.00  0.00    -0.081 Cl
ENDROOT
BRANCH   1   8
HETATM    8  O1  UNL     1      21.648   0.710  53.354  1.00  0.00    -0.346 OA
BRANCH   8   9
HETATM    9  C7  UNL     1      20.639   0.131  52.579  1.00  0.00     0.203 C 
BRANCH   9  10
HETATM   10  C6  UNL     1      19.716  -0.663  53.425  1.00  0.00    -0.000 C 
HETATM   11  C5  UNL     1      18.446  -0.855  53.033  1.00  0.00    -0.002 C 
BRANCH  11  12
HETATM   12  C4  UNL     1      17.863  -0.336  51.805  1.00  0.00     0.003 C 
HETATM   13  C3  UNL     1      16.681  -0.731  51.387  1.00  0.00     0.041 C 
BRANCH  13  14
HETATM   14  C2  UNL     1      15.763  -1.688  51.997  1.00  0.00     0.107 C 
HETATM   15  C1  UNL     1      14.462  -1.831  52.269  1.00  0.00     0.056 C 
HETATM   16  F1  UNL     1      15.849  -2.904  52.578  1.00  0.00    -0.207 F 
ENDBRANCH  13  14
ENDBRANCH  11  12
ENDBRANCH   9  10
ENDBRANCH   8   9
ENDBRANCH   1   8
BRANCH   4  17
HETATM   17  N1  UNL     1      27.165   0.097  52.564  1.00  0.00    -0.354 N 
HETATM   18  H11 UNL     1      27.559   0.086  51.594  1.00  0.00     0.162 HD
BRANCH  17  19
HETATM   19  C12 UNL     1      27.937  -0.100  53.914  1.00  0.00     0.217 A 
HETATM   20  N2  UNL     1      28.117   1.283  54.322  1.00  0.00    -0.245 NA
HETATM   21  C13 UNL     1      29.245   0.668  53.974  1.00  0.00     0.247 A 
HETATM   22  N3  UNL     1      30.152  -0.338  53.540  1.00  0.00    -0.251 NA
HETATM   23  C14 UNL     1      29.054  -1.059  53.499  1.00  0.00     0.061 A 
HETATM   24  C15 UNL     1      28.924  -2.488  53.132  1.00  0.00     0.070 C 
ENDBRANCH  17  19
ENDBRANCH   4  17
TORSDOF 7
ENDMDL
MODEL 6
REMARK VINA RESULT:      -6.6      4.091      6.360
REMARK  7 active torsions:
REMARK  status: ('A' for Active; 'I' for Inactive)
REMARK    1  A    between atoms: C2_2  and  C3_4 
REMARK    2  A    between atoms: C4_5  and  C5_6 
REMARK    3  A    between atoms: C6_7  and  C7_8 
REMARK    4  A    between atoms: C7_8  and  O1_9 
REMARK    5  A    between atoms: O1_9  and  C8_10 
REMARK    6  A    between atoms: C11_13  and  N1_14 
REMARK    7  A    between atoms: N1_14  and  C12_15 
ROOT
HETATM    1  C8  UNL     1      25.203   2.877  51.533  1.00  0.00     0.090 A 
HETATM    2  C9  UNL     1      26.225   2.721  50.624  1.00  0.00     0.041 A 
HETATM    3  C10 UNL     1      26.504   3.639  49.638  1.00  0.00     0.032 A 
HETATM    4  C11 UNL     1      25.779   4.794  49.480  1.00  0.00     0.032 A 
HETATM    5  C16 UNL     1      24.752   4.981  50.369  1.00  0.00     0.056 A 
HETATM    6  C17 UNL     1      24.453   4.058  51.380  1.00  0.00     0.069 A 
HETATM    7 CL1  UNL     1      23.082   4.552  52.381  1.00  0.00    -0.081 Cl
ENDROOT
BRANCH   1   8
HETATM    8  O1  UNL     1      24.704   2.181  52.575  1.00  0.00    -0.346 OA
BRANCH   8   9
HETATM    9  C7  UNL     1      24.154   0.901  52.470  1.00  0.00     0.203 C 
BRANCH   9  10
HETATM   10  C6  UNL     1      24.464   0.095  53.676  1.00  0.00    -0.000 C 
HETATM   11  C5  UNL     1      25.564  -0.676  53.701  1.00  0.00    -0.002 C 
BRANCH  11  12
HETATM   12  C4  UNL     1      26.521  -0.803  52.612  1.00  0.00     0.003 C 
HETATM   13  C3  UNL     1      27.631  -0.099  52.589  1.00  0.00     0.041 C 
BRANCH  13  14
HETATM   14  C2  UNL     1      28.118   0.880  53.557  1.00  0.00     0.107 C 
HETATM   15  C1  UNL     1      28.378   2.189  53.650  1.00  0.00     0.056 C 
HETATM   16  F1  UNL     1      28.538   0.874  54.840  1.00  0.00    -0.207 F 
ENDBRANCH  13  14
ENDBRANCH  11  12
ENDBRANCH   9  10
ENDBRANCH   8   9
ENDBRANCH   1   8
BRANCH   4  17
HETATM   17  N1  UNL     1      26.065   5.747  48.468  1.00  0.00    -0.354 N 
HETATM   18  H11 UNL     1      25.644   5.595  47.522  1.00  0.00     0.162 HD
BRANCH  17  19
HETATM   19  C12 UNL     1      26.994   6.923  48.928  1.00  0.00     0.217 A 
HETATM   20  N2  UNL     1      26.081   8.048  48.807  1.00  0.00    -0.245 NA
HETATM   21  C13 UNL     1      27.073   8.055  47.918  1.00  0.00     0.247 A 
HETATM   22  N3  UNL     1      28.241   7.676  47.201  1.00  0.00    -0.251 NA
HETATM   23  C14 UNL     1      28.239   6.690  48.069  1.00  0.00     0.061 A 
HETATM   24  C15 UNL     1      29.227   5.594  48.194  1.00  0.00     0.070 C 
ENDBRANCH  17  19
ENDBRANCH   4  17
TORSDOF 7
ENDMDL
MODEL 7
REMARK VINA RESULT:      -6.5      2.954      4.503
REMARK  7 active torsions:
REMARK  status: ('A' for Active; 'I' for Inactive)
REMARK    1  A    between atoms: C2_2  and  C3_4 
REMARK    2  A    between atoms: C4_5  and  C5_6 
REMARK    3  A    between atoms: C6_7  and  C7_8 
REMARK    4  A    between atoms: C7_8  and  O1_9 
REMARK    5  A    between atoms: O1_9  and  C8_10 
REMARK    6  A    between atoms: C11_13  and  N1_14 
REMARK    7  A    between atoms: N1_14  and  C12_15 
ROOT
HETATM    1  C8  UNL     1      23.023   2.001  52.674  1.00  0.00     0.090 A 
HETATM    2  C9  UNL     1      24.153   2.731  52.966  1.00  0.00     0.041 A 
HETATM    3  C10 UNL     1      25.307   2.168  53.461  1.00  0.00     0.032 A 
HETATM    4  C11 UNL     1      25.426   0.822  53.704  1.00  0.00     0.032 A 
HETATM    5  C16 UNL     1      24.318   0.065  53.424  1.00  0.00     0.056 A 
HETATM    6  C17 UNL     1      23.134   0.620  52.920  1.00  0.00     0.069 A 
HETATM    7 CL1  UNL     1      21.868  -0.585  52.650  1.00  0.00    -0.081 Cl
ENDROOT
BRANCH   1   8
HETATM    8  O1  UNL     1      21.788   2.257  52.195  1.00  0.00    -0.346 OA
BRANCH   8   9
HETATM    9  C7  UNL     1      21.535   2.999  51.039  1.00  0.00     0.203 C 
BRANCH   9  10
HETATM   10  C6  UNL     1      21.739   2.171  49.826  1.00  0.00    -0.000 C 
HETATM   11  C5  UNL     1      22.806   2.386  49.040  1.00  0.00    -0.002 C 
BRANCH  11  12
HETATM   12  C4  UNL     1      23.826   3.399  49.273  1.00  0.00     0.003 C 
HETATM   13  C3  UNL     1      23.703   4.617  48.795  1.00  0.00     0.041 C 
BRANCH  13  14
HETATM   14  C2  UNL     1      22.621   5.187  47.997  1.00  0.00     0.107 C 
HETATM   15  C1  UNL     1      22.423   5.790  46.820  1.00  0.00     0.056 C 
HETATM   16  F1  UNL     1      21.287   5.355  48.121  1.00  0.00    -0.207 F 
ENDBRANCH  13  14
ENDBRANCH  11  12
ENDBRANCH   9  10
ENDBRANCH   8   9
ENDBRANCH   1   8
BRANCH   4  17
HETATM   17  N1  UNL     1      26.615   0.235  54.209  1.00  0.00    -0.354 N 
HETATM   18  H11 UNL     1      26.651   0.006  55.230  1.00  0.00     0.162 HD
BRANCH  17  19
HETATM   19  C12 UNL     1      27.733   0.006  53.134  1.00  0.00     0.217 A 
HETATM   20  N2  UNL     1      27.795  -1.446  53.118  1.00  0.00    -0.245 NA
HETATM   21  C13 UNL     1      28.875  -0.861  53.632  1.00  0.00     0.247 A 
HETATM   22  N3  UNL     1      29.783   0.140  54.074  1.00  0.00    -0.251 NA
HETATM   23  C14 UNL     1      28.839   0.940  53.630  1.00  0.00     0.061 A 
HETATM   24  C15 UNL     1      28.843   2.420  53.612  1.00  0.00     0.070 C 
ENDBRANCH  17  19
ENDBRANCH   4  17
TORSDOF 7
ENDMDL
MODEL 8
REMARK VINA RESULT:      -6.4      2.878      3.961
REMARK  7 active torsions:
REMARK  status: ('A' for Active; 'I' for Inactive)
REMARK    1  A    between atoms: C2_2  and  C3_4 
REMARK    2  A    between atoms: C4_5  and  C5_6 
REMARK    3  A    between atoms: C6_7  and  C7_8 
REMARK    4  A    between atoms: C7_8  and  O1_9 
REMARK    5  A    between atoms: O1_9  and  C8_10 
REMARK    6  A    between atoms: C11_13  and  N1_14 
REMARK    7  A    between atoms: N1_14  and  C12_15 
ROOT
HETATM    1  C8  UNL     1      23.174   1.334  52.551  1.00  0.00     0.090 A 
HETATM    2  C9  UNL     1      24.126   1.995  51.808  1.00  0.00     0.041 A 
HETATM    3  C10 UNL     1      25.449   1.616  51.769  1.00  0.00     0.032 A 
HETATM    4  C11 UNL     1      25.928   0.540  52.474  1.00  0.00     0.032 A 
HETATM    5  C16 UNL     1      25.006  -0.142  53.225  1.00  0.00     0.056 A 
HETATM    6  C17 UNL     1      23.655   0.229  53.277  1.00  0.00     0.069 A 
HETATM    7 CL1  UNL     1      22.692  -0.823  54.322  1.00  0.00    -0.081 Cl
ENDROOT
BRANCH   1   8
HETATM    8  O1  UNL     1      21.851   1.459  52.781  1.00  0.00    -0.346 OA
BRANCH   8   9
HETATM    9  C7  UNL     1      20.985   2.214  51.987  1.00  0.00     0.203 C 
BRANCH   9  10
HETATM   10  C6  UNL     1      19.949   1.350  51.370  1.00  0.00    -0.000 C 
HETATM   11  C5  UNL     1      20.184   0.766  50.184  1.00  0.00    -0.002 C 
BRANCH  11  12
HETATM   12  C4  UNL     1      21.409   0.906  49.411  1.00  0.00     0.003 C 
HETATM   13  C3  UNL     1      21.508   1.779  48.434  1.00  0.00     0.041 C 
BRANCH  13  14
HETATM   14  C2  UNL     1      20.510   2.725  47.942  1.00  0.00     0.107 C 
HETATM   15  C1  UNL     1      20.083   3.973  48.162  1.00  0.00     0.056 C 
HETATM   16  F1  UNL     1      19.539   2.735  47.003  1.00  0.00    -0.207 F 
ENDBRANCH  13  14
ENDBRANCH  11  12
ENDBRANCH   9  10
ENDBRANCH   8   9
ENDBRANCH   1   8
BRANCH   4  17
HETATM   17  N1  UNL     1      27.290   0.141  52.433  1.00  0.00    -0.354 N 
HETATM   18  H11 UNL     1      27.737   0.028  51.494  1.00  0.00     0.162 HD
BRANCH  17  19
HETATM   19  C12 UNL     1      27.944  -0.079  53.840  1.00  0.00     0.217 A 
HETATM   20  N2  UNL     1      28.140   1.297  54.262  1.00  0.00    -0.245 NA
HETATM   21  C13 UNL     1      29.270   0.642  54.005  1.00  0.00     0.247 A 
HETATM   22  N3  UNL     1      30.172  -0.395  53.643  1.00  0.00    -0.251 NA
HETATM   23  C14 UNL     1      29.057  -1.078  53.514  1.00  0.00     0.061 A 
HETATM   24  C15 UNL     1      28.907  -2.502  53.138  1.00  0.00     0.070 C 
ENDBRANCH  17  19
ENDBRANCH   4  17
TORSDOF 7
ENDMDL
MODEL 9
REMARK VINA RESULT:      -6.4      4.883      7.295
REMARK  7 active torsions:
REMARK  status: ('A' for Active; 'I' for Inactive)
REMARK    1  A    between atoms: C2_2  and  C3_4 
REMARK    2  A    between atoms: C4_5  and  C5_6 
REMARK    3  A    between atoms: C6_7  and  C7_8 
REMARK    4  A    between atoms: C7_8  and  O1_9 
REMARK    5  A    between atoms: O1_9  and  C8_10 
REMARK    6  A    between atoms: C11_13  and  N1_14 
REMARK    7  A    between atoms: N1_14  and  C12_15 
ROOT
HETATM    1  C8  UNL     1      25.902   3.541  50.310  1.00  0.00     0.090 A 
HETATM    2  C9  UNL     1      26.874   3.823  49.377  1.00  0.00     0.041 A 
HETATM    3  C10 UNL     1      27.024   5.061  48.795  1.00  0.00     0.032 A 
HETATM    4  C11 UNL     1      26.209   6.123  49.101  1.00  0.00     0.032 A 
HETATM    5  C16 UNL     1      25.229   5.876  50.027  1.00  0.00     0.056 A 
HETATM    6  C17 UNL     1      25.061   4.623  50.631  1.00  0.00     0.069 A 
HETATM    7 CL1  UNL     1      23.723   4.587  51.786  1.00  0.00    -0.081 Cl
ENDROOT
BRANCH   1   8
HETATM    8  O1  UNL     1      25.520   2.468  51.032  1.00  0.00    -0.346 OA
BRANCH   8   9
HETATM    9  C7  UNL     1      26.301   1.875  52.028  1.00  0.00     0.203 C 
BRANCH   9  10
HETATM   10  C6  UNL     1      26.125   0.402  52.027  1.00  0.00    -0.000 C 
HETATM   11  C5  UNL     1      26.404  -0.306  53.133  1.00  0.00    -0.002 C 
BRANCH  11  12
HETATM   12  C4  UNL     1      26.885   0.256  54.386  1.00  0.00     0.003 C 
HETATM   13  C3  UNL     1      28.159   0.219  54.710  1.00  0.00     0.041 C 
BRANCH  13  14
HETATM   14  C2  UNL     1      29.282  -0.339  53.962  1.00  0.00     0.107 C 
HETATM   15  C1  UNL     1      29.783  -1.523  53.595  1.00  0.00     0.056 C 
HETATM   16  F1  UNL     1      30.349   0.137  53.285  1.00  0.00    -0.207 F 
ENDBRANCH  13  14
ENDBRANCH  11  12
ENDBRANCH   9  10
ENDBRANCH   8   9
ENDBRANCH   1   8
BRANCH   4  17
HETATM   17  N1  UNL     1      26.362   7.404  48.509  1.00  0.00    -0.354 N 
HETATM   18  H11 UNL     1      25.599   7.743  47.878  1.00  0.00     0.162 HD
BRANCH  17  19
HETATM   19  C12 UNL     1      27.688   8.145  48.897  1.00  0.00     0.217 A 
HETATM   20  N2  UNL     1      27.233   8.926  50.035  1.00  0.00    -0.245 NA
HETATM   21  C13 UNL     1      27.534   9.654  48.961  1.00  0.00     0.247 A 
HETATM   22  N3  UNL     1      27.954  10.009  47.650  1.00  0.00    -0.251 NA
HETATM   23  C14 UNL     1      28.135   8.712  47.548  1.00  0.00     0.061 A 
HETATM   24  C15 UNL     1      28.659   7.960  46.385  1.00  0.00     0.070 C 
ENDBRANCH  17  19
ENDBRANCH   4  17
TORSDOF 7
ENDMDL
