MODEL 1
REMARK VINA RESULT:      -8.0      0.000      0.000
REMARK  9 active torsions:
REMARK  status: ('A' for Active; 'I' for Inactive)
REMARK    1  A    between atoms: C2_2  and  C3_3 
REMARK       I    between atoms: C3_3  and  N1_5 
REMARK    2  A    between atoms: N1_5  and  C4_6 
REMARK    3  A    between atoms: N2_8  and  C6_9 
REMARK    4  A    between atoms: C11_15  and  C12_16 
REMARK    5  A    between atoms: C15_21  and  O2_22 
REMARK    6  A    between atoms: C18_25  and  N6_26 
REMARK    7  A    between atoms: N6_26  and  C20_28 
REMARK    8  A    between atoms: C20_28  and  C21_29 
REMARK    9  A    between atoms: C21_29  and  N7_30 
ROOT
HETATM    1  C4  UNL     1      23.728   1.786  51.402  1.00  0.00     0.077 C 
HETATM    2  C5  UNL     1      22.421   1.714  51.234  1.00  0.00     0.144 C 
HETATM    3  N2  UNL     1      21.788   0.650  51.940  1.00  0.00    -0.155 N 
HETATM    4  C15 UNL     1      22.363  -0.181  52.961  1.00  0.00     0.271 C 
HETATM    5  C17 UNL     1      23.850  -0.034  53.069  1.00  0.00     0.059 C 
HETATM    6  C18 UNL     1      24.448   0.898  52.327  1.00  0.00     0.058 C 
ENDROOT
BRANCH   3   7
HETATM    7  C6  UNL     1      20.442   0.475  51.514  1.00  0.00     0.748 A 
HETATM    8  N3  UNL     1      20.147   1.069  50.329  1.00  0.00    -0.071 NA
HETATM    9  C7  UNL     1      18.921   0.978  49.798  1.00  0.00     0.168 A 
HETATM   10  C8  UNL     1      17.893   0.290  50.401  1.00  0.00     0.077 A 
HETATM   11  C9  UNL     1      16.590   0.063  50.054  1.00  0.00     0.035 A 
HETATM   12  N4  UNL     1      18.250  -0.282  51.585  1.00  0.00    -0.221 N 
HETATM   13  C10 UNL     1      16.156  -0.703  51.117  1.00  0.00     0.030 A 
HETATM   14  C11 UNL     1      17.154  -0.928  52.068  1.00  0.00     0.041 A 
HETATM   15  N5  UNL     1      19.452  -0.183  52.090  1.00  0.00     0.027 NA
BRANCH  14  16
HETATM   16  C12 UNL     1      16.905  -1.746  53.306  1.00  0.00     0.038 A 
HETATM   17  C13 UNL     1      16.749  -3.202  53.067  1.00  0.00     0.011 A 
HETATM   18  C14 UNL     1      17.986  -2.702  53.695  1.00  0.00     0.011 A 
ENDBRANCH  14  16
ENDBRANCH   3   7
BRANCH   4  19
HETATM   19  O2  UNL     1      21.783   0.079  54.212  1.00  0.00    -0.367 OA
HETATM   20  C16 UNL     1      22.034  -0.864  55.170  1.00  0.00     0.204 C 
ENDBRANCH   4  19
BRANCH   1  21
HETATM   21  N1  UNL     1      24.633   2.633  50.894  1.00  0.00    -0.332 N 
HETATM   22  C3  UNL     1      25.572   3.535  50.366  1.00  0.00     0.175 C 
HETATM   23  O1  UNL     1      24.908   4.592  50.747  1.00  0.00    -0.172 OA
HETATM   24  H4  UNL     1      25.250   1.811  50.502  1.00  0.00     0.168 HD
BRANCH  22  25
HETATM   25  C2  UNL     1      26.816   3.639  49.662  1.00  0.00     0.032 C 
HETATM   26  C1  UNL     1      27.112   4.668  48.887  1.00  0.00     0.035 C 
ENDBRANCH  22  25
ENDBRANCH   1  21
BRANCH   6  27
HETATM   27  N6  UNL     1      25.843   0.775  52.683  1.00  0.00    -0.382 N 
HETATM   28  C19 UNL     1      26.699   0.049  51.771  1.00  0.00     0.150 C 
BRANCH  27  29
HETATM   29  C20 UNL     1      26.522   1.284  53.839  1.00  0.00     0.152 C 
BRANCH  29  30
HETATM   30  C21 UNL     1      27.316   0.328  54.633  1.00  0.00     0.291 C 
BRANCH  30  31
HETATM   31  N7  UNL     1      28.713   0.468  54.700  1.00  0.00     0.081 N 
HETATM   32  C22 UNL     1      29.256   1.726  54.337  1.00  0.00     0.309 C 
HETATM   33  C23 UNL     1      29.443  -0.596  54.034  1.00  0.00     0.309 C 
ENDBRANCH  30  31
ENDBRANCH  29  30
ENDBRANCH  27  29
ENDBRANCH   6  27
TORSDOF 9
ENDMDL
MODEL 2
REMARK VINA RESULT:      -7.7      3.949      7.600
REMARK  9 active torsions:
REMARK  status: ('A' for Active; 'I' for Inactive)
REMARK    1  A    between atoms: C2_2  and  C3_3 
REMARK       I    between atoms: C3_3  and  N1_5 
REMARK    2  A    between atoms: N1_5  and  C4_6 
REMARK    3  A    between atoms: N2_8  and  C6_9 
REMARK    4  A    between atoms: C11_15  and  C12_16 
REMARK    5  A    between atoms: C15_21  and  O2_22 
REMARK    6  A    between atoms: C18_25  and  N6_26 
REMARK    7  A    between atoms: N6_26  and  C20_28 
REMARK    8  A    between atoms: C20_28  and  C21_29 
REMARK    9  A    between atoms: C21_29  and  N7_30 
ROOT
HETATM    1  C4  UNL     1      26.195   5.885  49.681  1.00  0.00     0.077 C 
HETATM    2  C5  UNL     1      25.568   4.798  50.090  1.00  0.00     0.144 C 
HETATM    3  N2  UNL     1      24.403   5.042  50.872  1.00  0.00    -0.155 N 
HETATM    4  C15 UNL     1      23.729   6.297  51.063  1.00  0.00     0.271 C 
HETATM    5  C17 UNL     1      24.522   7.469  50.574  1.00  0.00     0.059 C 
HETATM    6  C18 UNL     1      25.666   7.234  49.930  1.00  0.00     0.058 C 
ENDROOT
BRANCH   3   7
HETATM    7  C6  UNL     1      23.933   3.849  51.488  1.00  0.00     0.748 A 
HETATM    8  N3  UNL     1      22.581   3.753  51.568  1.00  0.00    -0.071 NA
HETATM    9  C7  UNL     1      21.996   2.679  52.113  1.00  0.00     0.168 A 
HETATM   10  C8  UNL     1      22.708   1.616  52.621  1.00  0.00     0.077 A 
HETATM   11  C9  UNL     1      22.338   0.438  53.209  1.00  0.00     0.035 A 
HETATM   12  N4  UNL     1      24.058   1.771  52.513  1.00  0.00    -0.221 N 
HETATM   13  C10 UNL     1      23.567  -0.138  53.460  1.00  0.00     0.030 A 
HETATM   14  C11 UNL     1      24.636   0.659  53.043  1.00  0.00     0.041 A 
HETATM   15  N5  UNL     1      24.612   2.827  51.978  1.00  0.00     0.027 NA
BRANCH  14  16
HETATM   16  C12 UNL     1      26.066   0.223  53.210  1.00  0.00     0.038 A 
HETATM   17  C13 UNL     1      26.323  -1.201  52.883  1.00  0.00     0.011 A 
HETATM   18  C14 UNL     1      26.793  -0.153  51.958  1.00  0.00     0.011 A 
ENDBRANCH  14  16
ENDBRANCH   3   7
BRANCH   4  19
HETATM   19  O2  UNL     1      22.473   6.297  50.435  1.00  0.00    -0.367 OA
HETATM   20  C16 UNL     1      21.822   7.499  50.452  1.00  0.00     0.204 C 
ENDBRANCH   4  19
BRANCH   1  21
HETATM   21  N1  UNL     1      27.308   6.033  48.951  1.00  0.00    -0.332 N 
HETATM   22  C3  UNL     1      28.481   6.175  48.190  1.00  0.00     0.175 C 
HETATM   23  O1  UNL     1      28.936   4.993  48.505  1.00  0.00    -0.172 OA
HETATM   24  H4  UNL     1      27.031   7.055  48.652  1.00  0.00     0.168 HD
BRANCH  22  25
HETATM   25  C2  UNL     1      29.208   7.057  47.326  1.00  0.00     0.032 C 
HETATM   26  C1  UNL     1      28.609   7.882  46.484  1.00  0.00     0.035 C 
ENDBRANCH  22  25
ENDBRANCH   1  21
BRANCH   6  27
HETATM   27  N6  UNL     1      26.149   8.554  49.597  1.00  0.00    -0.382 N 
HETATM   28  C19 UNL     1      25.374   9.324  48.649  1.00  0.00     0.150 C 
BRANCH  27  29
HETATM   29  C20 UNL     1      27.315   9.232  50.084  1.00  0.00     0.152 C 
BRANCH  29  30
HETATM   30  C21 UNL     1      27.825  10.361  49.284  1.00  0.00     0.291 C 
BRANCH  30  31
HETATM   31  N7  UNL     1      29.190  10.425  48.958  1.00  0.00     0.081 N 
HETATM   32  C22 UNL     1      30.074   9.606  49.706  1.00  0.00     0.309 C 
HETATM   33  C23 UNL     1      29.715  11.777  48.883  1.00  0.00     0.309 C 
ENDBRANCH  30  31
ENDBRANCH  29  30
ENDBRANCH  27  29
ENDBRANCH   6  27
TORSDOF 9
ENDMDL
MODEL 3
REMARK VINA RESULT:      -7.5      3.499      7.024
REMARK  9 active torsions:
REMARK  status: ('A' for Active; 'I' for Inactive)
REMARK    1  A    between atoms: C2_2  and  C3_3 
REMARK       I    between atoms: C3_3  and  N1_5 
REMARK    2  A    between atoms: N1_5  and  C4_6 
REMARK    3  A    between atoms: N2_8  and  C6_9 
REMARK    4  A    between atoms: C11_15  and  C12_16 
REMARK    5  A    between atoms: C15_21  and  O2_22 
REMARK    6  A    between atoms: C18_25  and  N6_26 
REMARK    7  A    between atoms: N6_26  and  C20_28 
REMARK    8  A    between atoms: C20_28  and  C21_29 
REMARK    9  A    between atoms: C21_29  and  N7_30 
ROOT
HETATM    1  C4  UNL     1      26.111   4.951  49.638  1.00  0.00     0.077 C 
HETATM    2  C5  UNL     1      26.061   3.819  50.314  1.00  0.00     0.144 C 
HETATM    3  N2  UNL     1      24.819   3.568  50.965  1.00  0.00    -0.155 N 
HETATM    4  C15 UNL     1      23.581   4.276  50.782  1.00  0.00     0.271 C 
HETATM    5  C17 UNL     1      23.742   5.549  50.010  1.00  0.00     0.059 C 
HETATM    6  C18 UNL     1      24.938   5.826  49.489  1.00  0.00     0.058 C 
ENDROOT
BRANCH   3   7
HETATM    7  C6  UNL     1      24.921   2.478  51.874  1.00  0.00     0.748 A 
HETATM    8  N3  UNL     1      26.156   2.312  52.413  1.00  0.00    -0.071 NA
HETATM    9  C7  UNL     1      26.398   1.333  53.295  1.00  0.00     0.168 A 
HETATM   10  C8  UNL     1      25.433   0.444  53.710  1.00  0.00     0.077 A 
HETATM   11  C9  UNL     1      25.445  -0.609  54.582  1.00  0.00     0.035 A 
HETATM   12  N4  UNL     1      24.217   0.662  53.133  1.00  0.00    -0.221 N 
HETATM   13  C10 UNL     1      24.134  -1.037  54.509  1.00  0.00     0.030 A 
HETATM   14  C11 UNL     1      23.362  -0.274  53.629  1.00  0.00     0.041 A 
HETATM   15  N5  UNL     1      23.998   1.622  52.274  1.00  0.00     0.027 NA
BRANCH  14  16
HETATM   16  C12 UNL     1      21.902  -0.557  53.401  1.00  0.00     0.038 A 
HETATM   17  C13 UNL     1      21.217  -1.232  54.531  1.00  0.00     0.011 A 
HETATM   18  C14 UNL     1      20.941   0.193  54.267  1.00  0.00     0.011 A 
ENDBRANCH  14  16
ENDBRANCH   3   7
BRANCH   4  19
HETATM   19  O2  UNL     1      22.627   3.468  50.144  1.00  0.00    -0.367 OA
HETATM   20  C16 UNL     1      22.793   3.339  48.793  1.00  0.00     0.204 C 
ENDBRANCH   4  19
BRANCH   1  21
HETATM   21  N1  UNL     1      27.101   5.506  48.927  1.00  0.00    -0.332 N 
HETATM   22  C3  UNL     1      28.150   6.076  48.185  1.00  0.00     0.175 C 
HETATM   23  O1  UNL     1      28.997   5.130  48.485  1.00  0.00    -0.172 OA
HETATM   24  H4  UNL     1      26.477   6.367  48.643  1.00  0.00     0.168 HD
BRANCH  22  25
HETATM   25  C2  UNL     1      28.517   7.180  47.348  1.00  0.00     0.032 C 
HETATM   26  C1  UNL     1      29.775   7.476  47.072  1.00  0.00     0.035 C 
ENDBRANCH  22  25
ENDBRANCH   1  21
BRANCH   6  27
HETATM   27  N6  UNL     1      24.734   7.088  48.817  1.00  0.00    -0.382 N 
HETATM   28  C19 UNL     1      24.271   7.044  47.448  1.00  0.00     0.150 C 
BRANCH  27  29
HETATM   29  C20 UNL     1      24.927   8.415  49.325  1.00  0.00     0.152 C 
BRANCH  29  30
HETATM   30  C21 UNL     1      25.756   9.334  48.522  1.00  0.00     0.291 C 
BRANCH  30  31
HETATM   31  N7  UNL     1      26.787  10.062  49.139  1.00  0.00     0.081 N 
HETATM   32  C22 UNL     1      27.722  10.707  48.290  1.00  0.00     0.309 C 
HETATM   33  C23 UNL     1      27.489   9.325  50.176  1.00  0.00     0.309 C 
ENDBRANCH  30  31
ENDBRANCH  29  30
ENDBRANCH  27  29
ENDBRANCH   6  27
TORSDOF 9
ENDMDL
MODEL 4
REMARK VINA RESULT:      -7.5      3.947      7.690
REMARK  9 active torsions:
REMARK  status: ('A' for Active; 'I' for Inactive)
REMARK    1  A    between atoms: C2_2  and  C3_3 
REMARK       I    between atoms: C3_3  and  N1_5 
REMARK    2  A    between atoms: N1_5  and  C4_6 
REMARK    3  A    between atoms: N2_8  and  C6_9 
REMARK    4  A    between atoms: C11_15  and  C12_16 
REMARK    5  A    between atoms: C15_21  and  O2_22 
REMARK    6  A    between atoms: C18_25  and  N6_26 
REMARK    7  A    between atoms: N6_26  and  C20_28 
REMARK    8  A    between atoms: C20_28  and  C21_29 
REMARK    9  A    between atoms: C21_29  and  N7_30 
ROOT
HETATM    1  C4  UNL     1      26.193   5.793  49.655  1.00  0.00     0.077 C 
HETATM    2  C5  UNL     1      25.564   4.719  50.095  1.00  0.00     0.144 C 
HETATM    3  N2  UNL     1      24.388   4.985  50.853  1.00  0.00    -0.155 N 
HETATM    4  C15 UNL     1      23.707   6.243  50.991  1.00  0.00     0.271 C 
HETATM    5  C17 UNL     1      24.502   7.401  50.471  1.00  0.00     0.059 C 
HETATM    6  C18 UNL     1      25.655   7.148  49.851  1.00  0.00     0.058 C 
ENDROOT
BRANCH   3   7
HETATM    7  C6  UNL     1      23.914   3.812  51.505  1.00  0.00     0.748 A 
HETATM    8  N3  UNL     1      22.564   3.738  51.615  1.00  0.00    -0.071 NA
HETATM    9  C7  UNL     1      21.975   2.685  52.196  1.00  0.00     0.168 A 
HETATM   10  C8  UNL     1      22.682   1.622  52.711  1.00  0.00     0.077 A 
HETATM   11  C9  UNL     1      22.308   0.463  53.332  1.00  0.00     0.035 A 
HETATM   12  N4  UNL     1      24.032   1.755  52.570  1.00  0.00    -0.221 N 
HETATM   13  C10 UNL     1      23.534  -0.126  53.569  1.00  0.00     0.030 A 
HETATM   14  C11 UNL     1      24.605   0.646  53.112  1.00  0.00     0.041 A 
HETATM   15  N5  UNL     1      24.589   2.791  52.001  1.00  0.00     0.027 NA
BRANCH  14  16
HETATM   16  C12 UNL     1      26.032   0.192  53.257  1.00  0.00     0.038 A 
HETATM   17  C13 UNL     1      26.282  -1.211  52.846  1.00  0.00     0.011 A 
HETATM   18  C14 UNL     1      26.761  -0.112  51.987  1.00  0.00     0.011 A 
ENDBRANCH  14  16
ENDBRANCH   3   7
BRANCH   4  19
HETATM   19  O2  UNL     1      22.460   6.216  50.348  1.00  0.00    -0.367 OA
HETATM   20  C16 UNL     1      21.598   7.209  50.723  1.00  0.00     0.204 C 
ENDBRANCH   4  19
BRANCH   1  21
HETATM   21  N1  UNL     1      27.314   5.920  48.935  1.00  0.00    -0.332 N 
HETATM   22  C3  UNL     1      28.495   6.038  48.182  1.00  0.00     0.175 C 
HETATM   23  O1  UNL     1      28.851   4.798  48.377  1.00  0.00    -0.172 OA
HETATM   24  H4  UNL     1      27.123   6.986  48.739  1.00  0.00     0.168 HD
BRANCH  22  25
HETATM   25  C2  UNL     1      29.292   6.938  47.403  1.00  0.00     0.032 C 
HETATM   26  C1  UNL     1      29.560   8.173  47.793  1.00  0.00     0.035 C 
ENDBRANCH  22  25
ENDBRANCH   1  21
BRANCH   6  27
HETATM   27  N6  UNL     1      26.138   8.457  49.477  1.00  0.00    -0.382 N 
HETATM   28  C19 UNL     1      27.031   9.123  50.400  1.00  0.00     0.150 C 
BRANCH  27  29
HETATM   29  C20 UNL     1      25.854   9.213  48.292  1.00  0.00     0.152 C 
BRANCH  29  30
HETATM   30  C21 UNL     1      25.695   8.462  47.033  1.00  0.00     0.291 C 
BRANCH  30  31
HETATM   31  N7  UNL     1      24.429   8.374  46.429  1.00  0.00     0.081 N 
HETATM   32  C22 UNL     1      23.559   7.356  46.893  1.00  0.00     0.309 C 
HETATM   33  C23 UNL     1      24.470   8.364  44.977  1.00  0.00     0.309 C 
ENDBRANCH  30  31
ENDBRANCH  29  30
ENDBRANCH  27  29
ENDBRANCH   6  27
TORSDOF 9
ENDMDL
MODEL 5
REMARK VINA RESULT:      -7.4      4.699      8.569
REMARK  9 active torsions:
REMARK  status: ('A' for Active; 'I' for Inactive)
REMARK    1  A    between atoms: C2_2  and  C3_3 
REMARK       I    between atoms: C3_3  and  N1_5 
REMARK    2  A    between atoms: N1_5  and  C4_6 
REMARK    3  A    between atoms: N2_8  and  C6_9 
REMARK    4  A    between atoms: C11_15  and  C12_16 
REMARK    5  A    between atoms: C15_21  and  O2_22 
REMARK    6  A    between atoms: C18_25  and  N6_26 
REMARK    7  A    between atoms: N6_26  and  C20_28 
REMARK    8  A    between atoms: C20_28  and  C21_29 
REMARK    9  A    between atoms: C21_29  and  N7_30 
ROOT
HETATM    1  C4  UNL     1      28.782   5.547  48.342  1.00  0.00     0.077 C 
HETATM    2  C5  UNL     1      27.749   4.766  48.595  1.00  0.00     0.144 C 
HETATM    3  N2  UNL     1      26.563   5.453  48.985  1.00  0.00    -0.155 N 
HETATM    4  C15 UNL     1      26.312   6.866  48.911  1.00  0.00     0.271 C 
HETATM    5  C17 UNL     1      27.545   7.667  48.628  1.00  0.00     0.059 C 
HETATM    6  C18 UNL     1      28.677   7.014  48.363  1.00  0.00     0.058 C 
ENDROOT
BRANCH   3   7
HETATM    7  C6  UNL     1      25.583   4.552  49.487  1.00  0.00     0.748 A 
HETATM    8  N3  UNL     1      24.356   4.686  48.922  1.00  0.00    -0.071 NA
HETATM    9  C7  UNL     1      23.338   3.897  49.287  1.00  0.00     0.168 A 
HETATM   10  C8  UNL     1      23.459   2.913  50.242  1.00  0.00     0.077 A 
HETATM   11  C9  UNL     1      22.581   2.004  50.764  1.00  0.00     0.035 A 
HETATM   12  N4  UNL     1      24.712   2.828  50.771  1.00  0.00    -0.221 N 
HETATM   13  C10 UNL     1      23.385   1.337  51.666  1.00  0.00     0.030 A 
HETATM   14  C11 UNL     1      24.695   1.823  51.689  1.00  0.00     0.041 A 
HETATM   15  N5  UNL     1      25.695   3.607  50.403  1.00  0.00     0.027 NA
BRANCH  14  16
HETATM   16  C12 UNL     1      25.746   1.237  52.591  1.00  0.00     0.038 A 
HETATM   17  C13 UNL     1      25.587  -0.212  52.870  1.00  0.00     0.011 A 
HETATM   18  C14 UNL     1      26.667   0.235  51.970  1.00  0.00     0.011 A 
ENDBRANCH  14  16
ENDBRANCH   3   7
BRANCH   4  19
HETATM   19  O2  UNL     1      25.341   7.157  47.941  1.00  0.00    -0.367 OA
HETATM   20  C16 UNL     1      25.415   8.415  47.411  1.00  0.00     0.204 C 
ENDBRANCH   4  19
BRANCH   1  21
HETATM   21  N1  UNL     1      30.034   5.253  47.969  1.00  0.00    -0.332 N 
HETATM   22  C3  UNL     1      31.353   4.945  47.593  1.00  0.00     0.175 C 
HETATM   23  O1  UNL     1      31.796   4.931  48.821  1.00  0.00    -0.172 OA
HETATM   24  H4  UNL     1      29.770   5.274  46.901  1.00  0.00     0.168 HD
BRANCH  22  25
HETATM   25  C2  UNL     1      32.214   4.686  46.477  1.00  0.00     0.032 C 
HETATM   26  C1  UNL     1      32.988   3.617  46.409  1.00  0.00     0.035 C 
ENDBRANCH  22  25
ENDBRANCH   1  21
BRANCH   6  27
HETATM   27  N6  UNL     1      29.635   8.069  48.130  1.00  0.00    -0.382 N 
HETATM   28  C19 UNL     1      29.477   8.853  46.924  1.00  0.00     0.150 C 
BRANCH  27  29
HETATM   29  C20 UNL     1      30.748   8.466  48.942  1.00  0.00     0.152 C 
BRANCH  29  30
HETATM   30  C21 UNL     1      31.949   8.964  48.247  1.00  0.00     0.291 C 
BRANCH  30  31
HETATM   31  N7  UNL     1      32.889   8.053  47.737  1.00  0.00     0.081 N 
HETATM   32  C22 UNL     1      34.045   7.806  48.520  1.00  0.00     0.309 C 
HETATM   33  C23 UNL     1      33.272   8.311  46.360  1.00  0.00     0.309 C 
ENDBRANCH  30  31
ENDBRANCH  29  30
ENDBRANCH  27  29
ENDBRANCH   6  27
TORSDOF 9
ENDMDL
MODEL 6
REMARK VINA RESULT:      -7.3      3.199      9.682
REMARK  9 active torsions:
REMARK  status: ('A' for Active; 'I' for Inactive)
REMARK    1  A    between atoms: C2_2  and  C3_3 
REMARK       I    between atoms: C3_3  and  N1_5 
REMARK    2  A    between atoms: N1_5  and  C4_6 
REMARK    3  A    between atoms: N2_8  and  C6_9 
REMARK    4  A    between atoms: C11_15  and  C12_16 
REMARK    5  A    between atoms: C15_21  and  O2_22 
REMARK    6  A    between atoms: C18_25  and  N6_26 
REMARK    7  A    between atoms: N6_26  and  C20_28 
REMARK    8  A    between atoms: C20_28  and  C21_29 
REMARK    9  A    between atoms: C21_29  and  N7_30 
ROOT
HETATM    1  C4  UNL     1      25.861   2.746  50.860  1.00  0.00     0.077 C 
HETATM    2  C5  UNL     1      26.575   3.697  50.288  1.00  0.00     0.144 C 
HETATM    3  N2  UNL     1      25.811   4.765  49.736  1.00  0.00    -0.155 N 
HETATM    4  C15 UNL     1      24.411   5.026  49.930  1.00  0.00     0.271 C 
HETATM    5  C17 UNL     1      23.687   3.887  50.578  1.00  0.00     0.059 C 
HETATM    6  C18 UNL     1      24.400   2.843  51.002  1.00  0.00     0.058 C 
ENDROOT
BRANCH   3   7
HETATM    7  C6  UNL     1      26.615   5.610  48.919  1.00  0.00     0.748 A 
HETATM    8  N3  UNL     1      25.941   6.636  48.340  1.00  0.00    -0.071 NA
HETATM    9  C7  UNL     1      26.571   7.519  47.554  1.00  0.00     0.168 A 
HETATM   10  C8  UNL     1      27.919   7.451  47.283  1.00  0.00     0.077 A 
HETATM   11  C9  UNL     1      28.761   8.222  46.531  1.00  0.00     0.035 A 
HETATM   12  N4  UNL     1      28.538   6.400  47.892  1.00  0.00    -0.221 N 
HETATM   13  C10 UNL     1      29.964   7.572  46.718  1.00  0.00     0.030 A 
HETATM   14  C11 UNL     1      29.854   6.453  47.548  1.00  0.00     0.041 A 
HETATM   15  N5  UNL     1      27.907   5.547  48.656  1.00  0.00     0.027 NA
BRANCH  14  16
HETATM   16  C12 UNL     1      31.043   5.600  47.896  1.00  0.00     0.038 A 
HETATM   17  C13 UNL     1      32.322   6.340  48.022  1.00  0.00     0.011 A 
HETATM   18  C14 UNL     1      31.656   5.837  49.239  1.00  0.00     0.011 A 
ENDBRANCH  14  16
ENDBRANCH   3   7
BRANCH   4  19
HETATM   19  O2  UNL     1      24.214   6.189  50.690  1.00  0.00    -0.367 OA
HETATM   20  C16 UNL     1      22.921   6.630  50.742  1.00  0.00     0.204 C 
ENDBRANCH   4  19
BRANCH   1  21
HETATM   21  N1  UNL     1      26.235   1.609  51.460  1.00  0.00    -0.332 N 
HETATM   22  C3  UNL     1      26.640   0.423  52.096  1.00  0.00     0.175 C 
HETATM   23  O1  UNL     1      27.708   0.961  52.619  1.00  0.00    -0.172 OA
HETATM   24  H4  UNL     1      25.382   1.053  51.041  1.00  0.00     0.168 HD
BRANCH  22  25
HETATM   25  C2  UNL     1      26.306  -0.954  52.313  1.00  0.00     0.032 C 
HETATM   26  C1  UNL     1      27.205  -1.858  52.662  1.00  0.00     0.035 C 
ENDBRANCH  22  25
ENDBRANCH   1  21
BRANCH   6  27
HETATM   27  N6  UNL     1      23.410   1.960  51.573  1.00  0.00    -0.382 N 
HETATM   28  C19 UNL     1      22.493   1.313  50.661  1.00  0.00     0.150 C 
BRANCH  27  29
HETATM   29  C20 UNL     1      23.198   1.621  52.950  1.00  0.00     0.152 C 
BRANCH  29  30
HETATM   30  C21 UNL     1      22.883   0.214  53.260  1.00  0.00     0.291 C 
BRANCH  30  31
HETATM   31  N7  UNL     1      21.880  -0.086  54.197  1.00  0.00     0.081 N 
HETATM   32  C22 UNL     1      21.816  -1.419  54.674  1.00  0.00     0.309 C 
HETATM   33  C23 UNL     1      20.555   0.361  53.803  1.00  0.00     0.309 C 
ENDBRANCH  30  31
ENDBRANCH  29  30
ENDBRANCH  27  29
ENDBRANCH   6  27
TORSDOF 9
ENDMDL
MODEL 7
REMARK VINA RESULT:      -7.3      4.381      8.419
REMARK  9 active torsions:
REMARK  status: ('A' for Active; 'I' for Inactive)
REMARK    1  A    between atoms: C2_2  and  C3_3 
REMARK       I    between atoms: C3_3  and  N1_5 
REMARK    2  A    between atoms: N1_5  and  C4_6 
REMARK    3  A    between atoms: N2_8  and  C6_9 
REMARK    4  A    between atoms: C11_15  and  C12_16 
REMARK    5  A    between atoms: C15_21  and  O2_22 
REMARK    6  A    between atoms: C18_25  and  N6_26 
REMARK    7  A    between atoms: N6_26  and  C20_28 
REMARK    8  A    between atoms: C20_28  and  C21_29 
REMARK    9  A    between atoms: C21_29  and  N7_30 
ROOT
HETATM    1  C4  UNL     1      28.209   5.416  48.486  1.00  0.00     0.077 C 
HETATM    2  C5  UNL     1      27.280   4.540  48.820  1.00  0.00     0.144 C 
HETATM    3  N2  UNL     1      26.003   5.104  49.102  1.00  0.00    -0.155 N 
HETATM    4  C15 UNL     1      25.570   6.450  48.847  1.00  0.00     0.271 C 
HETATM    5  C17 UNL     1      26.695   7.369  48.483  1.00  0.00     0.059 C 
HETATM    6  C18 UNL     1      27.911   6.847  48.321  1.00  0.00     0.058 C 
ENDROOT
BRANCH   3   7
HETATM    7  C6  UNL     1      25.134   4.147  49.699  1.00  0.00     0.748 A 
HETATM    8  N3  UNL     1      23.856   4.189  49.243  1.00  0.00    -0.071 NA
HETATM    9  C7  UNL     1      22.930   3.339  49.706  1.00  0.00     0.168 A 
HETATM   10  C8  UNL     1      23.202   2.382  50.657  1.00  0.00     0.077 A 
HETATM   11  C9  UNL     1      22.437   1.425  51.265  1.00  0.00     0.035 A 
HETATM   12  N4  UNL     1      24.499   2.391  51.075  1.00  0.00    -0.221 N 
HETATM   13  C10 UNL     1      23.361   0.830  52.099  1.00  0.00     0.030 A 
HETATM   14  C11 UNL     1      24.632   1.403  52.001  1.00  0.00     0.041 A 
HETATM   15  N5  UNL     1      25.390   3.228  50.612  1.00  0.00     0.027 NA
BRANCH  14  16
HETATM   16  C12 UNL     1      25.795   0.905  52.814  1.00  0.00     0.038 A 
HETATM   17  C13 UNL     1      25.769  -0.549  53.109  1.00  0.00     0.011 A 
HETATM   18  C14 UNL     1      26.733  -0.031  52.120  1.00  0.00     0.011 A 
ENDBRANCH  14  16
ENDBRANCH   3   7
BRANCH   4  19
HETATM   19  O2  UNL     1      24.600   6.486  47.833  1.00  0.00    -0.367 OA
HETATM   20  C16 UNL     1      24.471   7.692  47.203  1.00  0.00     0.204 C 
ENDBRANCH   4  19
BRANCH   1  21
HETATM   21  N1  UNL     1      29.500   5.250  48.172  1.00  0.00    -0.332 N 
HETATM   22  C3  UNL     1      30.859   5.080  47.857  1.00  0.00     0.175 C 
HETATM   23  O1  UNL     1      31.269   5.391  49.057  1.00  0.00    -0.172 OA
HETATM   24  H4  UNL     1      29.262   5.006  47.126  1.00  0.00     0.168 HD
BRANCH  22  25
HETATM   25  C2  UNL     1      31.776   4.732  46.813  1.00  0.00     0.032 C 
HETATM   26  C1  UNL     1      32.386   3.559  46.762  1.00  0.00     0.035 C 
ENDBRANCH  22  25
ENDBRANCH   1  21
BRANCH   6  27
HETATM   27  N6  UNL     1      28.728   7.985  47.970  1.00  0.00    -0.382 N 
HETATM   28  C19 UNL     1      28.704   8.419  46.591  1.00  0.00     0.150 C 
BRANCH  27  29
HETATM   29  C20 UNL     1      29.581   8.770  48.814  1.00  0.00     0.152 C 
BRANCH  29  30
HETATM   30  C21 UNL     1      29.051  10.057  49.303  1.00  0.00     0.291 C 
BRANCH  30  31
HETATM   31  N7  UNL     1      29.495  11.259  48.726  1.00  0.00     0.081 N 
HETATM   32  C22 UNL     1      30.773  11.732  49.118  1.00  0.00     0.309 C 
HETATM   33  C23 UNL     1      28.526  12.338  48.796  1.00  0.00     0.309 C 
ENDBRANCH  30  31
ENDBRANCH  29  30
ENDBRANCH  27  29
ENDBRANCH   6  27
TORSDOF 9
ENDMDL
MODEL 8
REMARK VINA RESULT:      -7.3      3.474      7.265
REMARK  9 active torsions:
REMARK  status: ('A' for Active; 'I' for Inactive)
REMARK    1  A    between atoms: C2_2  and  C3_3 
REMARK       I    between atoms: C3_3  and  N1_5 
REMARK    2  A    between atoms: N1_5  and  C4_6 
REMARK    3  A    between atoms: N2_8  and  C6_9 
REMARK    4  A    between atoms: C11_15  and  C12_16 
REMARK    5  A    between atoms: C15_21  and  O2_22 
REMARK    6  A    between atoms: C18_25  and  N6_26 
REMARK    7  A    between atoms: N6_26  and  C20_28 
REMARK    8  A    between atoms: C20_28  and  C21_29 
REMARK    9  A    between atoms: C21_29  and  N7_30 
ROOT
HETATM    1  C4  UNL     1      26.330   4.986  49.516  1.00  0.00     0.077 C 
HETATM    2  C5  UNL     1      26.229   3.848  50.176  1.00  0.00     0.144 C 
HETATM    3  N2  UNL     1      24.949   3.604  50.750  1.00  0.00    -0.155 N 
HETATM    4  C15 UNL     1      23.732   4.328  50.504  1.00  0.00     0.271 C 
HETATM    5  C17 UNL     1      23.951   5.607  49.757  1.00  0.00     0.059 C 
HETATM    6  C18 UNL     1      25.178   5.876  49.309  1.00  0.00     0.058 C 
ENDROOT
BRANCH   3   7
HETATM    7  C6  UNL     1      24.986   2.504  51.652  1.00  0.00     0.748 A 
HETATM    8  N3  UNL     1      26.221   2.221  52.140  1.00  0.00    -0.071 NA
HETATM    9  C7  UNL     1      26.407   1.219  53.008  1.00  0.00     0.168 A 
HETATM   10  C8  UNL     1      25.381   0.419  53.460  1.00  0.00     0.077 A 
HETATM   11  C9  UNL     1      25.331  -0.636  54.328  1.00  0.00     0.035 A 
HETATM   12  N4  UNL     1      24.169   0.752  52.934  1.00  0.00    -0.221 N 
HETATM   13  C10 UNL     1      23.985  -0.940  54.308  1.00  0.00     0.030 A 
HETATM   14  C11 UNL     1      23.251  -0.104  53.462  1.00  0.00     0.041 A 
HETATM   15  N5  UNL     1      24.005   1.734  52.087  1.00  0.00     0.027 NA
BRANCH  14  16
HETATM   16  C12 UNL     1      21.764  -0.249  53.293  1.00  0.00     0.038 A 
HETATM   17  C13 UNL     1      21.113  -1.152  54.274  1.00  0.00     0.011 A 
HETATM   18  C14 UNL     1      20.917   0.305  54.394  1.00  0.00     0.011 A 
ENDBRANCH  14  16
ENDBRANCH   3   7
BRANCH   4  19
HETATM   19  O2  UNL     1      22.807   3.538  49.804  1.00  0.00    -0.367 OA
HETATM   20  C16 UNL     1      21.514   3.978  49.862  1.00  0.00     0.204 C 
ENDBRANCH   4  19
BRANCH   1  21
HETATM   21  N1  UNL     1      27.366   5.537  48.869  1.00  0.00    -0.332 N 
HETATM   22  C3  UNL     1      28.461   6.101  48.192  1.00  0.00     0.175 C 
HETATM   23  O1  UNL     1      29.149   4.992  48.194  1.00  0.00    -0.172 OA
HETATM   24  H4  UNL     1      26.884   6.526  48.845  1.00  0.00     0.168 HD
BRANCH  22  25
HETATM   25  C2  UNL     1      28.970   7.303  47.602  1.00  0.00     0.032 C 
HETATM   26  C1  UNL     1      28.445   7.840  46.514  1.00  0.00     0.035 C 
ENDBRANCH  22  25
ENDBRANCH   1  21
BRANCH   6  27
HETATM   27  N6  UNL     1      25.027   7.147  48.641  1.00  0.00    -0.382 N 
HETATM   28  C19 UNL     1      25.203   8.341  49.439  1.00  0.00     0.150 C 
BRANCH  27  29
HETATM   29  C20 UNL     1      24.723   7.406  47.264  1.00  0.00     0.152 C 
BRANCH  29  30
HETATM   30  C21 UNL     1      23.540   8.238  46.976  1.00  0.00     0.291 C 
BRANCH  30  31
HETATM   31  N7  UNL     1      22.265   7.648  46.940  1.00  0.00     0.081 N 
HETATM   32  C22 UNL     1      21.455   7.786  48.095  1.00  0.00     0.309 C 
HETATM   33  C23 UNL     1      22.270   6.263  46.503  1.00  0.00     0.309 C 
ENDBRANCH  30  31
ENDBRANCH  29  30
ENDBRANCH  27  29
ENDBRANCH   6  27
TORSDOF 9
ENDMDL
MODEL 9
REMARK VINA RESULT:      -7.1      2.394      9.355
REMARK  9 active torsions:
REMARK  status: ('A' for Active; 'I' for Inactive)
REMARK    1  A    between atoms: C2_2  and  C3_3 
REMARK       I    between atoms: C3_3  and  N1_5 
REMARK    2  A    between atoms: N1_5  and  C4_6 
REMARK    3  A    between atoms: N2_8  and  C6_9 
REMARK    4  A    between atoms: C11_15  and  C12_16 
REMARK    5  A    between atoms: C15_21  and  O2_22 
REMARK    6  A    between atoms: C18_25  and  N6_26 
REMARK    7  A    between atoms: N6_26  and  C20_28 
REMARK    8  A    between atoms: C20_28  and  C21_29 
REMARK    9  A    between atoms: C21_29  and  N7_30 
ROOT
HETATM    1  C4  UNL     1      18.792  -0.416  52.454  1.00  0.00     0.077 C 
HETATM    2  C5  UNL     1      20.073  -0.293  52.746  1.00  0.00     0.144 C 
HETATM    3  N2  UNL     1      20.686   0.893  52.249  1.00  0.00    -0.155 N 
HETATM    4  C15 UNL     1      20.032   2.041  51.684  1.00  0.00     0.271 C 
HETATM    5  C17 UNL     1      18.585   1.801  51.380  1.00  0.00     0.059 C 
HETATM    6  C18 UNL     1      18.043   0.643  51.760  1.00  0.00     0.058 C 
ENDROOT
BRANCH   3   7
HETATM    7  C6  UNL     1      22.103   0.835  52.374  1.00  0.00     0.748 A 
HETATM    8  N3  UNL     1      22.558  -0.212  53.108  1.00  0.00    -0.071 NA
HETATM    9  C7  UNL     1      23.870  -0.401  53.301  1.00  0.00     0.168 A 
HETATM   10  C8  UNL     1      24.831   0.434  52.778  1.00  0.00     0.077 A 
HETATM   11  C9  UNL     1      26.197   0.439  52.837  1.00  0.00     0.035 A 
HETATM   12  N4  UNL     1      24.312   1.465  52.053  1.00  0.00    -0.221 N 
HETATM   13  C10 UNL     1      26.497   1.558  52.086  1.00  0.00     0.030 A 
HETATM   14  C11 UNL     1      25.359   2.203  51.595  1.00  0.00     0.041 A 
HETATM   15  N5  UNL     1      23.028   1.635  51.876  1.00  0.00     0.027 NA
BRANCH  14  16
HETATM   16  C12 UNL     1      25.451   3.439  50.743  1.00  0.00     0.038 A 
HETATM   17  C13 UNL     1      26.392   3.337  49.600  1.00  0.00     0.011 A 
HETATM   18  C14 UNL     1      24.939   3.316  49.342  1.00  0.00     0.011 A 
ENDBRANCH  14  16
ENDBRANCH   3   7
BRANCH   4  19
HETATM   19  O2  UNL     1      20.146   3.155  52.529  1.00  0.00    -0.367 OA
HETATM   20  C16 UNL     1      20.678   4.270  51.941  1.00  0.00     0.204 C 
ENDBRANCH   4  19
BRANCH   1  21
HETATM   21  N1  UNL     1      17.915  -1.386  52.741  1.00  0.00    -0.332 N 
HETATM   22  C3  UNL     1      17.005  -2.411  53.054  1.00  0.00     0.175 C 
HETATM   23  O1  UNL     1      17.762  -2.922  53.987  1.00  0.00    -0.172 OA
HETATM   24  H4  UNL     1      17.220  -1.055  51.955  1.00  0.00     0.168 HD
BRANCH  22  25
HETATM   25  C2  UNL     1      15.728  -2.972  52.726  1.00  0.00     0.032 C 
HETATM   26  C1  UNL     1      15.067  -2.645  51.629  1.00  0.00     0.035 C 
ENDBRANCH  22  25
ENDBRANCH   1  21
BRANCH   6  27
HETATM   27  N6  UNL     1      16.668   0.753  51.332  1.00  0.00    -0.382 N 
HETATM   28  C19 UNL     1      16.405   0.664  49.912  1.00  0.00     0.150 C 
BRANCH  27  29
HETATM   29  C20 UNL     1      15.492   0.939  52.131  1.00  0.00     0.152 C 
BRANCH  29  30
HETATM   30  C21 UNL     1      14.749   2.201  51.959  1.00  0.00     0.291 C 
BRANCH  30  31
HETATM   31  N7  UNL     1      15.432   3.427  52.029  1.00  0.00     0.081 N 
HETATM   32  C22 UNL     1      15.205   4.231  53.175  1.00  0.00     0.309 C 
HETATM   33  C23 UNL     1      15.313   4.236  50.829  1.00  0.00     0.309 C 
ENDBRANCH  30  31
ENDBRANCH  29  30
ENDBRANCH  27  29
ENDBRANCH   6  27
TORSDOF 9
ENDMDL
