MODEL 1
REMARK VINA RESULT:      -8.1      0.000      0.000
REMARK  3 active torsions:
REMARK  status: ('A' for Active; 'I' for Inactive)
REMARK    1  A    between atoms: O1_2  and  C2_3 
REMARK    2  A    between atoms: C5_6  and  C6_7 
REMARK    3  A    between atoms: C9_13  and  O2_14 
ROOT
HETATM    1  C6  UNL     1      24.375   2.198  51.963  1.00  0.00     0.067 C 
HETATM    2  N1  UNL     1      23.788   3.100  52.669  1.00  0.00    -0.179 NA
HETATM    3  N2  UNL     1      22.882   3.863  51.887  1.00  0.00    -0.279 N 
HETATM    4  C7  UNL     1      21.617   4.458  52.268  1.00  0.00     0.224 C 
HETATM    5  S1  UNL     1      20.171   3.488  51.911  1.00  0.00    -0.116 SA
HETATM    6  C8  UNL     1      20.208   2.562  50.402  1.00  0.00     0.102 C 
HETATM    7  C9  UNL     1      20.949   2.519  49.274  1.00  0.00     0.142 C 
HETATM    8  N3  UNL     1      22.102   3.243  48.763  1.00  0.00    -0.359 N 
HETATM    9  C10 UNL     1      22.761   4.303  49.475  1.00  0.00     0.158 A 
HETATM   10  C11 UNL     1      23.544   5.216  48.632  1.00  0.00     0.014 A 
HETATM   11 BR1  UNL     1      22.443   5.644  47.110  1.00  0.00    -0.053 Br
HETATM   12  C12 UNL     1      24.743   5.761  48.689  1.00  0.00     0.017 A 
HETATM   13  C13 UNL     1      25.503   5.375  49.857  1.00  0.00    -0.000 A 
HETATM   14  C14 UNL     1      24.870   4.530  50.649  1.00  0.00     0.009 A 
HETATM   15  C15 UNL     1      23.562   3.858  50.638  1.00  0.00     0.099 A 
HETATM   16  C16 UNL     1      23.854   2.326  50.548  1.00  0.00     0.101 C 
HETATM   17  H10 UNL     1      22.401   2.910  47.823  1.00  0.00     0.162 HD
ENDROOT
BRANCH   1  18
HETATM   18  C5  UNL     1      25.364   1.225  52.408  1.00  0.00    -0.010 A 
HETATM   19  C4  UNL     1      24.972   0.013  52.938  1.00  0.00     0.016 A 
HETATM   20  C3  UNL     1      25.970  -0.855  53.337  1.00  0.00     0.037 A 
HETATM   21  C2  UNL     1      27.314  -0.563  53.227  1.00  0.00     0.068 A 
HETATM   22  C18 UNL     1      27.709   0.667  52.689  1.00  0.00     0.037 A 
HETATM   23  C17 UNL     1      26.701   1.542  52.287  1.00  0.00     0.016 A 
BRANCH  21  24
HETATM   24  O1  UNL     1      28.290  -1.454  53.635  1.00  0.00    -0.356 OA
HETATM   25  C1  UNL     1      29.666  -1.131  53.664  1.00  0.00     0.210 C 
ENDBRANCH  21  24
ENDBRANCH   1  18
BRANCH   7  26
HETATM   26  O2  UNL     1      20.535   1.561  48.357  1.00  0.00    -0.346 OA
HETATM   27  H9  UNL     1      19.867   1.810  47.614  1.00  0.00     0.219 HD
ENDBRANCH   7  26
TORSDOF 3
ENDMDL
MODEL 2
REMARK VINA RESULT:      -7.7      2.679      3.952
REMARK  3 active torsions:
REMARK  status: ('A' for Active; 'I' for Inactive)
REMARK    1  A    between atoms: O1_2  and  C2_3 
REMARK    2  A    between atoms: C5_6  and  C6_7 
REMARK    3  A    between atoms: C9_13  and  O2_14 
ROOT
HETATM    1  C6  UNL     1      23.517   1.926  51.596  1.00  0.00     0.067 C 
HETATM    2  N1  UNL     1      23.390   1.667  50.341  1.00  0.00    -0.179 NA
HETATM    3  N2  UNL     1      22.321   2.403  49.766  1.00  0.00    -0.279 N 
HETATM    4  C7  UNL     1      22.200   2.954  48.430  1.00  0.00     0.224 C 
HETATM    5  S1  UNL     1      22.675   4.657  48.254  1.00  0.00    -0.116 SA
HETATM    6  C8  UNL     1      22.267   5.724  49.608  1.00  0.00     0.102 C 
HETATM    7  C9  UNL     1      21.485   5.687  50.707  1.00  0.00     0.142 C 
HETATM    8  N3  UNL     1      20.581   4.718  51.305  1.00  0.00    -0.359 N 
HETATM    9  C10 UNL     1      20.314   3.422  50.744  1.00  0.00     0.158 A 
HETATM   10  C11 UNL     1      19.052   2.811  51.183  1.00  0.00     0.014 A 
HETATM   11 BR1  UNL     1      17.705   4.184  51.070  1.00  0.00    -0.053 Br
HETATM   12  C12 UNL     1      18.674   1.620  51.604  1.00  0.00     0.017 A 
HETATM   13  C13 UNL     1      19.751   0.656  51.668  1.00  0.00    -0.000 A 
HETATM   14  C14 UNL     1      20.925   1.146  51.314  1.00  0.00     0.009 A 
HETATM   15  C15 UNL     1      21.428   2.454  50.871  1.00  0.00     0.099 A 
HETATM   16  C16 UNL     1      22.443   2.928  51.959  1.00  0.00     0.101 C 
HETATM   17  H10 UNL     1      20.147   5.062  52.187  1.00  0.00     0.162 HD
ENDROOT
BRANCH   1  18
HETATM   18  C5  UNL     1      24.496   1.371  52.522  1.00  0.00    -0.010 A 
HETATM   19  C4  UNL     1      24.340   0.100  53.036  1.00  0.00     0.016 A 
HETATM   20  C3  UNL     1      25.312  -0.352  53.907  1.00  0.00     0.037 A 
HETATM   21  C2  UNL     1      26.408   0.401  54.274  1.00  0.00     0.068 A 
HETATM   22  C18 UNL     1      26.565   1.689  53.751  1.00  0.00     0.037 A 
HETATM   23  C17 UNL     1      25.583   2.145  52.872  1.00  0.00     0.016 A 
BRANCH  21  24
HETATM   24  O1  UNL     1      27.365  -0.082  55.148  1.00  0.00    -0.356 OA
HETATM   25  C1  UNL     1      28.754   0.006  54.898  1.00  0.00     0.210 C 
ENDBRANCH  21  24
ENDBRANCH   1  18
BRANCH   7  26
HETATM   26  O2  UNL     1      21.529   6.844  51.476  1.00  0.00    -0.346 OA
HETATM   27  H9  UNL     1      22.288   6.985  52.157  1.00  0.00     0.219 HD
ENDBRANCH   7  26
TORSDOF 3
ENDMDL
MODEL 3
REMARK VINA RESULT:      -7.7      3.560      5.853
REMARK  3 active torsions:
REMARK  status: ('A' for Active; 'I' for Inactive)
REMARK    1  A    between atoms: O1_2  and  C2_3 
REMARK    2  A    between atoms: C5_6  and  C6_7 
REMARK    3  A    between atoms: C9_13  and  O2_14 
ROOT
HETATM    1  C6  UNL     1      23.885   4.056  50.026  1.00  0.00     0.067 C 
HETATM    2  N1  UNL     1      23.730   3.107  49.171  1.00  0.00    -0.179 NA
HETATM    3  N2  UNL     1      22.805   2.136  49.637  1.00  0.00    -0.279 N 
HETATM    4  C7  UNL     1      21.858   1.336  48.885  1.00  0.00     0.224 C 
HETATM    5  S1  UNL     1      20.207   1.987  48.789  1.00  0.00    -0.116 SA
HETATM    6  C8  UNL     1      19.605   2.802  50.241  1.00  0.00     0.102 C 
HETATM    7  C9  UNL     1      19.952   2.912  51.541  1.00  0.00     0.142 C 
HETATM    8  N3  UNL     1      21.021   2.390  52.376  1.00  0.00    -0.359 N 
HETATM    9  C10 UNL     1      22.062   1.524  51.894  1.00  0.00     0.158 A 
HETATM   10  C11 UNL     1      22.726   0.725  52.933  1.00  0.00     0.014 A 
HETATM   11 BR1  UNL     1      21.332  -0.005  54.045  1.00  0.00    -0.053 Br
HETATM   12  C12 UNL     1      23.972   0.424  53.242  1.00  0.00     0.017 A 
HETATM   13  C13 UNL     1      24.951   1.023  52.362  1.00  0.00    -0.000 A 
HETATM   14  C14 UNL     1      24.425   1.781  51.419  1.00  0.00     0.009 A 
HETATM   15  C15 UNL     1      23.067   2.189  51.033  1.00  0.00     0.099 A 
HETATM   16  C16 UNL     1      23.003   3.739  51.214  1.00  0.00     0.101 C 
HETATM   17  H10 UNL     1      20.954   2.712  53.364  1.00  0.00     0.162 HD
ENDROOT
BRANCH   1  18
HETATM   18  C5  UNL     1      24.743   5.227  49.907  1.00  0.00    -0.010 A 
HETATM   19  C4  UNL     1      24.480   6.372  50.631  1.00  0.00     0.016 A 
HETATM   20  C3  UNL     1      25.342   7.439  50.462  1.00  0.00     0.037 A 
HETATM   21  C2  UNL     1      26.433   7.403  49.618  1.00  0.00     0.068 A 
HETATM   22  C18 UNL     1      26.699   6.240  48.886  1.00  0.00     0.037 A 
HETATM   23  C17 UNL     1      25.828   5.165  49.057  1.00  0.00     0.016 A 
BRANCH  21  24
HETATM   24  O1  UNL     1      27.278   8.488  49.472  1.00  0.00    -0.356 OA
HETATM   25  C1  UNL     1      28.535   8.406  48.830  1.00  0.00     0.210 C 
ENDBRANCH  21  24
ENDBRANCH   1  18
BRANCH   7  26
HETATM   26  O2  UNL     1      19.099   3.711  52.292  1.00  0.00    -0.346 OA
HETATM   27  H9  UNL     1      19.482   4.433  52.918  1.00  0.00     0.219 HD
ENDBRANCH   7  26
TORSDOF 3
ENDMDL
MODEL 4
REMARK VINA RESULT:      -7.5      3.308      5.749
REMARK  3 active torsions:
REMARK  status: ('A' for Active; 'I' for Inactive)
REMARK    1  A    between atoms: O1_2  and  C2_3 
REMARK    2  A    between atoms: C5_6  and  C6_7 
REMARK    3  A    between atoms: C9_13  and  O2_14 
ROOT
HETATM    1  C6  UNL     1      20.676   1.848  51.962  1.00  0.00     0.067 C 
HETATM    2  N1  UNL     1      20.789   2.979  52.566  1.00  0.00    -0.179 NA
HETATM    3  N2  UNL     1      21.805   3.780  51.981  1.00  0.00    -0.279 N 
HETATM    4  C7  UNL     1      21.868   5.221  51.835  1.00  0.00     0.224 C 
HETATM    5  S1  UNL     1      21.301   5.862  50.278  1.00  0.00    -0.116 SA
HETATM    6  C8  UNL     1      21.682   4.887  48.849  1.00  0.00     0.102 C 
HETATM    7  C9  UNL     1      22.489   3.852  48.533  1.00  0.00     0.142 C 
HETATM    8  N3  UNL     1      23.455   3.034  49.248  1.00  0.00    -0.359 N 
HETATM    9  C10 UNL     1      23.777   3.208  50.637  1.00  0.00     0.158 A 
HETATM   10  C11 UNL     1      25.079   2.658  51.040  1.00  0.00     0.014 A 
HETATM   11 BR1  UNL     1      26.350   3.209  49.700  1.00  0.00    -0.053 Br
HETATM   12  C12 UNL     1      25.527   1.927  52.041  1.00  0.00     0.017 A 
HETATM   13  C13 UNL     1      24.504   1.550  52.991  1.00  0.00    -0.000 A 
HETATM   14  C14 UNL     1      23.299   1.987  52.676  1.00  0.00     0.009 A 
HETATM   15  C15 UNL     1      22.718   2.769  51.575  1.00  0.00     0.099 A 
HETATM   16  C16 UNL     1      21.704   1.827  50.852  1.00  0.00     0.101 C 
HETATM   17  H10 UNL     1      23.889   2.305  48.644  1.00  0.00     0.162 HD
ENDROOT
BRANCH   1  18
HETATM   18  C5  UNL     1      19.748   0.767  52.268  1.00  0.00    -0.010 A 
HETATM   19  C4  UNL     1      20.006  -0.113  53.298  1.00  0.00     0.016 A 
HETATM   20  C3  UNL     1      19.076  -1.110  53.524  1.00  0.00     0.037 A 
HETATM   21  C2  UNL     1      17.925  -1.255  52.777  1.00  0.00     0.068 A 
HETATM   22  C18 UNL     1      17.666  -0.360  51.733  1.00  0.00     0.037 A 
HETATM   23  C17 UNL     1      18.605   0.646  51.506  1.00  0.00     0.016 A 
BRANCH  21  24
HETATM   24  O1  UNL     1      17.014  -2.264  53.029  1.00  0.00    -0.356 OA
HETATM   25  C1  UNL     1      17.369  -3.492  53.632  1.00  0.00     0.210 C 
ENDBRANCH  21  24
ENDBRANCH   1  18
BRANCH   7  26
HETATM   26  O2  UNL     1      22.401   3.447  47.206  1.00  0.00    -0.346 OA
HETATM   27  H9  UNL     1      21.539   3.615  46.669  1.00  0.00     0.219 HD
ENDBRANCH   7  26
TORSDOF 3
ENDMDL
MODEL 5
REMARK VINA RESULT:      -7.4      3.688      5.791
REMARK  3 active torsions:
REMARK  status: ('A' for Active; 'I' for Inactive)
REMARK    1  A    between atoms: O1_2  and  C2_3 
REMARK    2  A    between atoms: C5_6  and  C6_7 
REMARK    3  A    between atoms: C9_13  and  O2_14 
ROOT
HETATM    1  C6  UNL     1      25.541   5.484  49.331  1.00  0.00     0.067 C 
HETATM    2  N1  UNL     1      24.675   6.191  49.968  1.00  0.00    -0.179 NA
HETATM    3  N2  UNL     1      23.620   5.388  50.475  1.00  0.00    -0.279 N 
HETATM    4  C7  UNL     1      22.856   5.541  51.697  1.00  0.00     0.224 C 
HETATM    5  S1  UNL     1      23.436   4.603  53.090  1.00  0.00    -0.116 SA
HETATM    6  C8  UNL     1      24.074   2.990  52.733  1.00  0.00     0.102 C 
HETATM    7  C9  UNL     1      24.071   2.122  51.698  1.00  0.00     0.142 C 
HETATM    8  N3  UNL     1      23.518   2.113  50.354  1.00  0.00    -0.359 N 
HETATM    9  C10 UNL     1      22.753   3.195  49.796  1.00  0.00     0.158 A 
HETATM   10  C11 UNL     1      21.887   2.818  48.671  1.00  0.00     0.014 A 
HETATM   11 BR1  UNL     1      20.987   1.194  49.187  1.00  0.00    -0.053 Br
HETATM   12  C12 UNL     1      21.615   3.314  47.480  1.00  0.00     0.017 A 
HETATM   13  C13 UNL     1      22.343   4.526  47.174  1.00  0.00    -0.000 A 
HETATM   14  C14 UNL     1      23.166   4.908  48.132  1.00  0.00     0.009 A 
HETATM   15  C15 UNL     1      23.547   4.398  49.457  1.00  0.00     0.099 A 
HETATM   16  C16 UNL     1      25.066   4.047  49.375  1.00  0.00     0.101 C 
HETATM   17  H10 UNL     1      23.737   1.237  49.835  1.00  0.00     0.162 HD
ENDROOT
BRANCH   1  18
HETATM   18  C5  UNL     1      26.756   5.946  48.675  1.00  0.00    -0.010 A 
HETATM   19  C4  UNL     1      26.796   7.175  48.049  1.00  0.00     0.016 A 
HETATM   20  C3  UNL     1      27.986   7.541  47.450  1.00  0.00     0.037 A 
HETATM   21  C2  UNL     1      29.112   6.743  47.456  1.00  0.00     0.068 A 
HETATM   22  C18 UNL     1      29.070   5.498  48.092  1.00  0.00     0.037 A 
HETATM   23  C17 UNL     1      27.868   5.130  48.695  1.00  0.00     0.016 A 
BRANCH  21  24
HETATM   24  O1  UNL     1      30.290   7.139  46.848  1.00  0.00    -0.356 OA
HETATM   25  C1  UNL     1      31.566   6.740  47.306  1.00  0.00     0.210 C 
ENDBRANCH  21  24
ENDBRANCH   1  18
BRANCH   7  26
HETATM   26  O2  UNL     1      24.751   0.936  51.949  1.00  0.00    -0.346 OA
HETATM   27  H9  UNL     1      25.770   0.943  52.089  1.00  0.00     0.219 HD
ENDBRANCH   7  26
TORSDOF 3
ENDMDL
MODEL 6
REMARK VINA RESULT:      -7.4      2.691      3.735
REMARK  3 active torsions:
REMARK  status: ('A' for Active; 'I' for Inactive)
REMARK    1  A    between atoms: O1_2  and  C2_3 
REMARK    2  A    between atoms: C5_6  and  C6_7 
REMARK    3  A    between atoms: C9_13  and  O2_14 
ROOT
HETATM    1  C6  UNL     1      24.624   2.967  50.895  1.00  0.00     0.067 C 
HETATM    2  N1  UNL     1      25.450   3.459  50.040  1.00  0.00    -0.179 NA
HETATM    3  N2  UNL     1      24.859   4.511  49.293  1.00  0.00    -0.279 N 
HETATM    4  C7  UNL     1      25.467   5.715  48.764  1.00  0.00     0.224 C 
HETATM    5  S1  UNL     1      25.320   7.164  49.783  1.00  0.00    -0.116 SA
HETATM    6  C8  UNL     1      23.793   7.347  50.661  1.00  0.00     0.102 C 
HETATM    7  C9  UNL     1      22.557   6.804  50.638  1.00  0.00     0.142 C 
HETATM    8  N3  UNL     1      21.888   5.781  49.851  1.00  0.00    -0.359 N 
HETATM    9  C10 UNL     1      22.519   5.052  48.786  1.00  0.00     0.158 A 
HETATM   10  C11 UNL     1      21.591   4.455  47.816  1.00  0.00     0.014 A 
HETATM   11 BR1  UNL     1      20.291   5.811  47.389  1.00  0.00    -0.053 Br
HETATM   12  C12 UNL     1      21.468   3.284  47.223  1.00  0.00     0.017 A 
HETATM   13  C13 UNL     1      22.479   2.325  47.611  1.00  0.00    -0.000 A 
HETATM   14  C14 UNL     1      23.332   2.785  48.506  1.00  0.00     0.009 A 
HETATM   15  C15 UNL     1      23.515   4.050  49.232  1.00  0.00     0.099 A 
HETATM   16  C16 UNL     1      23.321   3.722  50.747  1.00  0.00     0.101 C 
HETATM   17  H10 UNL     1      20.899   5.632  50.142  1.00  0.00     0.162 HD
ENDROOT
BRANCH   1  18
HETATM   18  C5  UNL     1      24.862   1.882  51.839  1.00  0.00    -0.010 A 
HETATM   19  C4  UNL     1      26.135   1.388  52.039  1.00  0.00     0.016 A 
HETATM   20  C3  UNL     1      26.278   0.360  52.951  1.00  0.00     0.037 A 
HETATM   21  C2  UNL     1      25.220  -0.178  53.654  1.00  0.00     0.068 A 
HETATM   22  C18 UNL     1      23.931   0.325  53.450  1.00  0.00     0.037 A 
HETATM   23  C17 UNL     1      23.788   1.362  52.529  1.00  0.00     0.016 A 
BRANCH  21  24
HETATM   24  O1  UNL     1      25.396  -1.207  54.561  1.00  0.00    -0.356 OA
HETATM   25  C1  UNL     1      24.673  -1.300  55.773  1.00  0.00     0.210 C 
ENDBRANCH  21  24
ENDBRANCH   1  18
BRANCH   7  26
HETATM   26  O2  UNL     1      21.687   7.332  51.585  1.00  0.00    -0.346 OA
HETATM   27  H9  UNL     1      21.072   6.709  52.127  1.00  0.00     0.219 HD
ENDBRANCH   7  26
TORSDOF 3
ENDMDL
MODEL 7
REMARK VINA RESULT:      -7.4      3.526      6.223
REMARK  3 active torsions:
REMARK  status: ('A' for Active; 'I' for Inactive)
REMARK    1  A    between atoms: O1_2  and  C2_3 
REMARK    2  A    between atoms: C5_6  and  C6_7 
REMARK    3  A    between atoms: C9_13  and  O2_14 
ROOT
HETATM    1  C6  UNL     1      24.251   4.908  49.967  1.00  0.00     0.067 C 
HETATM    2  N1  UNL     1      24.104   4.104  48.972  1.00  0.00    -0.179 NA
HETATM    3  N2  UNL     1      23.474   2.896  49.370  1.00  0.00    -0.279 N 
HETATM    4  C7  UNL     1      22.556   2.053  48.630  1.00  0.00     0.224 C 
HETATM    5  S1  UNL     1      20.829   2.349  48.927  1.00  0.00    -0.116 SA
HETATM    6  C8  UNL     1      20.384   2.764  50.590  1.00  0.00     0.102 C 
HETATM    7  C9  UNL     1      20.952   2.725  51.815  1.00  0.00     0.142 C 
HETATM    8  N3  UNL     1      22.237   2.307  52.349  1.00  0.00    -0.359 N 
HETATM    9  C10 UNL     1      23.302   1.772  51.545  1.00  0.00     0.158 A 
HETATM   10  C11 UNL     1      24.285   0.968  52.283  1.00  0.00     0.014 A 
HETATM   11 BR1  UNL     1      23.283  -0.214  53.428  1.00  0.00    -0.053 Br
HETATM   12  C12 UNL     1      25.600   0.888  52.326  1.00  0.00     0.017 A 
HETATM   13  C13 UNL     1      26.269   1.819  51.443  1.00  0.00    -0.000 A 
HETATM   14  C14 UNL     1      25.445   2.597  50.768  1.00  0.00     0.009 A 
HETATM   15  C15 UNL     1      23.987   2.769  50.690  1.00  0.00     0.099 A 
HETATM   16  C16 UNL     1      23.686   4.218  51.189  1.00  0.00     0.101 C 
HETATM   17  H10 UNL     1      22.306   2.437  53.380  1.00  0.00     0.162 HD
ENDROOT
BRANCH   1  18
HETATM   18  C5  UNL     1      24.849   6.236  49.954  1.00  0.00    -0.010 A 
HETATM   19  C4  UNL     1      24.197   7.310  50.526  1.00  0.00     0.016 A 
HETATM   20  C3  UNL     1      24.831   8.536  50.473  1.00  0.00     0.037 A 
HETATM   21  C2  UNL     1      26.065   8.724  49.885  1.00  0.00     0.068 A 
HETATM   22  C18 UNL     1      26.725   7.634  49.307  1.00  0.00     0.037 A 
HETATM   23  C17 UNL     1      26.084   6.397  49.360  1.00  0.00     0.016 A 
BRANCH  21  24
HETATM   24  O1  UNL     1      26.675   9.965  49.849  1.00  0.00    -0.356 OA
HETATM   25  C1  UNL     1      27.908  10.200  49.199  1.00  0.00     0.210 C 
ENDBRANCH  21  24
ENDBRANCH   1  18
BRANCH   7  26
HETATM   26  O2  UNL     1      20.132   3.189  52.837  1.00  0.00    -0.346 OA
HETATM   27  H9  UNL     1      19.109   3.098  52.762  1.00  0.00     0.219 HD
ENDBRANCH   7  26
TORSDOF 3
ENDMDL
MODEL 8
REMARK VINA RESULT:      -7.2      6.621      8.870
REMARK  3 active torsions:
REMARK  status: ('A' for Active; 'I' for Inactive)
REMARK    1  A    between atoms: O1_2  and  C2_3 
REMARK    2  A    between atoms: C5_6  and  C6_7 
REMARK    3  A    between atoms: C9_13  and  O2_14 
ROOT
HETATM    1  C6  UNL     1      28.227   6.267  48.218  1.00  0.00     0.067 C 
HETATM    2  N1  UNL     1      29.232   5.760  47.594  1.00  0.00    -0.179 NA
HETATM    3  N2  UNL     1      30.228   6.737  47.333  1.00  0.00    -0.279 N 
HETATM    4  C7  UNL     1      31.670   6.589  47.292  1.00  0.00     0.224 C 
HETATM    5  S1  UNL     1      32.527   6.984  48.798  1.00  0.00    -0.116 SA
HETATM    6  C8  UNL     1      31.880   8.344  49.729  1.00  0.00     0.102 C 
HETATM    7  C9  UNL     1      31.011   9.361  49.540  1.00  0.00     0.142 C 
HETATM    8  N3  UNL     1      30.179   9.823  48.441  1.00  0.00    -0.359 N 
HETATM    9  C10 UNL     1      30.124   9.182  47.156  1.00  0.00     0.158 A 
HETATM   10  C11 UNL     1      29.647  10.040  46.063  1.00  0.00     0.014 A 
HETATM   11 BR1  UNL     1      30.566  11.724  46.239  1.00  0.00    -0.053 Br
HETATM   12  C12 UNL     1      28.792   9.913  45.066  1.00  0.00     0.017 A 
HETATM   13  C13 UNL     1      28.141   8.622  45.018  1.00  0.00    -0.000 A 
HETATM   14  C14 UNL     1      28.502   7.808  45.992  1.00  0.00     0.009 A 
HETATM   15  C15 UNL     1      29.411   7.885  47.145  1.00  0.00     0.099 A 
HETATM   16  C16 UNL     1      28.520   7.738  48.419  1.00  0.00     0.101 C 
HETATM   17  H10 UNL     1      29.624  10.669  48.686  1.00  0.00     0.162 HD
ENDROOT
BRANCH   1  18
HETATM   18  C5  UNL     1      27.018   5.584  48.659  1.00  0.00    -0.010 A 
HETATM   19  C4  UNL     1      25.797   6.226  48.636  1.00  0.00     0.016 A 
HETATM   20  C3  UNL     1      24.699   5.510  49.070  1.00  0.00     0.037 A 
HETATM   21  C2  UNL     1      24.773   4.205  49.513  1.00  0.00     0.068 A 
HETATM   22  C18 UNL     1      26.013   3.556  49.534  1.00  0.00     0.037 A 
HETATM   23  C17 UNL     1      27.121   4.280  49.097  1.00  0.00     0.016 A 
BRANCH  21  24
HETATM   24  O1  UNL     1      23.654   3.514  49.940  1.00  0.00    -0.356 OA
HETATM   25  C1  UNL     1      23.683   2.578  51.000  1.00  0.00     0.210 C 
ENDBRANCH  21  24
ENDBRANCH   1  18
BRANCH   7  26
HETATM   26  O2  UNL     1      30.854  10.187  50.646  1.00  0.00    -0.346 OA
HETATM   27  H9  UNL     1      31.089   9.844  51.587  1.00  0.00     0.219 HD
ENDBRANCH   7  26
TORSDOF 3
ENDMDL
MODEL 9
REMARK VINA RESULT:      -7.1      6.282      8.431
REMARK  3 active torsions:
REMARK  status: ('A' for Active; 'I' for Inactive)
REMARK    1  A    between atoms: O1_2  and  C2_3 
REMARK    2  A    between atoms: C5_6  and  C6_7 
REMARK    3  A    between atoms: C9_13  and  O2_14 
ROOT
HETATM    1  C6  UNL     1      27.266   7.091  48.473  1.00  0.00     0.067 C 
HETATM    2  N1  UNL     1      27.635   7.230  47.247  1.00  0.00    -0.179 NA
HETATM    3  N2  UNL     1      28.271   8.481  47.035  1.00  0.00    -0.279 N 
HETATM    4  C7  UNL     1      29.357   8.817  46.136  1.00  0.00     0.224 C 
HETATM    5  S1  UNL     1      30.984   8.789  46.851  1.00  0.00    -0.116 SA
HETATM    6  C8  UNL     1      31.111   9.361  48.522  1.00  0.00     0.102 C 
HETATM    7  C9  UNL     1      30.349  10.040  49.406  1.00  0.00     0.142 C 
HETATM    8  N3  UNL     1      29.024  10.637  49.388  1.00  0.00    -0.359 N 
HETATM    9  C10 UNL     1      28.150  10.611  48.247  1.00  0.00     0.158 A 
HETATM   10  C11 UNL     1      27.115  11.653  48.242  1.00  0.00     0.014 A 
HETATM   11 BR1  UNL     1      27.988  13.302  48.725  1.00  0.00    -0.053 Br
HETATM   12  C12 UNL     1      25.820  11.698  47.998  1.00  0.00     0.017 A 
HETATM   13  C13 UNL     1      25.247  10.415  47.655  1.00  0.00    -0.000 A 
HETATM   14  C14 UNL     1      26.118   9.424  47.668  1.00  0.00     0.009 A 
HETATM   15  C15 UNL     1      27.552   9.287  47.959  1.00  0.00     0.099 A 
HETATM   16  C16 UNL     1      27.663   8.354  49.206  1.00  0.00     0.101 C 
HETATM   17  H10 UNL     1      28.773  11.086  50.293  1.00  0.00     0.162 HD
ENDROOT
BRANCH   1  18
HETATM   18  C5  UNL     1      26.588   5.950  49.073  1.00  0.00    -0.010 A 
HETATM   19  C4  UNL     1      25.403   6.115  49.760  1.00  0.00     0.016 A 
HETATM   20  C3  UNL     1      24.823   4.983  50.299  1.00  0.00     0.037 A 
HETATM   21  C2  UNL     1      25.369   3.721  50.177  1.00  0.00     0.068 A 
HETATM   22  C18 UNL     1      26.571   3.557  49.479  1.00  0.00     0.037 A 
HETATM   23  C17 UNL     1      27.156   4.700  48.936  1.00  0.00     0.016 A 
BRANCH  21  24
HETATM   24  O1  UNL     1      24.763   2.607  50.728  1.00  0.00    -0.356 OA
HETATM   25  C1  UNL     1      24.369   2.534  52.084  1.00  0.00     0.210 C 
ENDBRANCH  21  24
ENDBRANCH   1  18
BRANCH   7  26
HETATM   26  O2  UNL     1      30.950  10.234  50.644  1.00  0.00    -0.346 OA
HETATM   27  H9  UNL     1      31.707  10.923  50.749  1.00  0.00     0.219 HD
ENDBRANCH   7  26
TORSDOF 3
ENDMDL
