MODEL 1
REMARK VINA RESULT:      -7.1      0.000      0.000
REMARK  5 active torsions:
REMARK  status: ('A' for Active; 'I' for Inactive)
REMARK    1  A    between atoms: O1_2  and  C2_3 
REMARK    2  A    between atoms: C6_9  and  N3_10 
REMARK    3  A    between atoms: N3_10  and  C7_11 
REMARK    4  A    between atoms: C7_11  and  C8_12 
REMARK    5  A    between atoms: C14_18  and  O2_19 
ROOT
HETATM    1  C2  UNL     1      27.810   0.502  53.837  1.00  0.00     0.103 A 
HETATM    2  C3  UNL     1      27.927   1.355  52.758  1.00  0.00     0.072 A 
HETATM    3  C4  UNL     1      26.823   1.976  52.212  1.00  0.00     0.075 A 
HETATM    4  N1  UNL     1      26.943   2.805  51.162  1.00  0.00    -0.241 NA
HETATM    5  C5  UNL     1      25.858   3.420  50.618  1.00  0.00     0.235 A 
HETATM    6  N2  UNL     1      24.661   3.176  51.158  1.00  0.00    -0.224 NA
HETATM    7  C6  UNL     1      24.421   2.378  52.192  1.00  0.00     0.137 A 
HETATM    8  C12 UNL     1      25.551   1.778  52.708  1.00  0.00     0.041 A 
HETATM    9  C13 UNL     1      25.437   0.930  53.781  1.00  0.00     0.057 A 
HETATM   10  C14 UNL     1      26.527   0.300  54.342  1.00  0.00     0.102 A 
ENDROOT
BRANCH   7  11
HETATM   11  N3  UNL     1      23.107   2.182  52.696  1.00  0.00    -0.370 N 
HETATM   12  H6  UNL     1      22.665   2.729  53.463  1.00  0.00     0.161 HD
BRANCH  11  13
HETATM   13  C7  UNL     1      22.308   1.134  52.096  1.00  0.00     0.160 C 
BRANCH  13  14
HETATM   14  C8  UNL     1      22.033   0.051  53.086  1.00  0.00    -0.041 A 
HETATM   15  C9  UNL     1      22.302  -1.223  53.332  1.00  0.00     0.009 A 
HETATM   16  C10 UNL     1      21.488  -1.125  54.545  1.00  0.00     0.001 A 
HETATM   17  C11 UNL     1      21.213   0.156  54.303  1.00  0.00     0.009 A 
ENDBRANCH  13  14
ENDBRANCH  11  13
ENDBRANCH   7  11
BRANCH  10  18
HETATM   18  O2  UNL     1      26.365  -0.560  55.438  1.00  0.00    -0.353 OA
HETATM   19  C15 UNL     1      25.055  -0.972  55.779  1.00  0.00     0.210 C 
ENDBRANCH  10  18
BRANCH   1  20
HETATM   20  O1  UNL     1      28.852  -0.162  54.451  1.00  0.00    -0.353 OA
HETATM   21  C1  UNL     1      29.796  -0.959  53.804  1.00  0.00     0.210 C 
ENDBRANCH   1  20
TORSDOF 5
ENDMDL
MODEL 2
REMARK VINA RESULT:      -7.0      3.228      6.686
REMARK  5 active torsions:
REMARK  status: ('A' for Active; 'I' for Inactive)
REMARK    1  A    between atoms: O1_2  and  C2_3 
REMARK    2  A    between atoms: C6_9  and  N3_10 
REMARK    3  A    between atoms: N3_10  and  C7_11 
REMARK    4  A    between atoms: C7_11  and  C8_12 
REMARK    5  A    between atoms: C14_18  and  O2_19 
ROOT
HETATM    1  C2  UNL     1      20.762  -0.181  53.141  1.00  0.00     0.103 A 
HETATM    2  C3  UNL     1      21.203  -0.788  54.299  1.00  0.00     0.072 A 
HETATM    3  C4  UNL     1      22.546  -0.871  54.599  1.00  0.00     0.075 A 
HETATM    4  N1  UNL     1      22.969  -1.464  55.728  1.00  0.00    -0.241 NA
HETATM    5  C5  UNL     1      24.293  -1.549  56.030  1.00  0.00     0.235 A 
HETATM    6  N2  UNL     1      25.169  -1.025  55.168  1.00  0.00    -0.224 NA
HETATM    7  C6  UNL     1      24.869  -0.417  54.026  1.00  0.00     0.137 A 
HETATM    8  C12 UNL     1      23.516  -0.356  53.764  1.00  0.00     0.041 A 
HETATM    9  C13 UNL     1      23.077   0.247  52.613  1.00  0.00     0.057 A 
HETATM   10  C14 UNL     1      21.739   0.341  52.294  1.00  0.00     0.102 A 
ENDROOT
BRANCH   7  11
HETATM   11  N3  UNL     1      25.877   0.110  53.173  1.00  0.00    -0.370 N 
HETATM   12  H6  UNL     1      26.092   1.119  53.043  1.00  0.00     0.161 HD
BRANCH  11  13
HETATM   13  C7  UNL     1      26.677  -0.832  52.418  1.00  0.00     0.160 C 
BRANCH  13  14
HETATM   14  C8  UNL     1      28.051  -0.934  52.992  1.00  0.00    -0.041 A 
HETATM   15  C9  UNL     1      29.048  -1.791  53.151  1.00  0.00     0.009 A 
HETATM   16  C10 UNL     1      29.803  -0.736  53.829  1.00  0.00     0.001 A 
HETATM   17  C11 UNL     1      28.804   0.131  53.672  1.00  0.00     0.009 A 
ENDBRANCH  13  14
ENDBRANCH  11  13
ENDBRANCH   7  11
BRANCH  10  18
HETATM   18  O2  UNL     1      21.333   0.967  51.106  1.00  0.00    -0.353 OA
HETATM   19  C15 UNL     1      22.330   1.496  50.253  1.00  0.00     0.210 C 
ENDBRANCH  10  18
BRANCH   1  20
HETATM   20  O1  UNL     1      19.444  -0.050  52.755  1.00  0.00    -0.353 OA
HETATM   21  C1  UNL     1      18.414  -0.929  53.085  1.00  0.00     0.210 C 
ENDBRANCH   1  20
TORSDOF 5
ENDMDL
MODEL 3
REMARK VINA RESULT:      -7.0      1.576      4.578
REMARK  5 active torsions:
REMARK  status: ('A' for Active; 'I' for Inactive)
REMARK    1  A    between atoms: O1_2  and  C2_3 
REMARK    2  A    between atoms: C6_9  and  N3_10 
REMARK    3  A    between atoms: N3_10  and  C7_11 
REMARK    4  A    between atoms: C7_11  and  C8_12 
REMARK    5  A    between atoms: C14_18  and  O2_19 
ROOT
HETATM    1  C2  UNL     1      27.327  -0.305  53.559  1.00  0.00     0.103 A 
HETATM    2  C3  UNL     1      25.995  -0.666  53.560  1.00  0.00     0.072 A 
HETATM    3  C4  UNL     1      25.009   0.227  53.197  1.00  0.00     0.075 A 
HETATM    4  N1  UNL     1      23.714  -0.131  53.200  1.00  0.00    -0.241 NA
HETATM    5  C5  UNL     1      22.737   0.745  52.844  1.00  0.00     0.235 A 
HETATM    6  N2  UNL     1      23.099   1.981  52.488  1.00  0.00    -0.224 NA
HETATM    7  C6  UNL     1      24.343   2.446  52.446  1.00  0.00     0.137 A 
HETATM    8  C12 UNL     1      25.297   1.521  52.817  1.00  0.00     0.041 A 
HETATM    9  C13 UNL     1      26.622   1.879  52.816  1.00  0.00     0.057 A 
HETATM   10  C14 UNL     1      27.623   1.002  53.175  1.00  0.00     0.102 A 
ENDROOT
BRANCH   7  11
HETATM   11  N3  UNL     1      24.628   3.781  52.053  1.00  0.00    -0.370 N 
HETATM   12  H6  UNL     1      25.013   4.525  52.669  1.00  0.00     0.161 HD
BRANCH  11  13
HETATM   13  C7  UNL     1      24.362   4.146  50.677  1.00  0.00     0.160 C 
BRANCH  13  14
HETATM   14  C8  UNL     1      25.634   4.221  49.897  1.00  0.00    -0.041 A 
HETATM   15  C9  UNL     1      26.642   3.469  49.483  1.00  0.00     0.009 A 
HETATM   16  C10 UNL     1      27.216   4.653  48.841  1.00  0.00     0.001 A 
HETATM   17  C11 UNL     1      26.205   5.415  49.255  1.00  0.00     0.009 A 
ENDBRANCH  13  14
ENDBRANCH  11  13
ENDBRANCH   7  11
BRANCH  10  18
HETATM   18  O2  UNL     1      28.965   1.410  53.160  1.00  0.00    -0.353 OA
HETATM   19  C15 UNL     1      29.442   2.185  54.244  1.00  0.00     0.210 C 
ENDBRANCH  10  18
BRANCH   1  20
HETATM   20  O1  UNL     1      28.382  -1.125  53.904  1.00  0.00    -0.353 OA
HETATM   21  C1  UNL     1      28.903  -2.146  53.113  1.00  0.00     0.210 C 
ENDBRANCH   1  20
TORSDOF 5
ENDMDL
MODEL 4
REMARK VINA RESULT:      -6.7      1.960      5.416
REMARK  5 active torsions:
REMARK  status: ('A' for Active; 'I' for Inactive)
REMARK    1  A    between atoms: O1_2  and  C2_3 
REMARK    2  A    between atoms: C6_9  and  N3_10 
REMARK    3  A    between atoms: N3_10  and  C7_11 
REMARK    4  A    between atoms: C7_11  and  C8_12 
REMARK    5  A    between atoms: C14_18  and  O2_19 
ROOT
HETATM    1  C2  UNL     1      25.547   0.043  54.140  1.00  0.00     0.103 A 
HETATM    2  C3  UNL     1      24.383   0.091  53.400  1.00  0.00     0.072 A 
HETATM    3  C4  UNL     1      24.216   1.011  52.386  1.00  0.00     0.075 A 
HETATM    4  N1  UNL     1      23.080   1.053  51.669  1.00  0.00    -0.241 NA
HETATM    5  C5  UNL     1      22.908   1.958  50.668  1.00  0.00     0.235 A 
HETATM    6  N2  UNL     1      23.905   2.811  50.413  1.00  0.00    -0.224 NA
HETATM    7  C6  UNL     1      25.068   2.862  51.052  1.00  0.00     0.137 A 
HETATM    8  C12 UNL     1      25.194   1.926  52.058  1.00  0.00     0.041 A 
HETATM    9  C13 UNL     1      26.351   1.877  52.795  1.00  0.00     0.057 A 
HETATM   10  C14 UNL     1      26.539   0.966  53.813  1.00  0.00     0.102 A 
ENDROOT
BRANCH   7  11
HETATM   11  N3  UNL     1      26.069   3.809  50.706  1.00  0.00    -0.370 N 
HETATM   12  H6  UNL     1      26.323   4.652  51.261  1.00  0.00     0.161 HD
BRANCH  11  13
HETATM   13  C7  UNL     1      26.804   3.589  49.478  1.00  0.00     0.160 C 
BRANCH  13  14
HETATM   14  C8  UNL     1      27.254   4.888  48.894  1.00  0.00    -0.041 A 
HETATM   15  C9  UNL     1      28.315   5.474  48.362  1.00  0.00     0.009 A 
HETATM   16  C10 UNL     1      27.518   6.691  48.195  1.00  0.00     0.001 A 
HETATM   17  C11 UNL     1      26.447   6.107  48.730  1.00  0.00     0.009 A 
ENDBRANCH  13  14
ENDBRANCH  11  13
ENDBRANCH   7  11
BRANCH  10  18
HETATM   18  O2  UNL     1      27.738   0.950  54.540  1.00  0.00    -0.353 OA
HETATM   19  C15 UNL     1      28.912   1.420  53.907  1.00  0.00     0.210 C 
ENDBRANCH  10  18
BRANCH   1  20
HETATM   20  O1  UNL     1      25.807  -0.838  55.170  1.00  0.00    -0.353 OA
HETATM   21  C1  UNL     1      25.005  -1.025  56.295  1.00  0.00     0.210 C 
ENDBRANCH   1  20
TORSDOF 5
ENDMDL
MODEL 5
REMARK VINA RESULT:      -6.7      2.346      4.351
REMARK  5 active torsions:
REMARK  status: ('A' for Active; 'I' for Inactive)
REMARK    1  A    between atoms: O1_2  and  C2_3 
REMARK    2  A    between atoms: C6_9  and  N3_10 
REMARK    3  A    between atoms: N3_10  and  C7_11 
REMARK    4  A    between atoms: C7_11  and  C8_12 
REMARK    5  A    between atoms: C14_18  and  O2_19 
ROOT
HETATM    1  C2  UNL     1      26.399  -0.164  53.629  1.00  0.00     0.103 A 
HETATM    2  C3  UNL     1      25.459  -0.761  54.443  1.00  0.00     0.072 A 
HETATM    3  C4  UNL     1      24.109  -0.559  54.248  1.00  0.00     0.075 A 
HETATM    4  N1  UNL     1      23.198  -1.144  55.045  1.00  0.00    -0.241 NA
HETATM    5  C5  UNL     1      21.865  -0.948  54.859  1.00  0.00     0.235 A 
HETATM    6  N2  UNL     1      21.480  -0.153  53.856  1.00  0.00    -0.224 NA
HETATM    7  C6  UNL     1      22.286   0.475  53.007  1.00  0.00     0.137 A 
HETATM    8  C12 UNL     1      23.627   0.246  53.237  1.00  0.00     0.041 A 
HETATM    9  C13 UNL     1      24.563   0.839  52.428  1.00  0.00     0.057 A 
HETATM   10  C14 UNL     1      25.917   0.650  52.605  1.00  0.00     0.102 A 
ENDROOT
BRANCH   7  11
HETATM   11  N3  UNL     1      21.779   1.301  51.969  1.00  0.00    -0.370 N 
HETATM   12  H6  UNL     1      21.699   2.338  52.004  1.00  0.00     0.161 HD
BRANCH  11  13
HETATM   13  C7  UNL     1      21.333   0.653  50.753  1.00  0.00     0.160 C 
BRANCH  13  14
HETATM   14  C8  UNL     1      21.848   1.376  49.552  1.00  0.00    -0.041 A 
HETATM   15  C9  UNL     1      21.714   1.426  48.235  1.00  0.00     0.009 A 
HETATM   16  C10 UNL     1      22.714   2.495  48.209  1.00  0.00     0.001 A 
HETATM   17  C11 UNL     1      22.853   2.449  49.533  1.00  0.00     0.009 A 
ENDBRANCH  13  14
ENDBRANCH  11  13
ENDBRANCH   7  11
BRANCH  10  18
HETATM   18  O2  UNL     1      26.840   1.276  51.754  1.00  0.00    -0.353 OA
HETATM   19  C15 UNL     1      26.479   2.512  51.166  1.00  0.00     0.210 C 
ENDBRANCH  10  18
BRANCH   1  20
HETATM   20  O1  UNL     1      27.767  -0.305  53.743  1.00  0.00    -0.353 OA
HETATM   21  C1  UNL     1      28.544   0.179  54.795  1.00  0.00     0.210 C 
ENDBRANCH   1  20
TORSDOF 5
ENDMDL
MODEL 6
REMARK VINA RESULT:      -6.7      2.601      6.074
REMARK  5 active torsions:
REMARK  status: ('A' for Active; 'I' for Inactive)
REMARK    1  A    between atoms: O1_2  and  C2_3 
REMARK    2  A    between atoms: C6_9  and  N3_10 
REMARK    3  A    between atoms: N3_10  and  C7_11 
REMARK    4  A    between atoms: C7_11  and  C8_12 
REMARK    5  A    between atoms: C14_18  and  O2_19 
ROOT
HETATM    1  C2  UNL     1      22.781  -0.058  53.128  1.00  0.00     0.103 A 
HETATM    2  C3  UNL     1      24.013  -0.581  53.463  1.00  0.00     0.072 A 
HETATM    3  C4  UNL     1      25.183   0.061  53.113  1.00  0.00     0.075 A 
HETATM    4  N1  UNL     1      26.380  -0.454  53.441  1.00  0.00    -0.241 NA
HETATM    5  C5  UNL     1      27.538   0.173  53.100  1.00  0.00     0.235 A 
HETATM    6  N2  UNL     1      27.454   1.322  52.423  1.00  0.00    -0.224 NA
HETATM    7  C6  UNL     1      26.332   1.924  52.045  1.00  0.00     0.137 A 
HETATM    8  C12 UNL     1      25.186   1.250  52.414  1.00  0.00     0.041 A 
HETATM    9  C13 UNL     1      23.960   1.768  52.083  1.00  0.00     0.057 A 
HETATM   10  C14 UNL     1      22.778   1.144  52.422  1.00  0.00     0.102 A 
ENDROOT
BRANCH   7  11
HETATM   11  N3  UNL     1      26.346   3.149  51.326  1.00  0.00    -0.370 N 
HETATM   12  H6  UNL     1      26.213   4.095  51.739  1.00  0.00     0.161 HD
BRANCH  11  13
HETATM   13  C7  UNL     1      26.565   3.085  49.896  1.00  0.00     0.160 C 
BRANCH  13  14
HETATM   14  C8  UNL     1      26.670   4.458  49.318  1.00  0.00    -0.041 A 
HETATM   15  C9  UNL     1      25.990   5.588  49.197  1.00  0.00     0.009 A 
HETATM   16  C10 UNL     1      27.122   6.151  48.459  1.00  0.00     0.001 A 
HETATM   17  C11 UNL     1      27.811   5.017  48.577  1.00  0.00     0.009 A 
ENDBRANCH  13  14
ENDBRANCH  11  13
ENDBRANCH   7  11
BRANCH  10  18
HETATM   18  O2  UNL     1      21.546   1.709  52.063  1.00  0.00    -0.353 OA
HETATM   19  C15 UNL     1      21.552   2.912  51.318  1.00  0.00     0.210 C 
ENDBRANCH  10  18
BRANCH   1  20
HETATM   20  O1  UNL     1      21.559  -0.624  53.433  1.00  0.00    -0.353 OA
HETATM   21  C1  UNL     1      21.330  -1.554  54.445  1.00  0.00     0.210 C 
ENDBRANCH   1  20
TORSDOF 5
ENDMDL
MODEL 7
REMARK VINA RESULT:      -6.5      2.199      3.986
REMARK  5 active torsions:
REMARK  status: ('A' for Active; 'I' for Inactive)
REMARK    1  A    between atoms: O1_2  and  C2_3 
REMARK    2  A    between atoms: C6_9  and  N3_10 
REMARK    3  A    between atoms: N3_10  and  C7_11 
REMARK    4  A    between atoms: C7_11  and  C8_12 
REMARK    5  A    between atoms: C14_18  and  O2_19 
ROOT
HETATM    1  C2  UNL     1      27.463   0.688  53.524  1.00  0.00     0.103 A 
HETATM    2  C3  UNL     1      26.861  -0.097  54.485  1.00  0.00     0.072 A 
HETATM    3  C4  UNL     1      25.508  -0.362  54.452  1.00  0.00     0.075 A 
HETATM    4  N1  UNL     1      24.928  -1.127  55.391  1.00  0.00    -0.241 NA
HETATM    5  C5  UNL     1      23.593  -1.390  55.365  1.00  0.00     0.235 A 
HETATM    6  N2  UNL     1      22.868  -0.864  54.373  1.00  0.00    -0.224 NA
HETATM    7  C6  UNL     1      23.331  -0.096  53.393  1.00  0.00     0.137 A 
HETATM    8  C12 UNL     1      24.687   0.142  53.464  1.00  0.00     0.041 A 
HETATM    9  C13 UNL     1      25.287   0.923  52.508  1.00  0.00     0.057 A 
HETATM   10  C14 UNL     1      26.638   1.199  52.523  1.00  0.00     0.102 A 
ENDROOT
BRANCH   7  11
HETATM   11  N3  UNL     1      22.477   0.417  52.380  1.00  0.00    -0.370 N 
HETATM   12  H6  UNL     1      22.560   0.222  51.362  1.00  0.00     0.161 HD
BRANCH  11  13
HETATM   13  C7  UNL     1      21.395   1.288  52.792  1.00  0.00     0.160 C 
BRANCH  13  14
HETATM   14  C8  UNL     1      21.664   2.695  52.372  1.00  0.00    -0.041 A 
HETATM   15  C9  UNL     1      22.658   3.553  52.194  1.00  0.00     0.009 A 
HETATM   16  C10 UNL     1      21.673   4.555  51.783  1.00  0.00     0.001 A 
HETATM   17  C11 UNL     1      20.670   3.698  51.960  1.00  0.00     0.009 A 
ENDBRANCH  13  14
ENDBRANCH  11  13
ENDBRANCH   7  11
BRANCH  10  18
HETATM   18  O2  UNL     1      27.211   2.002  51.526  1.00  0.00    -0.353 OA
HETATM   19  C15 UNL     1      26.368   2.887  50.812  1.00  0.00     0.210 C 
ENDBRANCH  10  18
BRANCH   1  20
HETATM   20  O1  UNL     1      28.805   1.007  53.472  1.00  0.00    -0.353 OA
HETATM   21  C1  UNL     1      29.856   0.097  53.572  1.00  0.00     0.210 C 
ENDBRANCH   1  20
TORSDOF 5
ENDMDL
MODEL 8
REMARK VINA RESULT:      -6.4      2.276      5.446
REMARK  5 active torsions:
REMARK  status: ('A' for Active; 'I' for Inactive)
REMARK    1  A    between atoms: O1_2  and  C2_3 
REMARK    2  A    between atoms: C6_9  and  N3_10 
REMARK    3  A    between atoms: N3_10  and  C7_11 
REMARK    4  A    between atoms: C7_11  and  C8_12 
REMARK    5  A    between atoms: C14_18  and  O2_19 
ROOT
HETATM    1  C2  UNL     1      21.748   0.632  52.048  1.00  0.00     0.103 A 
HETATM    2  C3  UNL     1      22.299   1.397  51.041  1.00  0.00     0.072 A 
HETATM    3  C4  UNL     1      23.585   1.888  51.134  1.00  0.00     0.075 A 
HETATM    4  N1  UNL     1      24.116   2.633  50.150  1.00  0.00    -0.241 NA
HETATM    5  C5  UNL     1      25.383   3.120  50.236  1.00  0.00     0.235 A 
HETATM    6  N2  UNL     1      26.092   2.838  51.332  1.00  0.00    -0.224 NA
HETATM    7  C6  UNL     1      25.674   2.114  52.365  1.00  0.00     0.137 A 
HETATM    8  C12 UNL     1      24.384   1.643  52.231  1.00  0.00     0.041 A 
HETATM    9  C13 UNL     1      23.835   0.882  53.232  1.00  0.00     0.057 A 
HETATM   10  C14 UNL     1      22.552   0.382  53.159  1.00  0.00     0.102 A 
ENDROOT
BRANCH   7  11
HETATM   11  N3  UNL     1      26.506   1.868  53.490  1.00  0.00    -0.370 N 
HETATM   12  H6  UNL     1      26.176   1.618  54.445  1.00  0.00     0.161 HD
BRANCH  11  13
HETATM   13  C7  UNL     1      27.938   1.971  53.301  1.00  0.00     0.160 C 
BRANCH  13  14
HETATM   14  C8  UNL     1      28.580   0.626  53.394  1.00  0.00    -0.041 A 
HETATM   15  C9  UNL     1      29.725   0.043  53.717  1.00  0.00     0.009 A 
HETATM   16  C10 UNL     1      29.113  -1.251  53.408  1.00  0.00     0.001 A 
HETATM   17  C11 UNL     1      27.959  -0.670  53.082  1.00  0.00     0.009 A 
ENDBRANCH  13  14
ENDBRANCH  11  13
ENDBRANCH   7  11
BRANCH  10  18
HETATM   18  O2  UNL     1      22.030  -0.392  54.205  1.00  0.00    -0.353 OA
HETATM   19  C15 UNL     1      22.920  -1.206  54.946  1.00  0.00     0.210 C 
ENDBRANCH  10  18
BRANCH   1  20
HETATM   20  O1  UNL     1      20.475   0.098  52.046  1.00  0.00    -0.353 OA
HETATM   21  C1  UNL     1      19.397   0.583  51.308  1.00  0.00     0.210 C 
ENDBRANCH   1  20
TORSDOF 5
ENDMDL
MODEL 9
REMARK VINA RESULT:      -6.3      2.908      4.318
REMARK  5 active torsions:
REMARK  status: ('A' for Active; 'I' for Inactive)
REMARK    1  A    between atoms: O1_2  and  C2_3 
REMARK    2  A    between atoms: C6_9  and  N3_10 
REMARK    3  A    between atoms: N3_10  and  C7_11 
REMARK    4  A    between atoms: C7_11  and  C8_12 
REMARK    5  A    between atoms: C14_18  and  O2_19 
ROOT
HETATM    1  C2  UNL     1      25.760   3.242  50.864  1.00  0.00     0.103 A 
HETATM    2  C3  UNL     1      26.631   2.220  51.181  1.00  0.00     0.072 A 
HETATM    3  C4  UNL     1      26.239   1.164  51.977  1.00  0.00     0.075 A 
HETATM    4  N1  UNL     1      27.092   0.172  52.283  1.00  0.00    -0.241 NA
HETATM    5  C5  UNL     1      26.711  -0.872  53.067  1.00  0.00     0.235 A 
HETATM    6  N2  UNL     1      25.458  -0.887  53.530  1.00  0.00    -0.224 NA
HETATM    7  C6  UNL     1      24.530   0.034  53.294  1.00  0.00     0.137 A 
HETATM    8  C12 UNL     1      24.964   1.072  52.495  1.00  0.00     0.041 A 
HETATM    9  C13 UNL     1      24.098   2.088  52.178  1.00  0.00     0.057 A 
HETATM   10  C14 UNL     1      24.470   3.153  51.385  1.00  0.00     0.102 A 
ENDROOT
BRANCH   7  11
HETATM   11  N3  UNL     1      23.219  -0.071  53.833  1.00  0.00    -0.370 N 
HETATM   12  H6  UNL     1      22.857   0.459  54.652  1.00  0.00     0.161 HD
BRANCH  11  13
HETATM   13  C7  UNL     1      22.303  -0.992  53.194  1.00  0.00     0.160 C 
BRANCH  13  14
HETATM   14  C8  UNL     1      21.194  -0.251  52.523  1.00  0.00    -0.041 A 
HETATM   15  C9  UNL     1      19.982   0.233  52.751  1.00  0.00     0.009 A 
HETATM   16  C10 UNL     1      19.953   0.717  51.369  1.00  0.00     0.001 A 
HETATM   17  C11 UNL     1      21.171   0.232  51.134  1.00  0.00     0.009 A 
ENDBRANCH  13  14
ENDBRANCH  11  13
ENDBRANCH   7  11
BRANCH  10  18
HETATM   18  O2  UNL     1      23.553   4.171  51.085  1.00  0.00    -0.353 OA
HETATM   19  C15 UNL     1      23.229   5.101  52.101  1.00  0.00     0.210 C 
ENDBRANCH  10  18
BRANCH   1  20
HETATM   20  O1  UNL     1      26.058   4.336  50.078  1.00  0.00    -0.353 OA
HETATM   21  C1  UNL     1      26.995   4.358  49.045  1.00  0.00     0.210 C 
ENDBRANCH   1  20
TORSDOF 5
ENDMDL
