MODEL 1
REMARK VINA RESULT:      -8.5      0.000      0.000
REMARK  5 active torsions:
REMARK  status: ('A' for Active; 'I' for Inactive)
REMARK    1  A    between atoms: C2_2  and  O1_3 
REMARK    2  A    between atoms: C2_2  and  C14_19 
REMARK    3  A    between atoms: O1_3  and  C3_4 
REMARK    4  A    between atoms: C6_7  and  N1_8 
REMARK    5  A    between atoms: N1_8  and  C7_9 
ROOT
HETATM    1  C3  UNL     1      22.537   2.711  51.842  1.00  0.00     0.069 A 
HETATM    2  C4  UNL     1      23.187   2.587  50.613  1.00  0.00     0.039 A 
HETATM    3  C5  UNL     1      24.566   2.578  50.517  1.00  0.00     0.032 A 
HETATM    4  C6  UNL     1      25.337   2.693  51.651  1.00  0.00     0.030 A 
HETATM    5  C12 UNL     1      24.704   2.815  52.875  1.00  0.00     0.032 A 
HETATM    6  C13 UNL     1      23.333   2.824  52.962  1.00  0.00     0.039 A 
ENDROOT
BRANCH   4   7
HETATM    7  N1  UNL     1      26.773   2.688  51.585  1.00  0.00    -0.349 N 
HETATM    8  H7  UNL     1      27.242   3.181  50.805  1.00  0.00     0.162 HD
BRANCH   7   9
HETATM    9  C7  UNL     1      27.532   1.939  52.690  1.00  0.00     0.306 A 
HETATM   10  C8  UNL     1      27.131   0.517  52.339  1.00  0.00     0.085 A 
HETATM   11  C9  UNL     1      27.519  -0.899  53.037  1.00  0.00     0.136 A 
HETATM   12 CL1  UNL     1      26.688  -2.071  52.083  1.00  0.00    -0.062 Cl
HETATM   13  N2  UNL     1      28.478  -0.802  54.300  1.00  0.00    -0.196 NA
HETATM   14  C10 UNL     1      28.488   0.536  54.141  1.00  0.00     0.009 A 
HETATM   15  C11 UNL     1      28.482   1.531  54.004  1.00  0.00     0.343 A 
HETATM   16  N3  UNL     1      28.457   2.711  53.819  1.00  0.00     0.152 N 
HETATM   17  H9  UNL     1      28.136   3.509  53.291  1.00  0.00     0.322 HD
ENDBRANCH   7   9
ENDBRANCH   4   7
BRANCH   1  18
HETATM   18  O1  UNL     1      21.176   2.697  51.709  1.00  0.00    -0.342 OA
BRANCH  18  19
HETATM   19  C2  UNL     1      20.331   1.579  51.852  1.00  0.00     0.158 C 
HETATM   20  C1  UNL     1      20.117   1.001  50.464  1.00  0.00     0.045 C 
BRANCH  19  21
HETATM   21  C14 UNL     1      21.014   0.576  52.737  1.00  0.00    -0.029 A 
HETATM   22  C15 UNL     1      21.924  -0.354  52.277  1.00  0.00     0.010 A 
HETATM   23  C16 UNL     1      22.523  -1.255  53.135  1.00  0.00     0.001 A 
HETATM   24  C17 UNL     1      22.144  -1.153  54.471  1.00  0.00     0.000 A 
HETATM   25  C18 UNL     1      21.237  -0.234  54.960  1.00  0.00     0.001 A 
HETATM   26  C19 UNL     1      20.656   0.652  54.074  1.00  0.00     0.010 A 
ENDBRANCH  19  21
ENDBRANCH  18  19
ENDBRANCH   1  18
TORSDOF 5
ENDMDL
MODEL 2
REMARK VINA RESULT:      -8.4      4.115      6.676
REMARK  5 active torsions:
REMARK  status: ('A' for Active; 'I' for Inactive)
REMARK    1  A    between atoms: C2_2  and  O1_3 
REMARK    2  A    between atoms: C2_2  and  C14_19 
REMARK    3  A    between atoms: O1_3  and  C3_4 
REMARK    4  A    between atoms: C6_7  and  N1_8 
REMARK    5  A    between atoms: N1_8  and  C7_9 
ROOT
HETATM    1  C3  UNL     1      25.488   1.567  51.611  1.00  0.00     0.069 A 
HETATM    2  C4  UNL     1      24.239   2.077  51.255  1.00  0.00     0.039 A 
HETATM    3  C5  UNL     1      24.111   3.172  50.420  1.00  0.00     0.032 A 
HETATM    4  C6  UNL     1      25.233   3.788  49.914  1.00  0.00     0.030 A 
HETATM    5  C12 UNL     1      26.477   3.290  50.259  1.00  0.00     0.032 A 
HETATM    6  C13 UNL     1      26.595   2.202  51.090  1.00  0.00     0.039 A 
ENDROOT
BRANCH   4   7
HETATM    7  N1  UNL     1      25.134   4.928  49.043  1.00  0.00    -0.349 N 
HETATM    8  H7  UNL     1      24.735   4.803  48.096  1.00  0.00     0.162 HD
BRANCH   7   9
HETATM    9  C7  UNL     1      25.635   6.276  49.580  1.00  0.00     0.306 A 
HETATM   10  C8  UNL     1      26.641   6.611  48.492  1.00  0.00     0.085 A 
HETATM   11  C9  UNL     1      27.620   7.896  48.310  1.00  0.00     0.136 A 
HETATM   12 CL1  UNL     1      28.463   7.568  46.843  1.00  0.00    -0.062 Cl
HETATM   13  N2  UNL     1      27.524   9.000  49.450  1.00  0.00    -0.196 NA
HETATM   14  C10 UNL     1      26.588   8.240  50.053  1.00  0.00     0.009 A 
HETATM   15  C11 UNL     1      25.892   7.658  50.484  1.00  0.00     0.343 A 
HETATM   16  N3  UNL     1      25.068   6.948  50.978  1.00  0.00     0.152 N 
HETATM   17  H9  UNL     1      24.520   6.101  50.964  1.00  0.00     0.322 HD
ENDBRANCH   7   9
ENDBRANCH   4   7
BRANCH   1  18
HETATM   18  O1  UNL     1      25.385   0.487  52.443  1.00  0.00    -0.342 OA
BRANCH  18  19
HETATM   19  C2  UNL     1      25.905   0.380  53.747  1.00  0.00     0.158 C 
HETATM   20  C1  UNL     1      25.059  -0.644  54.483  1.00  0.00     0.045 C 
BRANCH  19  21
HETATM   21  C14 UNL     1      27.329  -0.088  53.654  1.00  0.00    -0.029 A 
HETATM   22  C15 UNL     1      27.696  -1.332  53.182  1.00  0.00     0.010 A 
HETATM   23  C16 UNL     1      29.022  -1.712  53.118  1.00  0.00     0.001 A 
HETATM   24  C17 UNL     1      29.939  -0.761  53.558  1.00  0.00     0.000 A 
HETATM   25  C18 UNL     1      29.603   0.490  54.036  1.00  0.00     0.001 A 
HETATM   26  C19 UNL     1      28.267   0.837  54.086  1.00  0.00     0.010 A 
ENDBRANCH  19  21
ENDBRANCH  18  19
ENDBRANCH   1  18
TORSDOF 5
ENDMDL
MODEL 3
REMARK VINA RESULT:      -8.1      4.704      6.912
REMARK  5 active torsions:
REMARK  status: ('A' for Active; 'I' for Inactive)
REMARK    1  A    between atoms: C2_2  and  O1_3 
REMARK    2  A    between atoms: C2_2  and  C14_19 
REMARK    3  A    between atoms: O1_3  and  C3_4 
REMARK    4  A    between atoms: C6_7  and  N1_8 
REMARK    5  A    between atoms: N1_8  and  C7_9 
ROOT
HETATM    1  C3  UNL     1      25.489   2.712  50.926  1.00  0.00     0.069 A 
HETATM    2  C4  UNL     1      26.571   2.957  50.078  1.00  0.00     0.039 A 
HETATM    3  C5  UNL     1      26.659   4.116  49.329  1.00  0.00     0.032 A 
HETATM    4  C6  UNL     1      25.666   5.066  49.407  1.00  0.00     0.030 A 
HETATM    5  C12 UNL     1      24.590   4.834  50.245  1.00  0.00     0.032 A 
HETATM    6  C13 UNL     1      24.509   3.680  50.986  1.00  0.00     0.039 A 
ENDROOT
BRANCH   4   7
HETATM    7  N1  UNL     1      25.728   6.280  48.641  1.00  0.00    -0.349 N 
HETATM    8  H7  UNL     1      25.271   6.313  47.712  1.00  0.00     0.162 HD
BRANCH   7   9
HETATM    9  C7  UNL     1      26.482   7.469  49.254  1.00  0.00     0.306 A 
HETATM   10  C8  UNL     1      27.692   7.489  48.336  1.00  0.00     0.085 A 
HETATM   11  C9  UNL     1      28.992   8.465  48.313  1.00  0.00     0.136 A 
HETATM   12 CL1  UNL     1      29.928   7.874  46.992  1.00  0.00    -0.062 Cl
HETATM   13  N2  UNL     1      29.021   9.596  49.429  1.00  0.00    -0.196 NA
HETATM   14  C10 UNL     1      27.838   9.130  49.877  1.00  0.00     0.009 A 
HETATM   15  C11 UNL     1      26.957   8.768  50.194  1.00  0.00     0.343 A 
HETATM   16  N3  UNL     1      25.910   8.316  50.551  1.00  0.00     0.152 N 
HETATM   17  H9  UNL     1      25.166   7.643  50.449  1.00  0.00     0.322 HD
ENDBRANCH   7   9
ENDBRANCH   4   7
BRANCH   1  18
HETATM   18  O1  UNL     1      25.602   1.511  51.569  1.00  0.00    -0.342 OA
BRANCH  18  19
HETATM   19  C2  UNL     1      25.788   1.314  52.951  1.00  0.00     0.158 C 
HETATM   20  C1  UNL     1      24.653   0.428  53.433  1.00  0.00     0.045 C 
BRANCH  19  21
HETATM   21  C14 UNL     1      27.110   0.632  53.161  1.00  0.00    -0.029 A 
HETATM   22  C15 UNL     1      28.255   1.292  53.560  1.00  0.00     0.010 A 
HETATM   23  C16 UNL     1      29.446   0.616  53.737  1.00  0.00     0.001 A 
HETATM   24  C17 UNL     1      29.401  -0.754  53.488  1.00  0.00     0.000 A 
HETATM   25  C18 UNL     1      28.271  -1.440  53.088  1.00  0.00     0.001 A 
HETATM   26  C19 UNL     1      27.097  -0.732  52.920  1.00  0.00     0.010 A 
ENDBRANCH  19  21
ENDBRANCH  18  19
ENDBRANCH   1  18
TORSDOF 5
ENDMDL
MODEL 4
REMARK VINA RESULT:      -8.0      4.578      6.082
REMARK  5 active torsions:
REMARK  status: ('A' for Active; 'I' for Inactive)
REMARK    1  A    between atoms: C2_2  and  O1_3 
REMARK    2  A    between atoms: C2_2  and  C14_19 
REMARK    3  A    between atoms: O1_3  and  C3_4 
REMARK    4  A    between atoms: C6_7  and  N1_8 
REMARK    5  A    between atoms: N1_8  and  C7_9 
ROOT
HETATM    1  C3  UNL     1      25.435   2.601  51.729  1.00  0.00     0.069 A 
HETATM    2  C4  UNL     1      24.447   3.581  51.623  1.00  0.00     0.039 A 
HETATM    3  C5  UNL     1      24.515   4.583  50.672  1.00  0.00     0.032 A 
HETATM    4  C6  UNL     1      25.576   4.632  49.798  1.00  0.00     0.030 A 
HETATM    5  C12 UNL     1      26.562   3.666  49.893  1.00  0.00     0.032 A 
HETATM    6  C13 UNL     1      26.487   2.674  50.840  1.00  0.00     0.039 A 
ENDROOT
BRANCH   4   7
HETATM    7  N1  UNL     1      25.677   5.662  48.799  1.00  0.00    -0.349 N 
HETATM    8  H7  UNL     1      25.284   5.487  47.857  1.00  0.00     0.162 HD
BRANCH   7   9
HETATM    9  C7  UNL     1      26.371   6.972  49.197  1.00  0.00     0.306 A 
HETATM   10  C8  UNL     1      27.097   7.266  47.896  1.00  0.00     0.085 A 
HETATM   11  C9  UNL     1      28.074   8.498  47.479  1.00  0.00     0.136 A 
HETATM   12 CL1  UNL     1      28.511   8.145  45.850  1.00  0.00    -0.062 Cl
HETATM   13  N2  UNL     1      28.325   9.587  48.608  1.00  0.00    -0.196 NA
HETATM   14  C10 UNL     1      27.523   8.872  49.422  1.00  0.00     0.009 A 
HETATM   15  C11 UNL     1      26.922   8.324  50.011  1.00  0.00     0.343 A 
HETATM   16  N3  UNL     1      26.204   7.653  50.692  1.00  0.00     0.152 N 
HETATM   17  H9  UNL     1      25.621   6.839  50.812  1.00  0.00     0.322 HD
ENDBRANCH   7   9
ENDBRANCH   4   7
BRANCH   1  18
HETATM   18  O1  UNL     1      25.171   1.711  52.733  1.00  0.00    -0.342 OA
BRANCH  18  19
HETATM   19  C2  UNL     1      24.811   0.357  52.581  1.00  0.00     0.158 C 
HETATM   20  C1  UNL     1      25.915  -0.472  53.212  1.00  0.00     0.045 C 
BRANCH  19  21
HETATM   21  C14 UNL     1      23.510   0.128  53.296  1.00  0.00    -0.029 A 
HETATM   22  C15 UNL     1      22.355   0.831  53.023  1.00  0.00     0.010 A 
HETATM   23  C16 UNL     1      21.184   0.581  53.712  1.00  0.00     0.001 A 
HETATM   24  C17 UNL     1      21.261  -0.416  54.682  1.00  0.00     0.000 A 
HETATM   25  C18 UNL     1      22.402  -1.135  54.976  1.00  0.00     0.001 A 
HETATM   26  C19 UNL     1      23.555  -0.859  54.268  1.00  0.00     0.010 A 
ENDBRANCH  19  21
ENDBRANCH  18  19
ENDBRANCH   1  18
TORSDOF 5
ENDMDL
MODEL 5
REMARK VINA RESULT:      -8.0      5.068      6.252
REMARK  5 active torsions:
REMARK  status: ('A' for Active; 'I' for Inactive)
REMARK    1  A    between atoms: C2_2  and  O1_3 
REMARK    2  A    between atoms: C2_2  and  C14_19 
REMARK    3  A    between atoms: O1_3  and  C3_4 
REMARK    4  A    between atoms: C6_7  and  N1_8 
REMARK    5  A    between atoms: N1_8  and  C7_9 
ROOT
HETATM    1  C3  UNL     1      25.618   4.788  49.891  1.00  0.00     0.069 A 
HETATM    2  C4  UNL     1      25.619   6.167  49.679  1.00  0.00     0.039 A 
HETATM    3  C5  UNL     1      26.628   6.794  48.970  1.00  0.00     0.032 A 
HETATM    4  C6  UNL     1      27.667   6.056  48.451  1.00  0.00     0.030 A 
HETATM    5  C12 UNL     1      27.676   4.687  48.654  1.00  0.00     0.032 A 
HETATM    6  C13 UNL     1      26.671   4.072  49.360  1.00  0.00     0.039 A 
ENDROOT
BRANCH   4   7
HETATM    7  N1  UNL     1      28.731   6.678  47.711  1.00  0.00    -0.349 N 
HETATM    8  H7  UNL     1      28.533   7.054  46.767  1.00  0.00     0.162 HD
BRANCH   7   9
HETATM    9  C7  UNL     1      30.113   6.744  48.375  1.00  0.00     0.306 A 
HETATM   10  C8  UNL     1      30.752   5.528  47.727  1.00  0.00     0.085 A 
HETATM   11  C9  UNL     1      32.238   4.890  47.898  1.00  0.00     0.136 A 
HETATM   12 CL1  UNL     1      32.225   3.525  46.847  1.00  0.00    -0.062 Cl
HETATM   13  N2  UNL     1      33.200   5.652  48.909  1.00  0.00    -0.196 NA
HETATM   14  C10 UNL     1      32.202   6.528  49.137  1.00  0.00     0.009 A 
HETATM   15  C11 UNL     1      31.445   7.170  49.292  1.00  0.00     0.343 A 
HETATM   16  N3  UNL     1      30.529   7.919  49.459  1.00  0.00     0.152 N 
HETATM   17  H9  UNL     1      29.582   8.204  49.257  1.00  0.00     0.322 HD
ENDBRANCH   7   9
ENDBRANCH   4   7
BRANCH   1  18
HETATM   18  O1  UNL     1      24.532   4.379  50.613  1.00  0.00    -0.342 OA
BRANCH  18  19
HETATM   19  C2  UNL     1      24.320   3.096  51.155  1.00  0.00     0.158 C 
HETATM   20  C1  UNL     1      23.817   3.289  52.575  1.00  0.00     0.045 C 
BRANCH  19  21
HETATM   21  C14 UNL     1      23.285   2.393  50.325  1.00  0.00    -0.029 A 
HETATM   22  C15 UNL     1      23.099   2.628  48.977  1.00  0.00     0.010 A 
HETATM   23  C16 UNL     1      22.130   1.954  48.259  1.00  0.00     0.001 A 
HETATM   24  C17 UNL     1      21.374   1.039  48.987  1.00  0.00     0.000 A 
HETATM   25  C18 UNL     1      21.537   0.784  50.334  1.00  0.00     0.001 A 
HETATM   26  C19 UNL     1      22.515   1.476  51.021  1.00  0.00     0.010 A 
ENDBRANCH  19  21
ENDBRANCH  18  19
ENDBRANCH   1  18
TORSDOF 5
ENDMDL
MODEL 6
REMARK VINA RESULT:      -8.0      5.439      6.696
REMARK  5 active torsions:
REMARK  status: ('A' for Active; 'I' for Inactive)
REMARK    1  A    between atoms: C2_2  and  O1_3 
REMARK    2  A    between atoms: C2_2  and  C14_19 
REMARK    3  A    between atoms: O1_3  and  C3_4 
REMARK    4  A    between atoms: C6_7  and  N1_8 
REMARK    5  A    between atoms: N1_8  and  C7_9 
ROOT
HETATM    1  C3  UNL     1      25.677   4.271  49.920  1.00  0.00     0.069 A 
HETATM    2  C4  UNL     1      26.903   3.926  49.349  1.00  0.00     0.039 A 
HETATM    3  C5  UNL     1      27.645   4.835  48.616  1.00  0.00     0.032 A 
HETATM    4  C6  UNL     1      27.181   6.117  48.434  1.00  0.00     0.030 A 
HETATM    5  C12 UNL     1      25.967   6.470  48.996  1.00  0.00     0.032 A 
HETATM    6  C13 UNL     1      25.236   5.562  49.722  1.00  0.00     0.039 A 
ENDROOT
BRANCH   4   7
HETATM    7  N1  UNL     1      27.928   7.084  47.677  1.00  0.00    -0.349 N 
HETATM    8  H7  UNL     1      27.590   7.357  46.737  1.00  0.00     0.162 HD
BRANCH   7   9
HETATM    9  C7  UNL     1      29.199   7.659  48.318  1.00  0.00     0.306 A 
HETATM   10  C8  UNL     1      30.241   6.937  47.481  1.00  0.00     0.085 A 
HETATM   11  C9  UNL     1      31.865   6.993  47.526  1.00  0.00     0.136 A 
HETATM   12 CL1  UNL     1      32.351   5.906  46.279  1.00  0.00    -0.062 Cl
HETATM   13  N2  UNL     1      32.489   7.960  48.623  1.00  0.00    -0.196 NA
HETATM   14  C10 UNL     1      31.234   8.277  49.000  1.00  0.00     0.009 A 
HETATM   15  C11 UNL     1      30.291   8.500  49.264  1.00  0.00     0.343 A 
HETATM   16  N3  UNL     1      29.160   8.747  49.560  1.00  0.00     0.152 N 
HETATM   17  H9  UNL     1      28.170   8.615  49.421  1.00  0.00     0.322 HD
ENDBRANCH   7   9
ENDBRANCH   4   7
BRANCH   1  18
HETATM   18  O1  UNL     1      25.114   3.226  50.598  1.00  0.00    -0.342 OA
BRANCH  18  19
HETATM   19  C2  UNL     1      25.036   3.079  51.997  1.00  0.00     0.158 C 
HETATM   20  C1  UNL     1      23.627   3.468  52.409  1.00  0.00     0.045 C 
BRANCH  19  21
HETATM   21  C14 UNL     1      25.303   1.642  52.340  1.00  0.00    -0.029 A 
HETATM   22  C15 UNL     1      24.447   0.865  53.094  1.00  0.00     0.010 A 
HETATM   23  C16 UNL     1      24.742  -0.454  53.381  1.00  0.00     0.001 A 
HETATM   24  C17 UNL     1      25.945  -0.925  52.862  1.00  0.00     0.000 A 
HETATM   25  C18 UNL     1      26.821  -0.172  52.106  1.00  0.00     0.001 A 
HETATM   26  C19 UNL     1      26.495   1.143  51.837  1.00  0.00     0.010 A 
ENDBRANCH  19  21
ENDBRANCH  18  19
ENDBRANCH   1  18
TORSDOF 5
ENDMDL
MODEL 7
REMARK VINA RESULT:      -7.8      5.448      6.626
REMARK  5 active torsions:
REMARK  status: ('A' for Active; 'I' for Inactive)
REMARK    1  A    between atoms: C2_2  and  O1_3 
REMARK    2  A    between atoms: C2_2  and  C14_19 
REMARK    3  A    between atoms: O1_3  and  C3_4 
REMARK    4  A    between atoms: C6_7  and  N1_8 
REMARK    5  A    between atoms: N1_8  and  C7_9 
ROOT
HETATM    1  C3  UNL     1      25.481   4.291  49.961  1.00  0.00     0.069 A 
HETATM    2  C4  UNL     1      26.667   3.790  49.421  1.00  0.00     0.039 A 
HETATM    3  C5  UNL     1      27.539   4.595  48.711  1.00  0.00     0.032 A 
HETATM    4  C6  UNL     1      27.250   5.927  48.522  1.00  0.00     0.030 A 
HETATM    5  C12 UNL     1      26.078   6.434  49.054  1.00  0.00     0.032 A 
HETATM    6  C13 UNL     1      25.216   5.628  49.757  1.00  0.00     0.039 A 
ENDROOT
BRANCH   4   7
HETATM    7  N1  UNL     1      28.136   6.789  47.788  1.00  0.00    -0.349 N 
HETATM    8  H7  UNL     1      27.740   7.425  47.073  1.00  0.00     0.162 HD
BRANCH   7   9
HETATM    9  C7  UNL     1      29.634   6.712  48.115  1.00  0.00     0.306 A 
HETATM   10  C8  UNL     1      29.844   8.127  48.625  1.00  0.00     0.085 A 
HETATM   11  C9  UNL     1      31.180   8.869  49.180  1.00  0.00     0.136 A 
HETATM   12 CL1  UNL     1      30.638  10.458  49.571  1.00  0.00    -0.062 Cl
HETATM   13  N2  UNL     1      32.499   7.983  49.201  1.00  0.00    -0.196 NA
HETATM   14  C10 UNL     1      31.775   6.963  48.699  1.00  0.00     0.009 A 
HETATM   15  C11 UNL     1      31.217   6.217  48.325  1.00  0.00     0.343 A 
HETATM   16  N3  UNL     1      30.531   5.346  47.880  1.00  0.00     0.152 N 
HETATM   17  H9  UNL     1      29.633   5.014  47.561  1.00  0.00     0.322 HD
ENDBRANCH   7   9
ENDBRANCH   4   7
BRANCH   1  18
HETATM   18  O1  UNL     1      24.770   3.327  50.621  1.00  0.00    -0.342 OA
BRANCH  18  19
HETATM   19  C2  UNL     1      24.741   3.112  52.013  1.00  0.00     0.158 C 
HETATM   20  C1  UNL     1      23.309   3.329  52.468  1.00  0.00     0.045 C 
BRANCH  19  21
HETATM   21  C14 UNL     1      25.167   1.697  52.284  1.00  0.00    -0.029 A 
HETATM   22  C15 UNL     1      26.364   1.164  51.850  1.00  0.00     0.010 A 
HETATM   23  C16 UNL     1      26.707  -0.145  52.127  1.00  0.00     0.001 A 
HETATM   24  C17 UNL     1      25.771  -0.867  52.863  1.00  0.00     0.000 A 
HETATM   25  C18 UNL     1      24.567  -0.360  53.310  1.00  0.00     0.001 A 
HETATM   26  C19 UNL     1      24.256   0.952  53.015  1.00  0.00     0.010 A 
ENDBRANCH  19  21
ENDBRANCH  18  19
ENDBRANCH   1  18
TORSDOF 5
ENDMDL
MODEL 8
REMARK VINA RESULT:      -7.7      4.385      7.177
REMARK  5 active torsions:
REMARK  status: ('A' for Active; 'I' for Inactive)
REMARK    1  A    between atoms: C2_2  and  O1_3 
REMARK    2  A    between atoms: C2_2  and  C14_19 
REMARK    3  A    between atoms: O1_3  and  C3_4 
REMARK    4  A    between atoms: C6_7  and  N1_8 
REMARK    5  A    between atoms: N1_8  and  C7_9 
ROOT
HETATM    1  C3  UNL     1      24.435   1.926  52.102  1.00  0.00     0.069 A 
HETATM    2  C4  UNL     1      24.532   2.905  53.092  1.00  0.00     0.039 A 
HETATM    3  C5  UNL     1      23.783   4.066  53.041  1.00  0.00     0.032 A 
HETATM    4  C6  UNL     1      22.914   4.282  51.997  1.00  0.00     0.030 A 
HETATM    5  C12 UNL     1      22.809   3.317  51.010  1.00  0.00     0.032 A 
HETATM    6  C13 UNL     1      23.557   2.166  51.067  1.00  0.00     0.039 A 
ENDROOT
BRANCH   4   7
HETATM    7  N1  UNL     1      22.123   5.479  51.915  1.00  0.00    -0.349 N 
HETATM    8  H7  UNL     1      21.189   5.496  52.363  1.00  0.00     0.162 HD
BRANCH   7   9
HETATM    9  C7  UNL     1      22.719   6.674  51.156  1.00  0.00     0.306 A 
HETATM   10  C8  UNL     1      21.585   6.928  50.177  1.00  0.00     0.085 A 
HETATM   11  C9  UNL     1      21.425   8.043  49.004  1.00  0.00     0.136 A 
HETATM   12 CL1  UNL     1      19.878   7.707  48.323  1.00  0.00    -0.062 Cl
HETATM   13  N2  UNL     1      22.648   9.044  48.837  1.00  0.00    -0.196 NA
HETATM   14  C10 UNL     1      23.262   8.402  49.850  1.00  0.00     0.009 A 
HETATM   15  C11 UNL     1      23.701   7.910  50.608  1.00  0.00     0.343 A 
HETATM   16  N3  UNL     1      24.202   7.307  51.510  1.00  0.00     0.152 N 
HETATM   17  H9  UNL     1      24.167   6.568  52.196  1.00  0.00     0.322 HD
ENDBRANCH   7   9
ENDBRANCH   4   7
BRANCH   1  18
HETATM   18  O1  UNL     1      25.260   0.863  52.347  1.00  0.00    -0.342 OA
BRANCH  18  19
HETATM   19  C2  UNL     1      25.593   0.333  53.609  1.00  0.00     0.158 C 
HETATM   20  C1  UNL     1      24.497  -0.648  53.985  1.00  0.00     0.045 C 
BRANCH  19  21
HETATM   21  C14 UNL     1      26.912  -0.375  53.494  1.00  0.00    -0.029 A 
HETATM   22  C15 UNL     1      28.101   0.142  53.967  1.00  0.00     0.010 A 
HETATM   23  C16 UNL     1      29.288  -0.552  53.835  1.00  0.00     0.001 A 
HETATM   24  C17 UNL     1      29.191  -1.788  53.201  1.00  0.00     0.000 A 
HETATM   25  C18 UNL     1      28.018  -2.331  52.718  1.00  0.00     0.001 A 
HETATM   26  C19 UNL     1      26.849  -1.610  52.867  1.00  0.00     0.010 A 
ENDBRANCH  19  21
ENDBRANCH  18  19
ENDBRANCH   1  18
TORSDOF 5
ENDMDL
MODEL 9
REMARK VINA RESULT:      -7.6      5.260      6.659
REMARK  5 active torsions:
REMARK  status: ('A' for Active; 'I' for Inactive)
REMARK    1  A    between atoms: C2_2  and  O1_3 
REMARK    2  A    between atoms: C2_2  and  C14_19 
REMARK    3  A    between atoms: O1_3  and  C3_4 
REMARK    4  A    between atoms: C6_7  and  N1_8 
REMARK    5  A    between atoms: N1_8  and  C7_9 
ROOT
HETATM    1  C3  UNL     1      24.751   3.378  49.514  1.00  0.00     0.069 A 
HETATM    2  C4  UNL     1      24.345   4.689  49.258  1.00  0.00     0.039 A 
HETATM    3  C5  UNL     1      25.258   5.701  49.028  1.00  0.00     0.032 A 
HETATM    4  C6  UNL     1      26.607   5.430  49.046  1.00  0.00     0.030 A 
HETATM    5  C12 UNL     1      27.022   4.134  49.298  1.00  0.00     0.032 A 
HETATM    6  C13 UNL     1      26.108   3.134  49.526  1.00  0.00     0.039 A 
ENDROOT
BRANCH   4   7
HETATM    7  N1  UNL     1      27.582   6.461  48.811  1.00  0.00    -0.349 N 
HETATM    8  H7  UNL     1      28.522   6.194  48.467  1.00  0.00     0.162 HD
BRANCH   7   9
HETATM    9  C7  UNL     1      27.163   7.911  49.090  1.00  0.00     0.306 A 
HETATM   10  C8  UNL     1      27.095   8.422  47.661  1.00  0.00     0.085 A 
HETATM   11  C9  UNL     1      26.716   9.892  47.076  1.00  0.00     0.136 A 
HETATM   12 CL1  UNL     1      26.857   9.704  45.368  1.00  0.00    -0.062 Cl
HETATM   13  N2  UNL     1      26.354  10.992  48.164  1.00  0.00    -0.196 NA
HETATM   14  C10 UNL     1      26.563  10.062  49.117  1.00  0.00     0.009 A 
HETATM   15  C11 UNL     1      26.724   9.354  49.811  1.00  0.00     0.343 A 
HETATM   16  N3  UNL     1      26.922   8.494  50.616  1.00  0.00     0.152 N 
HETATM   17  H9  UNL     1      27.176   7.543  50.837  1.00  0.00     0.322 HD
ENDBRANCH   7   9
ENDBRANCH   4   7
BRANCH   1  18
HETATM   18  O1  UNL     1      23.689   2.540  49.714  1.00  0.00    -0.342 OA
BRANCH  18  19
HETATM   19  C2  UNL     1      22.748   2.613  50.759  1.00  0.00     0.158 C 
HETATM   20  C1  UNL     1      21.372   2.482  50.131  1.00  0.00     0.045 C 
BRANCH  19  21
HETATM   21  C14 UNL     1      23.001   1.475  51.707  1.00  0.00    -0.029 A 
HETATM   22  C15 UNL     1      24.182   1.308  52.401  1.00  0.00     0.010 A 
HETATM   23  C16 UNL     1      24.363   0.241  53.261  1.00  0.00     0.001 A 
HETATM   24  C17 UNL     1      23.283  -0.630  53.368  1.00  0.00     0.000 A 
HETATM   25  C18 UNL     1      22.091  -0.489  52.687  1.00  0.00     0.001 A 
HETATM   26  C19 UNL     1      21.944   0.588  51.835  1.00  0.00     0.010 A 
ENDBRANCH  19  21
ENDBRANCH  18  19
ENDBRANCH   1  18
TORSDOF 5
ENDMDL
