MODEL 1
REMARK VINA RESULT:      -7.4      0.000      0.000
REMARK  9 active torsions:
REMARK  status: ('A' for Active; 'I' for Inactive)
REMARK    1  A    between atoms: C6_6  and  N1_7 
REMARK    2  A    between atoms: N1_7  and  C7_8 
REMARK    3  A    between atoms: C11_15  and  N5_16 
REMARK    4  A    between atoms: N5_16  and  C12_17 
REMARK    5  A    between atoms: N5_16  and  C14_20 
REMARK    6  A    between atoms: C12_17  and  C13_18 
REMARK    7  A    between atoms: C14_20  and  C15_21 
REMARK    8  A    between atoms: C15_21  and  C16_22 
REMARK    9  A    between atoms: C16_22  and  N6_23 
ROOT
HETATM    1  C7  UNL     1      23.920  -0.006  53.726  1.00  0.00     0.160 A 
HETATM    2  N2  UNL     1      24.134  -0.928  54.672  1.00  0.00    -0.220 NA
HETATM    3  C8  UNL     1      23.203  -1.506  55.410  1.00  0.00     0.258 A 
HETATM    4  N3  UNL     1      21.948  -1.129  55.184  1.00  0.00    -0.161 NA
HETATM    5  N4  UNL     1      21.619  -0.221  54.269  1.00  0.00    -0.238 N 
HETATM    6  C9  UNL     1      20.439   0.292  53.884  1.00  0.00     0.121 A 
HETATM    7  C10 UNL     1      20.672   1.221  52.867  1.00  0.00     0.051 A 
HETATM    8  C11 UNL     1      22.059   1.230  52.674  1.00  0.00     0.064 A 
HETATM    9  C17 UNL     1      22.605   0.328  53.555  1.00  0.00     0.130 A 
ENDROOT
BRANCH   8  10
HETATM   10  N5  UNL     1      22.498   2.161  51.695  1.00  0.00    -0.378 N 
BRANCH  10  11
HETATM   11  C12 UNL     1      23.025   2.063  50.313  1.00  0.00     0.140 C 
BRANCH  11  12
HETATM   12  C13 UNL     1      21.849   2.158  49.371  1.00  0.00     0.198 C 
HETATM   13  S1  UNL     1      20.599   1.987  48.700  1.00  0.00    -0.195 SA
ENDBRANCH  11  12
ENDBRANCH  10  11
BRANCH  10  14
HETATM   14  C14 UNL     1      22.405   3.516  52.154  1.00  0.00     0.125 C 
BRANCH  14  15
HETATM   15  C15 UNL     1      23.779   4.166  52.377  1.00  0.00     0.049 C 
BRANCH  15  16
HETATM   16  C16 UNL     1      23.760   5.448  51.537  1.00  0.00     0.268 C 
BRANCH  16  17
HETATM   17  N6  UNL     1      24.298   6.578  52.222  1.00  0.00     0.078 N 
HETATM   18  H20 UNL     1      24.226   7.486  51.757  1.00  0.00     0.312 HD
HETATM   19  H21 UNL     1      23.954   6.564  53.220  1.00  0.00     0.312 HD
ENDBRANCH  16  17
ENDBRANCH  15  16
ENDBRANCH  14  15
ENDBRANCH  10  14
ENDBRANCH   8  10
BRANCH   1  20
HETATM   20  N1  UNL     1      24.910   0.600  52.920  1.00  0.00    -0.339 N 
HETATM   21  H7  UNL     1      24.671   0.960  51.983  1.00  0.00     0.167 HD
BRANCH  20  22
HETATM   22  C6  UNL     1      26.288   0.813  53.157  1.00  0.00     0.034 A 
HETATM   23  C5  UNL     1      26.889   2.042  53.358  1.00  0.00     0.029 A 
HETATM   24  C4  UNL     1      28.231   2.194  53.574  1.00  0.00     0.003 A 
HETATM   25  C3  UNL     1      29.079   1.111  53.604  1.00  0.00     0.007 A 
HETATM   26  C2  UNL     1      28.518  -0.125  53.407  1.00  0.00    -0.060 A 
HETATM   27  C1  UNL     1      29.457  -1.281  53.440  1.00  0.00     0.048 C 
HETATM   28  C18 UNL     1      27.170  -0.243  53.194  1.00  0.00     0.036 A 
ENDBRANCH  20  22
ENDBRANCH   1  20
TORSDOF 9
ENDMDL
MODEL 2
REMARK VINA RESULT:      -7.3      1.467      1.606
REMARK  9 active torsions:
REMARK  status: ('A' for Active; 'I' for Inactive)
REMARK    1  A    between atoms: C6_6  and  N1_7 
REMARK    2  A    between atoms: N1_7  and  C7_8 
REMARK    3  A    between atoms: C11_15  and  N5_16 
REMARK    4  A    between atoms: N5_16  and  C12_17 
REMARK    5  A    between atoms: N5_16  and  C14_20 
REMARK    6  A    between atoms: C12_17  and  C13_18 
REMARK    7  A    between atoms: C14_20  and  C15_21 
REMARK    8  A    between atoms: C15_21  and  C16_22 
REMARK    9  A    between atoms: C16_22  and  N6_23 
ROOT
HETATM    1  C7  UNL     1      24.076   0.358  53.361  1.00  0.00     0.160 A 
HETATM    2  N2  UNL     1      24.075  -0.658  54.232  1.00  0.00    -0.220 NA
HETATM    3  C8  UNL     1      23.013  -1.140  54.855  1.00  0.00     0.258 A 
HETATM    4  N3  UNL     1      21.851  -0.555  54.583  1.00  0.00    -0.161 NA
HETATM    5  N4  UNL     1      21.734   0.463  53.735  1.00  0.00    -0.238 N 
HETATM    6  C9  UNL     1      20.678   1.183  53.322  1.00  0.00     0.121 A 
HETATM    7  C10 UNL     1      21.126   2.141  52.409  1.00  0.00     0.051 A 
HETATM    8  C11 UNL     1      22.510   1.948  52.307  1.00  0.00     0.064 A 
HETATM    9  C17 UNL     1      22.844   0.906  53.137  1.00  0.00     0.130 A 
ENDROOT
BRANCH   8  10
HETATM   10  N5  UNL     1      23.158   2.874  51.447  1.00  0.00    -0.378 N 
BRANCH  10  11
HETATM   11  C12 UNL     1      23.613   2.856  50.036  1.00  0.00     0.140 C 
BRANCH  11  12
HETATM   12  C13 UNL     1      25.077   3.223  50.026  1.00  0.00     0.198 C 
HETATM   13  S1  UNL     1      26.455   3.394  49.694  1.00  0.00    -0.195 SA
ENDBRANCH  11  12
ENDBRANCH  10  11
BRANCH  10  14
HETATM   14  C14 UNL     1      23.432   4.121  52.097  1.00  0.00     0.125 C 
BRANCH  14  15
HETATM   15  C15 UNL     1      22.516   5.257  51.621  1.00  0.00     0.049 C 
BRANCH  15  16
HETATM   16  C16 UNL     1      23.460   6.366  51.143  1.00  0.00     0.268 C 
BRANCH  16  17
HETATM   17  N6  UNL     1      24.379   6.795  52.146  1.00  0.00     0.078 N 
HETATM   18  H20 UNL     1      24.835   7.700  52.007  1.00  0.00     0.312 HD
HETATM   19  H21 UNL     1      23.932   6.665  53.093  1.00  0.00     0.312 HD
ENDBRANCH  16  17
ENDBRANCH  15  16
ENDBRANCH  14  15
ENDBRANCH  10  14
ENDBRANCH   8  10
BRANCH   1  20
HETATM   20  N1  UNL     1      25.205   0.863  52.679  1.00  0.00    -0.339 N 
HETATM   21  H7  UNL     1      25.105   1.270  51.736  1.00  0.00     0.167 HD
BRANCH  20  22
HETATM   22  C6  UNL     1      26.567   0.908  53.057  1.00  0.00     0.034 A 
HETATM   23  C5  UNL     1      27.261   2.044  53.431  1.00  0.00     0.029 A 
HETATM   24  C4  UNL     1      28.584   2.035  53.779  1.00  0.00     0.003 A 
HETATM   25  C3  UNL     1      29.317   0.870  53.777  1.00  0.00     0.007 A 
HETATM   26  C2  UNL     1      28.661  -0.278  53.411  1.00  0.00    -0.060 A 
HETATM   27  C1  UNL     1      29.477  -1.524  53.414  1.00  0.00     0.048 C 
HETATM   28  C18 UNL     1      27.335  -0.234  53.068  1.00  0.00     0.036 A 
ENDBRANCH  20  22
ENDBRANCH   1  20
TORSDOF 9
ENDMDL
MODEL 3
REMARK VINA RESULT:      -7.1      2.688      5.136
REMARK  9 active torsions:
REMARK  status: ('A' for Active; 'I' for Inactive)
REMARK    1  A    between atoms: C6_6  and  N1_7 
REMARK    2  A    between atoms: N1_7  and  C7_8 
REMARK    3  A    between atoms: C11_15  and  N5_16 
REMARK    4  A    between atoms: N5_16  and  C12_17 
REMARK    5  A    between atoms: N5_16  and  C14_20 
REMARK    6  A    between atoms: C12_17  and  C13_18 
REMARK    7  A    between atoms: C14_20  and  C15_21 
REMARK    8  A    between atoms: C15_21  and  C16_22 
REMARK    9  A    between atoms: C16_22  and  N6_23 
ROOT
HETATM    1  C7  UNL     1      22.763   0.219  52.856  1.00  0.00     0.160 A 
HETATM    2  N2  UNL     1      21.427   0.137  52.860  1.00  0.00    -0.220 NA
HETATM    3  C8  UNL     1      20.693  -0.469  53.777  1.00  0.00     0.258 A 
HETATM    4  N3  UNL     1      21.353  -1.045  54.777  1.00  0.00    -0.161 NA
HETATM    5  N4  UNL     1      22.679  -1.028  54.875  1.00  0.00    -0.238 N 
HETATM    6  C9  UNL     1      23.529  -1.534  55.784  1.00  0.00     0.121 A 
HETATM    7  C10 UNL     1      24.833  -1.216  55.395  1.00  0.00     0.051 A 
HETATM    8  C11 UNL     1      24.706  -0.495  54.201  1.00  0.00     0.064 A 
HETATM    9  C17 UNL     1      23.366  -0.400  53.916  1.00  0.00     0.130 A 
ENDROOT
BRANCH   8  10
HETATM   10  N5  UNL     1      25.947  -0.119  53.621  1.00  0.00    -0.378 N 
BRANCH  10  11
HETATM   11  C12 UNL     1      26.716  -0.535  52.423  1.00  0.00     0.140 C 
BRANCH  11  12
HETATM   12  C13 UNL     1      27.974  -1.216  52.905  1.00  0.00     0.198 C 
HETATM   13  S1  UNL     1      29.289  -1.515  53.376  1.00  0.00    -0.195 SA
ENDBRANCH  11  12
ENDBRANCH  10  11
BRANCH  10  14
HETATM   14  C14 UNL     1      26.609   0.907  54.371  1.00  0.00     0.125 C 
BRANCH  14  15
HETATM   15  C15 UNL     1      26.838   2.188  53.556  1.00  0.00     0.049 C 
BRANCH  15  16
HETATM   16  C16 UNL     1      28.358   2.386  53.531  1.00  0.00     0.268 C 
BRANCH  16  17
HETATM   17  N6  UNL     1      29.000   1.972  54.736  1.00  0.00     0.078 N 
HETATM   18  H20 UNL     1      28.580   1.193  55.247  1.00  0.00     0.312 HD
HETATM   19  H21 UNL     1      30.035   1.874  54.551  1.00  0.00     0.312 HD
ENDBRANCH  16  17
ENDBRANCH  15  16
ENDBRANCH  14  15
ENDBRANCH  10  14
ENDBRANCH   8  10
BRANCH   1  20
HETATM   20  N1  UNL     1      23.549   0.883  51.888  1.00  0.00    -0.339 N 
HETATM   21  H7  UNL     1      24.092   0.341  51.197  1.00  0.00     0.167 HD
BRANCH  20  22
HETATM   22  C6  UNL     1      23.775   2.262  51.672  1.00  0.00     0.034 A 
HETATM   23  C5  UNL     1      23.184   3.294  52.376  1.00  0.00     0.029 A 
HETATM   24  C4  UNL     1      23.430   4.616  52.120  1.00  0.00     0.003 A 
HETATM   25  C3  UNL     1      24.299   5.002  51.126  1.00  0.00     0.007 A 
HETATM   26  C2  UNL     1      24.904   4.005  50.405  1.00  0.00    -0.060 A 
HETATM   27  C1  UNL     1      25.838   4.449  49.332  1.00  0.00     0.048 C 
HETATM   28  C18 UNL     1      24.636   2.691  50.688  1.00  0.00     0.036 A 
ENDBRANCH  20  22
ENDBRANCH   1  20
TORSDOF 9
ENDMDL
MODEL 4
REMARK VINA RESULT:      -7.0      1.561      2.539
REMARK  9 active torsions:
REMARK  status: ('A' for Active; 'I' for Inactive)
REMARK    1  A    between atoms: C6_6  and  N1_7 
REMARK    2  A    between atoms: N1_7  and  C7_8 
REMARK    3  A    between atoms: C11_15  and  N5_16 
REMARK    4  A    between atoms: N5_16  and  C12_17 
REMARK    5  A    between atoms: N5_16  and  C14_20 
REMARK    6  A    between atoms: C12_17  and  C13_18 
REMARK    7  A    between atoms: C14_20  and  C15_21 
REMARK    8  A    between atoms: C15_21  and  C16_22 
REMARK    9  A    between atoms: C16_22  and  N6_23 
ROOT
HETATM    1  C7  UNL     1      24.007   0.025  53.680  1.00  0.00     0.160 A 
HETATM    2  N2  UNL     1      24.134  -0.908  54.631  1.00  0.00    -0.220 NA
HETATM    3  C8  UNL     1      23.148  -1.421  55.346  1.00  0.00     0.258 A 
HETATM    4  N3  UNL     1      21.927  -0.962  55.086  1.00  0.00    -0.161 NA
HETATM    5  N4  UNL     1      21.683  -0.036  54.163  1.00  0.00    -0.238 N 
HETATM    6  C9  UNL     1      20.550   0.553  53.747  1.00  0.00     0.121 A 
HETATM    7  C10 UNL     1      20.871   1.463  52.736  1.00  0.00     0.051 A 
HETATM    8  C11 UNL     1      22.261   1.379  52.579  1.00  0.00     0.064 A 
HETATM    9  C17 UNL     1      22.723   0.445  53.474  1.00  0.00     0.130 A 
ENDROOT
BRANCH   8  10
HETATM   10  N5  UNL     1      22.786   2.277  51.612  1.00  0.00    -0.378 N 
BRANCH  10  11
HETATM   11  C12 UNL     1      23.403   3.625  51.656  1.00  0.00     0.140 C 
BRANCH  11  12
HETATM   12  C13 UNL     1      24.797   3.504  51.090  1.00  0.00     0.198 C 
HETATM   13  S1  UNL     1      25.933   3.345  50.239  1.00  0.00    -0.195 SA
ENDBRANCH  11  12
ENDBRANCH  10  11
BRANCH  10  14
HETATM   14  C14 UNL     1      22.702   1.754  50.281  1.00  0.00     0.125 C 
BRANCH  14  15
HETATM   15  C15 UNL     1      21.880   2.646  49.339  1.00  0.00     0.049 C 
BRANCH  15  16
HETATM   16  C16 UNL     1      20.999   1.683  48.535  1.00  0.00     0.268 C 
BRANCH  16  17
HETATM   17  N6  UNL     1      19.821   1.282  49.232  1.00  0.00     0.078 N 
HETATM   18  H20 UNL     1      19.632   1.732  50.131  1.00  0.00     0.312 HD
HETATM   19  H21 UNL     1      19.010   1.285  48.556  1.00  0.00     0.312 HD
ENDBRANCH  16  17
ENDBRANCH  15  16
ENDBRANCH  14  15
ENDBRANCH  10  14
ENDBRANCH   8  10
BRANCH   1  20
HETATM   20  N1  UNL     1      25.056   0.562  52.901  1.00  0.00    -0.339 N 
HETATM   21  H7  UNL     1      24.870   0.913  51.948  1.00  0.00     0.167 HD
BRANCH  20  22
HETATM   22  C6  UNL     1      26.433   0.710  53.184  1.00  0.00     0.034 A 
HETATM   23  C5  UNL     1      27.072   1.901  53.476  1.00  0.00     0.029 A 
HETATM   24  C4  UNL     1      28.412   1.990  53.734  1.00  0.00     0.003 A 
HETATM   25  C3  UNL     1      29.220   0.877  53.719  1.00  0.00     0.007 A 
HETATM   26  C2  UNL     1      28.622  -0.323  53.433  1.00  0.00    -0.060 A 
HETATM   27  C1  UNL     1      29.518  -1.513  53.419  1.00  0.00     0.048 C 
HETATM   28  C18 UNL     1      27.276  -0.378  53.179  1.00  0.00     0.036 A 
ENDBRANCH  20  22
ENDBRANCH   1  20
TORSDOF 9
ENDMDL
MODEL 5
REMARK VINA RESULT:      -6.7      1.948      5.305
REMARK  9 active torsions:
REMARK  status: ('A' for Active; 'I' for Inactive)
REMARK    1  A    between atoms: C6_6  and  N1_7 
REMARK    2  A    between atoms: N1_7  and  C7_8 
REMARK    3  A    between atoms: C11_15  and  N5_16 
REMARK    4  A    between atoms: N5_16  and  C12_17 
REMARK    5  A    between atoms: N5_16  and  C14_20 
REMARK    6  A    between atoms: C12_17  and  C13_18 
REMARK    7  A    between atoms: C14_20  and  C15_21 
REMARK    8  A    between atoms: C15_21  and  C16_22 
REMARK    9  A    between atoms: C16_22  and  N6_23 
ROOT
HETATM    1  C7  UNL     1      24.324   1.532  52.412  1.00  0.00     0.160 A 
HETATM    2  N2  UNL     1      25.216   0.601  52.770  1.00  0.00    -0.220 NA
HETATM    3  C8  UNL     1      26.457   0.510  52.326  1.00  0.00     0.258 A 
HETATM    4  N3  UNL     1      26.842   1.431  51.448  1.00  0.00    -0.161 NA
HETATM    5  N4  UNL     1      26.040   2.402  51.020  1.00  0.00    -0.238 N 
HETATM    6  C9  UNL     1      26.222   3.415  50.157  1.00  0.00     0.121 A 
HETATM    7  C10 UNL     1      25.035   4.148  50.078  1.00  0.00     0.051 A 
HETATM    8  C11 UNL     1      24.138   3.509  50.944  1.00  0.00     0.064 A 
HETATM    9  C17 UNL     1      24.795   2.440  51.504  1.00  0.00     0.130 A 
ENDROOT
BRANCH   8  10
HETATM   10  N5  UNL     1      22.843   4.092  50.963  1.00  0.00    -0.378 N 
BRANCH  10  11
HETATM   11  C12 UNL     1      21.522   3.735  50.395  1.00  0.00     0.140 C 
BRANCH  11  12
HETATM   12  C13 UNL     1      21.704   2.482  49.573  1.00  0.00     0.198 C 
HETATM   13  S1  UNL     1      21.512   1.276  48.832  1.00  0.00    -0.195 SA
ENDBRANCH  11  12
ENDBRANCH  10  11
BRANCH  10  14
HETATM   14  C14 UNL     1      22.808   5.312  51.714  1.00  0.00     0.125 C 
BRANCH  14  15
HETATM   15  C15 UNL     1      22.030   6.428  51.003  1.00  0.00     0.049 C 
BRANCH  15  16
HETATM   16  C16 UNL     1      23.074   7.499  50.667  1.00  0.00     0.268 C 
BRANCH  16  17
HETATM   17  N6  UNL     1      24.175   7.517  51.574  1.00  0.00     0.078 N 
HETATM   18  H20 UNL     1      24.035   7.084  52.490  1.00  0.00     0.312 HD
HETATM   19  H21 UNL     1      25.041   7.198  51.062  1.00  0.00     0.312 HD
ENDBRANCH  16  17
ENDBRANCH  15  16
ENDBRANCH  14  15
ENDBRANCH  10  14
ENDBRANCH   8  10
BRANCH   1  20
HETATM   20  N1  UNL     1      23.002   1.645  52.898  1.00  0.00    -0.339 N 
HETATM   21  H7  UNL     1      22.585   2.574  53.064  1.00  0.00     0.167 HD
BRANCH  20  22
HETATM   22  C6  UNL     1      22.062   0.649  53.250  1.00  0.00     0.034 A 
HETATM   23  C5  UNL     1      22.270  -0.368  54.162  1.00  0.00     0.029 A 
HETATM   24  C4  UNL     1      21.327  -1.314  54.461  1.00  0.00     0.003 A 
HETATM   25  C3  UNL     1      20.091  -1.308  53.857  1.00  0.00     0.007 A 
HETATM   26  C2  UNL     1      19.848  -0.312  52.946  1.00  0.00    -0.060 A 
HETATM   27  C1  UNL     1      18.504  -0.329  52.304  1.00  0.00     0.048 C 
HETATM   28  C18 UNL     1      20.814   0.620  52.670  1.00  0.00     0.036 A 
ENDBRANCH  20  22
ENDBRANCH   1  20
TORSDOF 9
ENDMDL
MODEL 6
REMARK VINA RESULT:      -6.7      2.934      4.745
REMARK  9 active torsions:
REMARK  status: ('A' for Active; 'I' for Inactive)
REMARK    1  A    between atoms: C6_6  and  N1_7 
REMARK    2  A    between atoms: N1_7  and  C7_8 
REMARK    3  A    between atoms: C11_15  and  N5_16 
REMARK    4  A    between atoms: N5_16  and  C12_17 
REMARK    5  A    between atoms: N5_16  and  C14_20 
REMARK    6  A    between atoms: C12_17  and  C13_18 
REMARK    7  A    between atoms: C14_20  and  C15_21 
REMARK    8  A    between atoms: C15_21  and  C16_22 
REMARK    9  A    between atoms: C16_22  and  N6_23 
ROOT
HETATM    1  C7  UNL     1      25.968   2.524  51.024  1.00  0.00     0.160 A 
HETATM    2  N2  UNL     1      27.182   2.485  51.586  1.00  0.00    -0.220 NA
HETATM    3  C8  UNL     1      27.500   1.831  52.690  1.00  0.00     0.258 A 
HETATM    4  N3  UNL     1      26.520   1.157  53.283  1.00  0.00    -0.161 NA
HETATM    5  N4  UNL     1      25.276   1.126  52.814  1.00  0.00    -0.238 N 
HETATM    6  C9  UNL     1      24.158   0.519  53.246  1.00  0.00     0.121 A 
HETATM    7  C10 UNL     1      23.121   0.822  52.361  1.00  0.00     0.051 A 
HETATM    8  C11 UNL     1      23.688   1.646  51.381  1.00  0.00     0.064 A 
HETATM    9  C17 UNL     1      25.016   1.808  51.695  1.00  0.00     0.130 A 
ENDROOT
BRANCH   8  10
HETATM   10  N5  UNL     1      22.762   2.101  50.405  1.00  0.00    -0.378 N 
BRANCH  10  11
HETATM   11  C12 UNL     1      21.967   1.458  49.331  1.00  0.00     0.140 C 
BRANCH  11  12
HETATM   12  C13 UNL     1      20.517   1.512  49.746  1.00  0.00     0.198 C 
HETATM   13  S1  UNL     1      19.160   1.203  50.067  1.00  0.00    -0.195 SA
ENDBRANCH  11  12
ENDBRANCH  10  11
BRANCH  10  14
HETATM   14  C14 UNL     1      22.543   3.515  50.480  1.00  0.00     0.125 C 
BRANCH  14  15
HETATM   15  C15 UNL     1      22.320   4.009  51.917  1.00  0.00     0.049 C 
BRANCH  15  16
HETATM   16  C16 UNL     1      23.298   5.175  52.101  1.00  0.00     0.268 C 
BRANCH  16  17
HETATM   17  N6  UNL     1      23.899   5.208  53.394  1.00  0.00     0.078 N 
HETATM   18  H20 UNL     1      23.712   6.028  53.977  1.00  0.00     0.312 HD
HETATM   19  H21 UNL     1      23.732   4.281  53.869  1.00  0.00     0.312 HD
ENDBRANCH  16  17
ENDBRANCH  15  16
ENDBRANCH  14  15
ENDBRANCH  10  14
ENDBRANCH   8  10
BRANCH   1  20
HETATM   20  N1  UNL     1      25.628   3.205  49.834  1.00  0.00    -0.339 N 
HETATM   21  H7  UNL     1      24.916   2.815  49.196  1.00  0.00     0.167 HD
BRANCH  20  22
HETATM   22  C6  UNL     1      26.124   4.411  49.288  1.00  0.00     0.034 A 
HETATM   23  C5  UNL     1      25.380   5.551  49.045  1.00  0.00     0.029 A 
HETATM   24  C4  UNL     1      25.909   6.692  48.504  1.00  0.00     0.003 A 
HETATM   25  C3  UNL     1      27.239   6.772  48.164  1.00  0.00     0.007 A 
HETATM   26  C2  UNL     1      28.009   5.660  48.390  1.00  0.00    -0.060 A 
HETATM   27  C1  UNL     1      29.445   5.771  48.009  1.00  0.00     0.048 C 
HETATM   28  C18 UNL     1      27.448   4.533  48.933  1.00  0.00     0.036 A 
ENDBRANCH  20  22
ENDBRANCH   1  20
TORSDOF 9
ENDMDL
MODEL 7
REMARK VINA RESULT:      -6.6      2.840      6.779
REMARK  9 active torsions:
REMARK  status: ('A' for Active; 'I' for Inactive)
REMARK    1  A    between atoms: C6_6  and  N1_7 
REMARK    2  A    between atoms: N1_7  and  C7_8 
REMARK    3  A    between atoms: C11_15  and  N5_16 
REMARK    4  A    between atoms: N5_16  and  C12_17 
REMARK    5  A    between atoms: N5_16  and  C14_20 
REMARK    6  A    between atoms: C12_17  and  C13_18 
REMARK    7  A    between atoms: C14_20  and  C15_21 
REMARK    8  A    between atoms: C15_21  and  C16_22 
REMARK    9  A    between atoms: C16_22  and  N6_23 
ROOT
HETATM    1  C7  UNL     1      23.075   2.427  51.807  1.00  0.00     0.160 A 
HETATM    2  N2  UNL     1      21.981   2.976  51.264  1.00  0.00    -0.220 NA
HETATM    3  C8  UNL     1      21.949   3.709  50.165  1.00  0.00     0.258 A 
HETATM    4  N3  UNL     1      23.112   3.912  49.554  1.00  0.00    -0.161 NA
HETATM    5  N4  UNL     1      24.262   3.417  50.004  1.00  0.00    -0.238 N 
HETATM    6  C9  UNL     1      25.524   3.496  49.550  1.00  0.00     0.121 A 
HETATM    7  C10 UNL     1      26.351   2.777  50.416  1.00  0.00     0.051 A 
HETATM    8  C11 UNL     1      25.506   2.269  51.411  1.00  0.00     0.064 A 
HETATM    9  C17 UNL     1      24.229   2.684  51.121  1.00  0.00     0.130 A 
ENDROOT
BRANCH   8  10
HETATM   10  N5  UNL     1      26.184   1.538  52.423  1.00  0.00    -0.378 N 
BRANCH  10  11
HETATM   11  C12 UNL     1      26.540   1.787  53.840  1.00  0.00     0.140 C 
BRANCH  11  12
HETATM   12  C13 UNL     1      28.045   1.733  53.947  1.00  0.00     0.198 C 
HETATM   13  S1  UNL     1      29.428   2.039  54.127  1.00  0.00    -0.195 SA
ENDBRANCH  11  12
ENDBRANCH  10  11
BRANCH  10  14
HETATM   14  C14 UNL     1      26.623   0.253  51.963  1.00  0.00     0.125 C 
BRANCH  14  15
HETATM   15  C15 UNL     1      26.013  -0.908  52.762  1.00  0.00     0.049 C 
BRANCH  15  16
HETATM   16  C16 UNL     1      26.994  -2.073  52.597  1.00  0.00     0.268 C 
BRANCH  16  17
HETATM   17  N6  UNL     1      28.225  -1.877  53.290  1.00  0.00     0.078 N 
HETATM   18  H20 UNL     1      28.535  -2.625  53.915  1.00  0.00     0.312 HD
HETATM   19  H21 UNL     1      28.953  -1.546  52.602  1.00  0.00     0.312 HD
ENDBRANCH  16  17
ENDBRANCH  15  16
ENDBRANCH  14  15
ENDBRANCH  10  14
ENDBRANCH   8  10
BRANCH   1  20
HETATM   20  N1  UNL     1      23.110   1.627  52.970  1.00  0.00    -0.339 N 
HETATM   21  H7  UNL     1      23.836   1.782  53.687  1.00  0.00     0.167 HD
BRANCH  20  22
HETATM   22  C6  UNL     1      22.288   0.550  53.374  1.00  0.00     0.034 A 
HETATM   23  C5  UNL     1      22.682  -0.510  54.170  1.00  0.00     0.029 A 
HETATM   24  C4  UNL     1      21.847  -1.534  54.524  1.00  0.00     0.003 A 
HETATM   25  C3  UNL     1      20.539  -1.571  54.099  1.00  0.00     0.007 A 
HETATM   26  C2  UNL     1      20.112  -0.536  53.307  1.00  0.00    -0.060 A 
HETATM   27  C1  UNL     1      18.693  -0.601  52.857  1.00  0.00     0.048 C 
HETATM   28  C18 UNL     1      20.974   0.475  52.971  1.00  0.00     0.036 A 
ENDBRANCH  20  22
ENDBRANCH   1  20
TORSDOF 9
ENDMDL
MODEL 8
REMARK VINA RESULT:      -6.5      2.244      5.641
REMARK  9 active torsions:
REMARK  status: ('A' for Active; 'I' for Inactive)
REMARK    1  A    between atoms: C6_6  and  N1_7 
REMARK    2  A    between atoms: N1_7  and  C7_8 
REMARK    3  A    between atoms: C11_15  and  N5_16 
REMARK    4  A    between atoms: N5_16  and  C12_17 
REMARK    5  A    between atoms: N5_16  and  C14_20 
REMARK    6  A    between atoms: C12_17  and  C13_18 
REMARK    7  A    between atoms: C14_20  and  C15_21 
REMARK    8  A    between atoms: C15_21  and  C16_22 
REMARK    9  A    between atoms: C16_22  and  N6_23 
ROOT
HETATM    1  C7  UNL     1      24.627   1.696  52.613  1.00  0.00     0.160 A 
HETATM    2  N2  UNL     1      25.655   0.952  53.037  1.00  0.00    -0.220 NA
HETATM    3  C8  UNL     1      26.890   1.005  52.572  1.00  0.00     0.258 A 
HETATM    4  N3  UNL     1      27.119   1.879  51.596  1.00  0.00    -0.161 NA
HETATM    5  N4  UNL     1      26.173   2.670  51.097  1.00  0.00    -0.238 N 
HETATM    6  C9  UNL     1      26.188   3.606  50.133  1.00  0.00     0.121 A 
HETATM    7  C10 UNL     1      24.902   4.138  50.015  1.00  0.00     0.051 A 
HETATM    8  C11 UNL     1      24.123   3.462  50.964  1.00  0.00     0.064 A 
HETATM    9  C17 UNL     1      24.942   2.568  51.609  1.00  0.00     0.130 A 
ENDROOT
BRANCH   8  10
HETATM   10  N5  UNL     1      22.755   3.842  50.961  1.00  0.00    -0.378 N 
BRANCH  10  11
HETATM   11  C12 UNL     1      21.880   4.626  51.865  1.00  0.00     0.140 C 
BRANCH  11  12
HETATM   12  C13 UNL     1      21.761   6.016  51.289  1.00  0.00     0.198 C 
HETATM   13  S1  UNL     1      21.853   7.186  50.475  1.00  0.00    -0.195 SA
ENDBRANCH  11  12
ENDBRANCH  10  11
BRANCH  10  14
HETATM   14  C14 UNL     1      22.057   3.353  49.808  1.00  0.00     0.125 C 
BRANCH  14  15
HETATM   15  C15 UNL     1      21.831   1.835  49.847  1.00  0.00     0.049 C 
BRANCH  15  16
HETATM   16  C16 UNL     1      21.658   1.414  48.383  1.00  0.00     0.268 C 
BRANCH  16  17
HETATM   17  N6  UNL     1      22.593   2.036  47.503  1.00  0.00     0.078 N 
HETATM   18  H20 UNL     1      23.212   1.423  46.969  1.00  0.00     0.312 HD
HETATM   19  H21 UNL     1      22.086   2.762  46.929  1.00  0.00     0.312 HD
ENDBRANCH  16  17
ENDBRANCH  15  16
ENDBRANCH  14  15
ENDBRANCH  10  14
ENDBRANCH   8  10
BRANCH   1  20
HETATM   20  N1  UNL     1      23.310   1.656  53.122  1.00  0.00    -0.339 N 
HETATM   21  H7  UNL     1      22.785   2.531  53.279  1.00  0.00     0.167 HD
BRANCH  20  22
HETATM   22  C6  UNL     1      22.503   0.561  53.509  1.00  0.00     0.034 A 
HETATM   23  C5  UNL     1      22.917  -0.512  54.277  1.00  0.00     0.029 A 
HETATM   24  C4  UNL     1      22.098  -1.554  54.616  1.00  0.00     0.003 A 
HETATM   25  C3  UNL     1      20.786  -1.595  54.204  1.00  0.00     0.007 A 
HETATM   26  C2  UNL     1      20.339  -0.547  53.440  1.00  0.00    -0.060 A 
HETATM   27  C1  UNL     1      18.916  -0.618  53.004  1.00  0.00     0.048 C 
HETATM   28  C18 UNL     1      21.186   0.480  53.118  1.00  0.00     0.036 A 
ENDBRANCH  20  22
ENDBRANCH   1  20
TORSDOF 9
ENDMDL
MODEL 9
REMARK VINA RESULT:      -6.4      2.959      5.045
REMARK  9 active torsions:
REMARK  status: ('A' for Active; 'I' for Inactive)
REMARK    1  A    between atoms: C6_6  and  N1_7 
REMARK    2  A    between atoms: N1_7  and  C7_8 
REMARK    3  A    between atoms: C11_15  and  N5_16 
REMARK    4  A    between atoms: N5_16  and  C12_17 
REMARK    5  A    between atoms: N5_16  and  C14_20 
REMARK    6  A    between atoms: C12_17  and  C13_18 
REMARK    7  A    between atoms: C14_20  and  C15_21 
REMARK    8  A    between atoms: C15_21  and  C16_22 
REMARK    9  A    between atoms: C16_22  and  N6_23 
ROOT
HETATM    1  C7  UNL     1      25.455   2.180  51.182  1.00  0.00     0.160 A 
HETATM    2  N2  UNL     1      26.730   2.067  51.574  1.00  0.00    -0.220 NA
HETATM    3  C8  UNL     1      27.167   1.322  52.573  1.00  0.00     0.258 A 
HETATM    4  N3  UNL     1      26.251   0.627  53.240  1.00  0.00    -0.161 NA
HETATM    5  N4  UNL     1      24.956   0.663  52.940  1.00  0.00    -0.238 N 
HETATM    6  C9  UNL     1      23.884   0.051  53.470  1.00  0.00     0.121 A 
HETATM    7  C10 UNL     1      22.750   0.447  52.756  1.00  0.00     0.051 A 
HETATM    8  C11 UNL     1      23.213   1.332  51.773  1.00  0.00     0.064 A 
HETATM    9  C17 UNL     1      24.574   1.437  51.919  1.00  0.00     0.130 A 
ENDROOT
BRANCH   8  10
HETATM   10  N5  UNL     1      22.183   1.884  50.966  1.00  0.00    -0.378 N 
BRANCH  10  11
HETATM   11  C12 UNL     1      21.313   3.081  51.046  1.00  0.00     0.140 C 
BRANCH  11  12
HETATM   12  C13 UNL     1      22.091   4.161  51.757  1.00  0.00     0.198 C 
HETATM   13  S1  UNL     1      23.015   4.895  52.563  1.00  0.00    -0.195 SA
ENDBRANCH  11  12
ENDBRANCH  10  11
BRANCH  10  14
HETATM   14  C14 UNL     1      21.929   1.097  49.795  1.00  0.00     0.125 C 
BRANCH  14  15
HETATM   15  C15 UNL     1      21.267   1.902  48.667  1.00  0.00     0.049 C 
BRANCH  15  16
HETATM   16  C16 UNL     1      22.387   2.184  47.659  1.00  0.00     0.268 C 
BRANCH  16  17
HETATM   17  N6  UNL     1      22.093   3.266  46.778  1.00  0.00     0.078 N 
HETATM   18  H20 UNL     1      21.112   3.537  46.679  1.00  0.00     0.312 HD
HETATM   19  H21 UNL     1      22.753   4.062  46.986  1.00  0.00     0.312 HD
ENDBRANCH  16  17
ENDBRANCH  15  16
ENDBRANCH  14  15
ENDBRANCH  10  14
ENDBRANCH   8  10
BRANCH   1  20
HETATM   20  N1  UNL     1      24.985   2.960  50.103  1.00  0.00    -0.339 N 
HETATM   21  H7  UNL     1      24.139   2.675  49.583  1.00  0.00     0.167 HD
BRANCH  20  22
HETATM   22  C6  UNL     1      25.499   4.147  49.530  1.00  0.00     0.034 A 
HETATM   23  C5  UNL     1      24.766   5.283  49.241  1.00  0.00     0.029 A 
HETATM   24  C4  UNL     1      25.312   6.404  48.677  1.00  0.00     0.003 A 
HETATM   25  C3  UNL     1      26.648   6.467  48.358  1.00  0.00     0.007 A 
HETATM   26  C2  UNL     1      27.407   5.357  48.630  1.00  0.00    -0.060 A 
HETATM   27  C1  UNL     1      28.850   5.449  48.272  1.00  0.00     0.048 C 
HETATM   28  C18 UNL     1      26.829   4.251  49.195  1.00  0.00     0.036 A 
ENDBRANCH  20  22
ENDBRANCH   1  20
TORSDOF 9
ENDMDL
