MODEL 1
REMARK VINA RESULT:      -7.8      0.000      0.000
REMARK  1 active torsions:
REMARK  status: ('A' for Active; 'I' for Inactive)
REMARK    1  A    between atoms: C8_13  and  C9_14 
ROOT
HETATM    1  C1  UNL     1      21.651   1.724  50.009  1.00  0.00     0.042 C 
HETATM    2  C2  UNL     1      21.649   2.275  51.393  1.00  0.00     0.149 C 
HETATM    3  O1  UNL     1      20.625   1.514  52.116  1.00  0.00    -0.340 OA
HETATM    4  C3  UNL     1      20.701   0.367  52.892  1.00  0.00     0.351 A 
HETATM    5  C4  UNL     1      19.800  -0.545  53.629  1.00  0.00     0.364 A 
HETATM    6  S1  UNL     1      21.435  -1.544  54.113  1.00  0.00     0.088 SA
HETATM    7  C5  UNL     1      22.672  -0.635  53.347  1.00  0.00     0.364 A 
HETATM    8  N1  UNL     1      21.373  -0.658  53.513  1.00  0.00     0.084 N 
HETATM    9  N2  UNL     1      23.438   0.221  52.703  1.00  0.00    -0.270 N 
HETATM   10  N3  UNL     1      23.920   1.030  51.610  1.00  0.00    -0.124 NA
HETATM   11  C6  UNL     1      23.014   2.021  52.016  1.00  0.00     0.104 C 
HETATM   12  C7  UNL     1      24.094   2.259  53.060  1.00  0.00     0.065 C 
HETATM   13  C8  UNL     1      24.322   0.806  53.658  1.00  0.00     0.137 C 
ENDROOT
BRANCH  13  14
HETATM   14  C9  UNL     1      25.693   0.361  53.555  1.00  0.00    -0.034 A 
HETATM   15  C10 UNL     1      26.724   1.228  53.991  1.00  0.00     0.011 A 
HETATM   16  C11 UNL     1      28.071   1.060  54.006  1.00  0.00     0.024 A 
HETATM   17  C12 UNL     1      28.445  -0.184  53.499  1.00  0.00     0.034 A 
HETATM   18 CL1  UNL     1      30.192  -0.543  53.446  1.00  0.00    -0.084 Cl
HETATM   19  C13 UNL     1      27.580  -1.127  53.042  1.00  0.00     0.024 A 
HETATM   20  C14 UNL     1      26.222  -0.808  53.090  1.00  0.00     0.011 A 
ENDBRANCH  13  14
TORSDOF 1
ENDMDL
MODEL 2
REMARK VINA RESULT:      -7.5      3.729      5.117
REMARK  1 active torsions:
REMARK  status: ('A' for Active; 'I' for Inactive)
REMARK    1  A    between atoms: C8_13  and  C9_14 
ROOT
HETATM    1  C1  UNL     1      26.782   0.381  55.147  1.00  0.00     0.042 C 
HETATM    2  C2  UNL     1      26.436  -0.359  53.901  1.00  0.00     0.149 C 
HETATM    3  O1  UNL     1      25.078  -0.869  54.113  1.00  0.00    -0.340 OA
HETATM    4  C3  UNL     1      23.834  -0.346  53.794  1.00  0.00     0.351 A 
HETATM    5  C4  UNL     1      22.403  -0.678  53.970  1.00  0.00     0.364 A 
HETATM    6  S1  UNL     1      22.037   0.995  52.985  1.00  0.00     0.088 SA
HETATM    7  C5  UNL     1      23.611   1.586  52.649  1.00  0.00     0.364 A 
HETATM    8  N1  UNL     1      22.997   0.589  53.234  1.00  0.00     0.084 N 
HETATM    9  N2  UNL     1      24.896   1.825  52.488  1.00  0.00    -0.270 N 
HETATM   10  N3  UNL     1      26.280   2.013  52.849  1.00  0.00    -0.124 NA
HETATM   11  C6  UNL     1      26.441   0.624  52.739  1.00  0.00     0.104 C 
HETATM   12  C7  UNL     1      26.471   0.975  51.259  1.00  0.00     0.065 C 
HETATM   13  C8  UNL     1      25.155   1.847  51.085  1.00  0.00     0.137 C 
ENDROOT
BRANCH  13  14
HETATM   14  C9  UNL     1      25.416   3.161  50.545  1.00  0.00    -0.034 A 
HETATM   15  C10 UNL     1      26.526   3.335  49.683  1.00  0.00     0.011 A 
HETATM   16  C11 UNL     1      26.987   4.444  49.050  1.00  0.00     0.024 A 
HETATM   17  C12 UNL     1      26.204   5.564  49.328  1.00  0.00     0.034 A 
HETATM   18 CL1  UNL     1      26.697   7.102  48.570  1.00  0.00    -0.084 Cl
HETATM   19  C13 UNL     1      25.109   5.565  50.133  1.00  0.00     0.024 A 
HETATM   20  C14 UNL     1      24.758   4.346  50.715  1.00  0.00     0.011 A 
ENDBRANCH  13  14
TORSDOF 1
ENDMDL
MODEL 3
REMARK VINA RESULT:      -7.3      2.960      3.681
REMARK  1 active torsions:
REMARK  status: ('A' for Active; 'I' for Inactive)
REMARK    1  A    between atoms: C8_13  and  C9_14 
ROOT
HETATM    1  C1  UNL     1      19.520   0.650  50.906  1.00  0.00     0.042 C 
HETATM    2  C2  UNL     1      19.813   1.497  52.095  1.00  0.00     0.149 C 
HETATM    3  O1  UNL     1      20.049   0.559  53.196  1.00  0.00    -0.340 OA
HETATM    4  C3  UNL     1      21.211  -0.015  53.689  1.00  0.00     0.351 A 
HETATM    5  C4  UNL     1      21.626  -0.990  54.720  1.00  0.00     0.364 A 
HETATM    6  S1  UNL     1      23.473  -0.638  54.112  1.00  0.00     0.088 SA
HETATM    7  C5  UNL     1      23.244   0.521  52.868  1.00  0.00     0.364 A 
HETATM    8  N1  UNL     1      22.572  -0.198  53.732  1.00  0.00     0.084 N 
HETATM    9  N2  UNL     1      22.832   1.406  51.986  1.00  0.00    -0.270 N 
HETATM   10  N3  UNL     1      22.070   1.950  50.888  1.00  0.00    -0.124 NA
HETATM   11  C6  UNL     1      21.078   2.296  51.819  1.00  0.00     0.104 C 
HETATM   12  C7  UNL     1      22.054   3.430  52.093  1.00  0.00     0.065 C 
HETATM   13  C8  UNL     1      23.422   2.659  52.328  1.00  0.00     0.137 C 
ENDROOT
BRANCH  13  14
HETATM   14  C9  UNL     1      24.473   3.089  51.434  1.00  0.00    -0.034 A 
HETATM   15  C10 UNL     1      24.398   4.386  50.869  1.00  0.00     0.011 A 
HETATM   16  C11 UNL     1      25.237   5.027  50.017  1.00  0.00     0.024 A 
HETATM   17  C12 UNL     1      26.333   4.235  49.673  1.00  0.00     0.034 A 
HETATM   18 CL1  UNL     1      27.520   4.945  48.545  1.00  0.00    -0.084 Cl
HETATM   19  C13 UNL     1      26.551   2.974  50.127  1.00  0.00     0.024 A 
HETATM   20  C14 UNL     1      25.597   2.448  51.000  1.00  0.00     0.011 A 
ENDBRANCH  13  14
TORSDOF 1
ENDMDL
MODEL 4
REMARK VINA RESULT:      -7.3      4.233      5.104
REMARK  1 active torsions:
REMARK  status: ('A' for Active; 'I' for Inactive)
REMARK    1  A    between atoms: C8_13  and  C9_14 
ROOT
HETATM    1  C1  UNL     1      21.533   0.986  49.015  1.00  0.00     0.042 C 
HETATM    2  C2  UNL     1      21.436   1.973  50.127  1.00  0.00     0.149 C 
HETATM    3  O1  UNL     1      21.707   1.212  51.350  1.00  0.00    -0.340 OA
HETATM    4  C3  UNL     1      22.879   0.981  52.055  1.00  0.00     0.351 A 
HETATM    5  C4  UNL     1      23.341   0.222  53.237  1.00  0.00     0.364 A 
HETATM    6  S1  UNL     1      25.130   0.962  52.840  1.00  0.00     0.088 SA
HETATM    7  C5  UNL     1      24.838   1.926  51.451  1.00  0.00     0.364 A 
HETATM    8  N1  UNL     1      24.222   1.138  52.297  1.00  0.00     0.084 N 
HETATM    9  N2  UNL     1      24.376   2.610  50.426  1.00  0.00    -0.270 N 
HETATM   10  N3  UNL     1      23.689   2.861  49.182  1.00  0.00    -0.124 NA
HETATM   11  C6  UNL     1      22.513   3.030  49.928  1.00  0.00     0.104 C 
HETATM   12  C7  UNL     1      23.149   4.386  50.195  1.00  0.00     0.065 C 
HETATM   13  C8  UNL     1      24.603   3.992  50.695  1.00  0.00     0.137 C 
ENDROOT
BRANCH  13  14
HETATM   14  C9  UNL     1      25.654   4.591  49.903  1.00  0.00    -0.034 A 
HETATM   15  C10 UNL     1      25.591   5.978  49.625  1.00  0.00     0.011 A 
HETATM   16  C11 UNL     1      26.431   6.776  48.920  1.00  0.00     0.024 A 
HETATM   17  C12 UNL     1      27.516   6.064  48.407  1.00  0.00     0.034 A 
HETATM   18 CL1  UNL     1      28.703   6.985  47.444  1.00  0.00    -0.084 Cl
HETATM   19  C13 UNL     1      27.722   4.733  48.583  1.00  0.00     0.024 A 
HETATM   20  C14 UNL     1      26.768   4.044  49.333  1.00  0.00     0.011 A 
ENDBRANCH  13  14
TORSDOF 1
ENDMDL
MODEL 5
REMARK VINA RESULT:      -7.1      1.997      2.348
REMARK  1 active torsions:
REMARK  status: ('A' for Active; 'I' for Inactive)
REMARK    1  A    between atoms: C8_13  and  C9_14 
ROOT
HETATM    1  C1  UNL     1      23.308   5.156  49.971  1.00  0.00     0.042 C 
HETATM    2  C2  UNL     1      22.777   4.907  51.341  1.00  0.00     0.149 C 
HETATM    3  O1  UNL     1      21.476   4.260  51.144  1.00  0.00    -0.340 OA
HETATM    4  C3  UNL     1      21.108   2.924  51.081  1.00  0.00     0.351 A 
HETATM    5  C4  UNL     1      19.898   2.109  50.843  1.00  0.00     0.364 A 
HETATM    6  S1  UNL     1      21.073   0.541  51.099  1.00  0.00     0.088 SA
HETATM    7  C5  UNL     1      22.598   1.261  51.410  1.00  0.00     0.364 A 
HETATM    8  N1  UNL     1      21.355   1.574  51.146  1.00  0.00     0.084 N 
HETATM    9  N2  UNL     1      23.642   2.027  51.647  1.00  0.00    -0.270 N 
HETATM   10  N3  UNL     1      24.615   3.072  51.435  1.00  0.00    -0.124 NA
HETATM   11  C6  UNL     1      23.722   3.956  52.059  1.00  0.00     0.104 C 
HETATM   12  C7  UNL     1      24.281   3.279  53.302  1.00  0.00     0.065 C 
HETATM   13  C8  UNL     1      24.095   1.738  52.969  1.00  0.00     0.137 C 
ENDROOT
BRANCH  13  14
HETATM   14  C9  UNL     1      25.332   0.994  53.029  1.00  0.00    -0.034 A 
HETATM   15  C10 UNL     1      26.200   1.202  54.128  1.00  0.00     0.011 A 
HETATM   16  C11 UNL     1      27.400   0.643  54.424  1.00  0.00     0.024 A 
HETATM   17  C12 UNL     1      27.797  -0.278  53.455  1.00  0.00     0.034 A 
HETATM   18 CL1  UNL     1      29.367  -1.088  53.705  1.00  0.00    -0.084 Cl
HETATM   19  C13 UNL     1      27.081  -0.591  52.343  1.00  0.00     0.024 A 
HETATM   20  C14 UNL     1      25.862   0.069  52.176  1.00  0.00     0.011 A 
ENDBRANCH  13  14
TORSDOF 1
ENDMDL
MODEL 6
REMARK VINA RESULT:      -7.0      1.964      3.112
REMARK  1 active torsions:
REMARK  status: ('A' for Active; 'I' for Inactive)
REMARK    1  A    between atoms: C8_13  and  C9_14 
ROOT
HETATM    1  C1  UNL     1      20.783   0.572  54.583  1.00  0.00     0.042 C 
HETATM    2  C2  UNL     1      21.013   0.499  53.113  1.00  0.00     0.149 C 
HETATM    3  O1  UNL     1      20.658   1.824  52.596  1.00  0.00    -0.340 OA
HETATM    4  C3  UNL     1      21.421   2.958  52.358  1.00  0.00     0.351 A 
HETATM    5  C4  UNL     1      21.236   4.354  51.906  1.00  0.00     0.364 A 
HETATM    6  S1  UNL     1      23.191   4.536  52.123  1.00  0.00     0.088 SA
HETATM    7  C5  UNL     1      23.657   2.974  52.656  1.00  0.00     0.364 A 
HETATM    8  N1  UNL     1      22.599   3.662  52.307  1.00  0.00     0.084 N 
HETATM    9  N2  UNL     1      23.778   1.716  53.024  1.00  0.00    -0.270 N 
HETATM   10  N3  UNL     1      23.527   0.507  53.771  1.00  0.00    -0.124 NA
HETATM   11  C6  UNL     1      22.490   0.229  52.869  1.00  0.00     0.104 C 
HETATM   12  C7  UNL     1      23.666  -0.197  52.003  1.00  0.00     0.065 C 
HETATM   13  C8  UNL     1      24.621   1.070  52.071  1.00  0.00     0.137 C 
ENDROOT
BRANCH  13  14
HETATM   14  C9  UNL     1      25.944   0.755  52.559  1.00  0.00    -0.034 A 
HETATM   15  C10 UNL     1      26.419  -0.573  52.429  1.00  0.00     0.011 A 
HETATM   16  C11 UNL     1      27.602  -1.127  52.795  1.00  0.00     0.024 A 
HETATM   17  C12 UNL     1      28.450  -0.194  53.392  1.00  0.00     0.034 A 
HETATM   18 CL1  UNL     1      30.043  -0.784  53.938  1.00  0.00    -0.084 Cl
HETATM   19  C13 UNL     1      28.145   1.115  53.591  1.00  0.00     0.024 A 
HETATM   20  C14 UNL     1      26.887   1.538  53.160  1.00  0.00     0.011 A 
ENDBRANCH  13  14
TORSDOF 1
ENDMDL
MODEL 7
REMARK VINA RESULT:      -6.9      3.893      6.254
REMARK  1 active torsions:
REMARK  status: ('A' for Active; 'I' for Inactive)
REMARK    1  A    between atoms: C8_13  and  C9_14 
ROOT
HETATM    1  C1  UNL     1      23.592   5.354  51.778  1.00  0.00     0.042 C 
HETATM    2  C2  UNL     1      23.777   4.421  50.632  1.00  0.00     0.149 C 
HETATM    3  O1  UNL     1      25.111   3.840  50.811  1.00  0.00    -0.340 OA
HETATM    4  C3  UNL     1      25.538   2.680  51.440  1.00  0.00     0.351 A 
HETATM    5  C4  UNL     1      26.802   1.982  51.759  1.00  0.00     0.364 A 
HETATM    6  S1  UNL     1      25.665   0.601  52.599  1.00  0.00     0.088 SA
HETATM    7  C5  UNL     1      24.082   1.209  52.340  1.00  0.00     0.364 A 
HETATM    8  N1  UNL     1      25.339   1.500  52.113  1.00  0.00     0.084 N 
HETATM    9  N2  UNL     1      22.982   1.850  52.008  1.00  0.00    -0.270 N 
HETATM   10  N3  UNL     1      22.050   2.946  51.896  1.00  0.00    -0.124 NA
HETATM   11  C6  UNL     1      22.723   3.327  50.726  1.00  0.00     0.104 C 
HETATM   12  C7  UNL     1      21.902   2.181  50.154  1.00  0.00     0.065 C 
HETATM   13  C8  UNL     1      22.228   0.991  51.153  1.00  0.00     0.137 C 
ENDROOT
BRANCH  13  14
HETATM   14  C9  UNL     1      21.046   0.426  51.763  1.00  0.00    -0.034 A 
HETATM   15  C10 UNL     1      19.824   0.468  51.049  1.00  0.00     0.011 A 
HETATM   16  C11 UNL     1      18.590   0.017  51.384  1.00  0.00     0.024 A 
HETATM   17  C12 UNL     1      18.578  -0.574  52.647  1.00  0.00     0.034 A 
HETATM   18 CL1  UNL     1      17.014  -1.206  53.229  1.00  0.00    -0.084 Cl
HETATM   19  C13 UNL     1      19.662  -0.693  53.458  1.00  0.00     0.024 A 
HETATM   20  C14 UNL     1      20.866  -0.180  52.973  1.00  0.00     0.011 A 
ENDBRANCH  13  14
TORSDOF 1
ENDMDL
MODEL 8
REMARK VINA RESULT:      -6.9      4.307      6.069
REMARK  1 active torsions:
REMARK  status: ('A' for Active; 'I' for Inactive)
REMARK    1  A    between atoms: C8_13  and  C9_14 
ROOT
HETATM    1  C1  UNL     1      22.518   6.983  50.655  1.00  0.00     0.042 C 
HETATM    2  C2  UNL     1      22.540   6.081  49.470  1.00  0.00     0.149 C 
HETATM    3  O1  UNL     1      23.866   6.256  48.870  1.00  0.00    -0.340 OA
HETATM    4  C3  UNL     1      25.057   5.567  49.043  1.00  0.00     0.351 A 
HETATM    5  C4  UNL     1      26.461   5.629  48.582  1.00  0.00     0.364 A 
HETATM    6  S1  UNL     1      26.753   4.029  49.705  1.00  0.00     0.088 SA
HETATM    7  C5  UNL     1      25.197   3.745  50.368  1.00  0.00     0.364 A 
HETATM    8  N1  UNL     1      25.835   4.565  49.570  1.00  0.00     0.084 N 
HETATM    9  N2  UNL     1      23.931   3.710  50.726  1.00  0.00    -0.270 N 
HETATM   10  N3  UNL     1      22.670   4.185  51.243  1.00  0.00    -0.124 NA
HETATM   11  C6  UNL     1      22.377   4.647  49.951  1.00  0.00     0.104 C 
HETATM   12  C7  UNL     1      22.073   3.171  49.740  1.00  0.00     0.065 C 
HETATM   13  C8  UNL     1      23.393   2.468  50.276  1.00  0.00     0.137 C 
ENDROOT
BRANCH  13  14
HETATM   14  C9  UNL     1      23.135   1.511  51.327  1.00  0.00    -0.034 A 
HETATM   15  C10 UNL     1      21.913   0.797  51.314  1.00  0.00     0.011 A 
HETATM   16  C11 UNL     1      21.430  -0.143  52.166  1.00  0.00     0.024 A 
HETATM   17  C12 UNL     1      22.321  -0.409  53.205  1.00  0.00     0.034 A 
HETATM   18 CL1  UNL     1      21.814  -1.621  54.413  1.00  0.00    -0.084 Cl
HETATM   19  C13 UNL     1      23.530   0.189  53.361  1.00  0.00     0.024 A 
HETATM   20  C14 UNL     1      23.890   1.138  52.402  1.00  0.00     0.011 A 
ENDBRANCH  13  14
TORSDOF 1
ENDMDL
MODEL 9
REMARK VINA RESULT:      -6.8      4.020      5.280
REMARK  1 active torsions:
REMARK  status: ('A' for Active; 'I' for Inactive)
REMARK    1  A    between atoms: C8_13  and  C9_14 
ROOT
HETATM    1  C1  UNL     1      21.631   0.117  51.726  1.00  0.00     0.042 C 
HETATM    2  C2  UNL     1      22.242   0.851  52.870  1.00  0.00     0.149 C 
HETATM    3  O1  UNL     1      23.246  -0.060  53.427  1.00  0.00    -0.340 OA
HETATM    4  C3  UNL     1      24.604  -0.202  53.180  1.00  0.00     0.351 A 
HETATM    5  C4  UNL     1      25.729  -1.069  53.591  1.00  0.00     0.364 A 
HETATM    6  S1  UNL     1      26.839   0.041  52.390  1.00  0.00     0.088 SA
HETATM    7  C5  UNL     1      25.709   1.174  51.774  1.00  0.00     0.364 A 
HETATM    8  N1  UNL     1      25.790   0.147  52.582  1.00  0.00     0.084 N 
HETATM    9  N2  UNL     1      24.684   1.939  51.461  1.00  0.00    -0.270 N 
HETATM   10  N3  UNL     1      23.358   2.287  51.013  1.00  0.00    -0.124 NA
HETATM   11  C6  UNL     1      22.922   2.102  52.334  1.00  0.00     0.104 C 
HETATM   12  C7  UNL     1      23.551   3.478  52.491  1.00  0.00     0.065 C 
HETATM   13  C8  UNL     1      25.000   3.267  51.877  1.00  0.00     0.137 C 
ENDROOT
BRANCH  13  14
HETATM   14  C9  UNL     1      25.292   4.179  50.795  1.00  0.00    -0.034 A 
HETATM   15  C10 UNL     1      24.476   5.325  50.630  1.00  0.00     0.011 A 
HETATM   16  C11 UNL     1      24.532   6.324  49.714  1.00  0.00     0.024 A 
HETATM   17  C12 UNL     1      25.581   6.144  48.813  1.00  0.00     0.034 A 
HETATM   18 CL1  UNL     1      25.771   7.379  47.539  1.00  0.00    -0.084 Cl
HETATM   19  C13 UNL     1      26.451   5.102  48.834  1.00  0.00     0.024 A 
HETATM   20  C14 UNL     1      26.266   4.150  49.839  1.00  0.00     0.011 A 
ENDBRANCH  13  14
TORSDOF 1
ENDMDL
