MODEL 1
REMARK VINA RESULT:      -8.3      0.000      0.000
REMARK  2 active torsions:
REMARK  status: ('A' for Active; 'I' for Inactive)
REMARK    1  A    between atoms: N1_3  and  C3_4 
REMARK    2  A    between atoms: C3_4  and  C4_5 
ROOT
HETATM    1  C4  UNL     1      26.291   2.199  52.204  1.00  0.00     0.133 C 
HETATM    2  N2  UNL     1      27.034   2.467  51.191  1.00  0.00    -0.267 NA
HETATM    3  C5  UNL     1      26.452   2.618  49.898  1.00  0.00     0.192 C 
HETATM    4  C6  UNL     1      26.127   4.012  49.509  1.00  0.00    -0.011 A 
HETATM    5  C7  UNL     1      26.677   5.196  49.230  1.00  0.00     0.013 A 
HETATM    6  C8  UNL     1      25.310   5.697  49.012  1.00  0.00     0.031 A 
HETATM    7  C9  UNL     1      24.776   4.517  49.292  1.00  0.00     0.057 A 
HETATM    8  N3  UNL     1      23.637   3.693  49.444  1.00  0.00    -0.188 N 
HETATM    9  C10 UNL     1      22.832   3.214  50.499  1.00  0.00     0.727 A 
HETATM   10  N4  UNL     1      21.688   3.956  50.576  1.00  0.00    -0.075 NA
HETATM   11  C11 UNL     1      20.751   3.693  51.512  1.00  0.00     0.138 A 
HETATM   12  C12 UNL     1      21.022   2.642  52.372  1.00  0.00     0.048 A 
HETATM   13  C13 UNL     1      22.190   1.910  52.270  1.00  0.00     0.063 A 
HETATM   14  N5  UNL     1      23.146   2.168  51.324  1.00  0.00    -0.067 NA
HETATM   15  C14 UNL     1      22.905   0.817  52.881  1.00  0.00     0.074 C 
HETATM   16  C15 UNL     1      22.923  -0.431  53.306  1.00  0.00    -0.013 C 
HETATM   17  C16 UNL     1      24.325  -0.480  53.799  1.00  0.00     0.014 C 
HETATM   18  C17 UNL     1      25.170   0.570  53.729  1.00  0.00     0.089 C 
HETATM   19  N6  UNL     1      25.539   1.896  53.400  1.00  0.00    -0.350 N 
HETATM   20  H9  UNL     1      23.322   3.368  48.507  1.00  0.00     0.184 HD
HETATM   21  H16 UNL     1      25.293   2.716  53.992  1.00  0.00     0.166 HD
ENDROOT
BRANCH   1  22
HETATM   22  C3  UNL     1      27.643   2.264  52.792  1.00  0.00     0.110 C 
BRANCH  22  23
HETATM   23  N1  UNL     1      28.827   1.796  53.071  1.00  0.00    -0.281 NA
HETATM   24  C2  UNL     1      28.985   1.297  54.393  1.00  0.00     0.095 A 
HETATM   25  C1  UNL     1      29.395   0.333  53.565  1.00  0.00     0.117 A 
ENDBRANCH  22  23
ENDBRANCH   1  22
TORSDOF 2
ENDMDL
MODEL 2
REMARK VINA RESULT:      -8.3      1.503      6.899
REMARK  2 active torsions:
REMARK  status: ('A' for Active; 'I' for Inactive)
REMARK    1  A    between atoms: N1_3  and  C3_4 
REMARK    2  A    between atoms: C3_4  and  C4_5 
ROOT
HETATM    1  C4  UNL     1      22.684   2.371  52.049  1.00  0.00     0.133 C 
HETATM    2  N2  UNL     1      21.817   1.432  52.175  1.00  0.00    -0.267 NA
HETATM    3  C5  UNL     1      22.245   0.074  52.275  1.00  0.00     0.192 C 
HETATM    4  C6  UNL     1      22.396  -0.441  53.658  1.00  0.00    -0.011 A 
HETATM    5  C7  UNL     1      21.712  -0.736  54.766  1.00  0.00     0.013 A 
HETATM    6  C8  UNL     1      22.996  -1.137  55.363  1.00  0.00     0.031 A 
HETATM    7  C9  UNL     1      23.664  -0.840  54.258  1.00  0.00     0.057 A 
HETATM    8  N3  UNL     1      24.884  -0.760  53.548  1.00  0.00    -0.188 N 
HETATM    9  C10 UNL     1      25.837   0.230  53.223  1.00  0.00     0.727 A 
HETATM   10  N4  UNL     1      26.907   0.130  54.063  1.00  0.00    -0.075 NA
HETATM   11  C11 UNL     1      27.958   0.971  53.954  1.00  0.00     0.138 A 
HETATM   12  C12 UNL     1      27.877   1.924  52.952  1.00  0.00     0.048 A 
HETATM   13  C13 UNL     1      26.778   2.002  52.118  1.00  0.00     0.063 A 
HETATM   14  N5  UNL     1      25.708   1.153  52.220  1.00  0.00    -0.067 NA
HETATM   15  C14 UNL     1      26.236   2.760  51.018  1.00  0.00     0.074 C 
HETATM   16  C15 UNL     1      26.378   3.268  49.810  1.00  0.00    -0.013 C 
HETATM   17  C16 UNL     1      25.046   3.915  49.679  1.00  0.00     0.014 C 
HETATM   18  C17 UNL     1      24.104   3.869  50.644  1.00  0.00     0.089 C 
HETATM   19  N6  UNL     1      23.581   3.494  51.905  1.00  0.00    -0.350 N 
HETATM   20  H9  UNL     1      25.129  -1.701  53.180  1.00  0.00     0.184 HD
HETATM   21  H16 UNL     1      23.810   4.000  52.786  1.00  0.00     0.166 HD
ENDROOT
BRANCH   1  22
HETATM   22  C3  UNL     1      21.400   3.100  52.044  1.00  0.00     0.110 C 
BRANCH  22  23
HETATM   23  N1  UNL     1      20.149   3.279  52.364  1.00  0.00    -0.281 NA
HETATM   24  C2  UNL     1      19.379   4.001  51.412  1.00  0.00     0.095 A 
HETATM   25  C1  UNL     1      18.717   2.870  51.666  1.00  0.00     0.117 A 
ENDBRANCH  22  23
ENDBRANCH   1  22
TORSDOF 2
ENDMDL
MODEL 3
REMARK VINA RESULT:      -7.9      1.722      4.884
REMARK  2 active torsions:
REMARK  status: ('A' for Active; 'I' for Inactive)
REMARK    1  A    between atoms: N1_3  and  C3_4 
REMARK    2  A    between atoms: C3_4  and  C4_5 
ROOT
HETATM    1  C4  UNL     1      25.523   2.810  51.166  1.00  0.00     0.133 C 
HETATM    2  N2  UNL     1      26.650   2.560  51.729  1.00  0.00    -0.267 NA
HETATM    3  C5  UNL     1      26.686   1.906  52.996  1.00  0.00     0.192 C 
HETATM    4  C6  UNL     1      26.853   0.433  52.944  1.00  0.00    -0.011 A 
HETATM    5  C7  UNL     1      27.708  -0.531  52.595  1.00  0.00     0.013 A 
HETATM    6  C8  UNL     1      26.687  -1.494  53.036  1.00  0.00     0.031 A 
HETATM    7  C9  UNL     1      25.847  -0.529  53.378  1.00  0.00     0.057 A 
HETATM    8  N3  UNL     1      24.596  -0.120  53.895  1.00  0.00    -0.188 N 
HETATM    9  C10 UNL     1      23.351   0.311  53.388  1.00  0.00     0.727 A 
HETATM   10  N4  UNL     1      22.462  -0.724  53.414  1.00  0.00    -0.075 NA
HETATM   11  C11 UNL     1      21.194  -0.563  52.978  1.00  0.00     0.138 A 
HETATM   12  C12 UNL     1      20.863   0.698  52.511  1.00  0.00     0.048 A 
HETATM   13  C13 UNL     1      21.786   1.726  52.495  1.00  0.00     0.063 A 
HETATM   14  N5  UNL     1      23.074   1.573  52.936  1.00  0.00    -0.067 NA
HETATM   15  C14 UNL     1      21.942   3.111  52.123  1.00  0.00     0.074 C 
HETATM   16  C15 UNL     1      21.519   4.358  52.187  1.00  0.00    -0.013 C 
HETATM   17  C16 UNL     1      22.557   4.991  51.332  1.00  0.00     0.014 C 
HETATM   18  C17 UNL     1      23.562   4.300  50.755  1.00  0.00     0.089 C 
HETATM   19  N6  UNL     1      24.307   3.134  50.456  1.00  0.00    -0.350 N 
HETATM   20  H9  UNL     1      24.624  -0.163  54.933  1.00  0.00     0.184 HD
HETATM   21  H16 UNL     1      24.025   2.455  49.720  1.00  0.00     0.166 HD
ENDROOT
BRANCH   1  22
HETATM   22  C3  UNL     1      26.502   3.347  50.201  1.00  0.00     0.110 C 
BRANCH  22  23
HETATM   23  N1  UNL     1      26.867   3.862  49.061  1.00  0.00    -0.281 NA
HETATM   24  C2  UNL     1      26.657   5.263  48.935  1.00  0.00     0.095 A 
HETATM   25  C1  UNL     1      27.935   5.035  48.621  1.00  0.00     0.117 A 
ENDBRANCH  22  23
ENDBRANCH   1  22
TORSDOF 2
ENDMDL
MODEL 4
REMARK VINA RESULT:      -7.8      2.082      5.713
REMARK  2 active torsions:
REMARK  status: ('A' for Active; 'I' for Inactive)
REMARK    1  A    between atoms: N1_3  and  C3_4 
REMARK    2  A    between atoms: C3_4  and  C4_5 
ROOT
HETATM    1  C4  UNL     1      21.631   1.527  52.076  1.00  0.00     0.133 C 
HETATM    2  N2  UNL     1      21.516   2.790  51.873  1.00  0.00    -0.267 NA
HETATM    3  C5  UNL     1      22.586   3.669  52.215  1.00  0.00     0.192 C 
HETATM    4  C6  UNL     1      23.518   3.993  51.108  1.00  0.00    -0.011 A 
HETATM    5  C7  UNL     1      23.596   4.608  49.926  1.00  0.00     0.013 A 
HETATM    6  C8  UNL     1      25.012   4.208  49.894  1.00  0.00     0.031 A 
HETATM    7  C9  UNL     1      24.923   3.600  51.067  1.00  0.00     0.057 A 
HETATM    8  N3  UNL     1      25.520   2.856  52.110  1.00  0.00    -0.188 N 
HETATM    9  C10 UNL     1      25.595   1.506  52.515  1.00  0.00     0.727 A 
HETATM   10  N4  UNL     1      26.790   0.975  52.124  1.00  0.00    -0.075 NA
HETATM   11  C11 UNL     1      27.101  -0.311  52.395  1.00  0.00     0.138 A 
HETATM   12  C12 UNL     1      26.145  -1.041  53.082  1.00  0.00     0.048 A 
HETATM   13  C13 UNL     1      24.944  -0.475  53.463  1.00  0.00     0.063 A 
HETATM   14  N5  UNL     1      24.619   0.828  53.194  1.00  0.00    -0.067 NA
HETATM   15  C14 UNL     1      23.701  -0.783  54.128  1.00  0.00     0.074 C 
HETATM   16  C15 UNL     1      23.064  -1.268  55.176  1.00  0.00    -0.013 C 
HETATM   17  C16 UNL     1      21.669  -1.050  54.711  1.00  0.00     0.014 C 
HETATM   18  C17 UNL     1      21.365  -0.493  53.520  1.00  0.00     0.089 C 
HETATM   19  N6  UNL     1      21.667   0.096  52.268  1.00  0.00    -0.350 N 
HETATM   20  H9  UNL     1      26.049   3.500  52.731  1.00  0.00     0.184 HD
HETATM   21  H16 UNL     1      21.926  -0.462  51.428  1.00  0.00     0.166 HD
ENDROOT
BRANCH   1  22
HETATM   22  C3  UNL     1      20.280   1.648  51.495  1.00  0.00     0.110 C 
BRANCH  22  23
HETATM   23  N1  UNL     1      18.996   1.426  51.449  1.00  0.00    -0.281 NA
HETATM   24  C2  UNL     1      18.559   0.633  50.352  1.00  0.00     0.095 A 
HETATM   25  C1  UNL     1      18.067   0.068  51.457  1.00  0.00     0.117 A 
ENDBRANCH  22  23
ENDBRANCH   1  22
TORSDOF 2
ENDMDL
MODEL 5
REMARK VINA RESULT:      -7.2      1.836      4.894
REMARK  2 active torsions:
REMARK  status: ('A' for Active; 'I' for Inactive)
REMARK    1  A    between atoms: N1_3  and  C3_4 
REMARK    2  A    between atoms: C3_4  and  C4_5 
ROOT
HETATM    1  C4  UNL     1      25.399   0.135  52.958  1.00  0.00     0.133 C 
HETATM    2  N2  UNL     1      24.997  -0.203  54.130  1.00  0.00    -0.267 NA
HETATM    3  C5  UNL     1      23.724   0.236  54.602  1.00  0.00     0.192 C 
HETATM    4  C6  UNL     1      22.609  -0.720  54.394  1.00  0.00    -0.011 A 
HETATM    5  C7  UNL     1      22.155  -1.923  54.752  1.00  0.00     0.013 A 
HETATM    6  C8  UNL     1      21.007  -1.673  53.866  1.00  0.00     0.031 A 
HETATM    7  C9  UNL     1      21.468  -0.481  53.517  1.00  0.00     0.057 A 
HETATM    8  N3  UNL     1      21.334   0.714  52.773  1.00  0.00    -0.188 N 
HETATM    9  C10 UNL     1      21.832   1.250  51.566  1.00  0.00     0.727 A 
HETATM   10  N4  UNL     1      20.892   1.122  50.585  1.00  0.00    -0.075 NA
HETATM   11  C11 UNL     1      21.132   1.562  49.331  1.00  0.00     0.138 A 
HETATM   12  C12 UNL     1      22.371   2.139  49.111  1.00  0.00     0.048 A 
HETATM   13  C13 UNL     1      23.304   2.253  50.124  1.00  0.00     0.063 A 
HETATM   14  N5  UNL     1      23.070   1.811  51.400  1.00  0.00    -0.067 NA
HETATM   15  C14 UNL     1      24.642   2.719  50.393  1.00  0.00     0.074 C 
HETATM   16  C15 UNL     1      25.541   3.682  50.337  1.00  0.00    -0.013 C 
HETATM   17  C16 UNL     1      26.678   2.965  50.973  1.00  0.00     0.014 C 
HETATM   18  C17 UNL     1      26.594   1.693  51.415  1.00  0.00     0.089 C 
HETATM   19  N6  UNL     1      25.937   0.463  51.658  1.00  0.00    -0.350 N 
HETATM   20  H9  UNL     1      20.682   1.355  53.268  1.00  0.00     0.184 HD
HETATM   21  H16 UNL     1      25.808  -0.264  50.924  1.00  0.00     0.166 HD
ENDROOT
BRANCH   1  22
HETATM   22  C3  UNL     1      26.518  -0.680  53.471  1.00  0.00     0.110 C 
BRANCH  22  23
HETATM   23  N1  UNL     1      27.611  -0.878  54.154  1.00  0.00    -0.281 NA
HETATM   24  C2  UNL     1      28.811  -0.871  53.391  1.00  0.00     0.095 A 
HETATM   25  C1  UNL     1      28.987  -0.008  54.394  1.00  0.00     0.117 A 
ENDBRANCH  22  23
ENDBRANCH   1  22
TORSDOF 2
ENDMDL
MODEL 6
REMARK VINA RESULT:      -7.2      2.439      6.087
REMARK  2 active torsions:
REMARK  status: ('A' for Active; 'I' for Inactive)
REMARK    1  A    between atoms: N1_3  and  C3_4 
REMARK    2  A    between atoms: C3_4  and  C4_5 
ROOT
HETATM    1  C4  UNL     1      20.588   1.386  52.011  1.00  0.00     0.133 C 
HETATM    2  N2  UNL     1      20.185   2.597  51.865  1.00  0.00    -0.267 NA
HETATM    3  C5  UNL     1      21.038   3.682  52.223  1.00  0.00     0.192 C 
HETATM    4  C6  UNL     1      21.840   4.251  51.113  1.00  0.00    -0.011 A 
HETATM    5  C7  UNL     1      21.742   4.912  49.957  1.00  0.00     0.013 A 
HETATM    6  C8  UNL     1      23.210   4.845  49.879  1.00  0.00     0.031 A 
HETATM    7  C9  UNL     1      23.295   4.189  51.026  1.00  0.00     0.057 A 
HETATM    8  N3  UNL     1      24.076   3.561  52.024  1.00  0.00    -0.188 N 
HETATM    9  C10 UNL     1      24.466   2.249  52.368  1.00  0.00     0.727 A 
HETATM   10  N4  UNL     1      25.737   2.018  51.931  1.00  0.00    -0.075 NA
HETATM   11  C11 UNL     1      26.339   0.828  52.139  1.00  0.00     0.138 A 
HETATM   12  C12 UNL     1      25.594  -0.125  52.814  1.00  0.00     0.048 A 
HETATM   13  C13 UNL     1      24.307   0.138  53.243  1.00  0.00     0.063 A 
HETATM   14  N5  UNL     1      23.688   1.342  53.037  1.00  0.00    -0.067 NA
HETATM   15  C14 UNL     1      23.187  -0.469  53.919  1.00  0.00     0.074 C 
HETATM   16  C15 UNL     1      22.707  -1.125  54.957  1.00  0.00    -0.013 C 
HETATM   17  C16 UNL     1      21.285  -1.212  54.530  1.00  0.00     0.014 C 
HETATM   18  C17 UNL     1      20.829  -0.695  53.371  1.00  0.00     0.089 C 
HETATM   19  N6  UNL     1      20.952  -0.006  52.140  1.00  0.00    -0.350 N 
HETATM   20  H9  UNL     1      24.463   4.285  52.662  1.00  0.00     0.184 HD
HETATM   21  H16 UNL     1      21.306  -0.458  51.272  1.00  0.00     0.166 HD
ENDROOT
BRANCH   1  22
HETATM   22  C3  UNL     1      19.228   1.219  51.463  1.00  0.00     0.110 C 
BRANCH  22  23
HETATM   23  N1  UNL     1      17.962   0.917  51.533  1.00  0.00    -0.281 NA
HETATM   24  C2  UNL     1      17.491   0.046  50.512  1.00  0.00     0.095 A 
HETATM   25  C1  UNL     1      17.126  -0.494  51.678  1.00  0.00     0.117 A 
ENDBRANCH  22  23
ENDBRANCH   1  22
TORSDOF 2
ENDMDL
MODEL 7
REMARK VINA RESULT:      -7.2      1.980      6.624
REMARK  2 active torsions:
REMARK  status: ('A' for Active; 'I' for Inactive)
REMARK    1  A    between atoms: N1_3  and  C3_4 
REMARK    2  A    between atoms: C3_4  and  C4_5 
ROOT
HETATM    1  C4  UNL     1      22.944   4.655  50.923  1.00  0.00     0.133 C 
HETATM    2  N2  UNL     1      21.755   4.191  50.783  1.00  0.00    -0.267 NA
HETATM    3  C5  UNL     1      21.547   2.784  50.661  1.00  0.00     0.192 C 
HETATM    4  C6  UNL     1      21.231   2.078  51.926  1.00  0.00    -0.011 A 
HETATM    5  C7  UNL     1      20.310   1.974  52.887  1.00  0.00     0.013 A 
HETATM    6  C8  UNL     1      21.185   0.971  53.515  1.00  0.00     0.031 A 
HETATM    7  C9  UNL     1      22.092   1.083  52.556  1.00  0.00     0.057 A 
HETATM    8  N3  UNL     1      23.333   0.706  51.993  1.00  0.00    -0.188 N 
HETATM    9  C10 UNL     1      24.653   1.203  51.956  1.00  0.00     0.727 A 
HETATM   10  N4  UNL     1      25.423   0.529  52.859  1.00  0.00    -0.075 NA
HETATM   11  C11 UNL     1      26.732   0.823  53.013  1.00  0.00     0.138 A 
HETATM   12  C12 UNL     1      27.231   1.836  52.210  1.00  0.00     0.048 A 
HETATM   13  C13 UNL     1      26.426   2.502  51.306  1.00  0.00     0.063 A 
HETATM   14  N5  UNL     1      25.097   2.210  51.142  1.00  0.00    -0.067 NA
HETATM   15  C14 UNL     1      26.447   3.560  50.326  1.00  0.00     0.074 C 
HETATM   16  C15 UNL     1      26.993   4.105  49.257  1.00  0.00    -0.013 C 
HETATM   17  C16 UNL     1      26.100   5.287  49.128  1.00  0.00     0.014 C 
HETATM   18  C17 UNL     1      25.078   5.537  49.973  1.00  0.00     0.089 C 
HETATM   19  N6  UNL     1      24.241   5.271  51.083  1.00  0.00    -0.350 N 
HETATM   20  H9  UNL     1      23.217  -0.189  51.476  1.00  0.00     0.184 HD
HETATM   21  H16 UNL     1      24.509   5.502  52.062  1.00  0.00     0.166 HD
ENDROOT
BRANCH   1  22
HETATM   22  C3  UNL     1      22.108   5.872  50.937  1.00  0.00     0.110 C 
BRANCH  22  23
HETATM   23  N1  UNL     1      21.907   7.159  50.916  1.00  0.00    -0.281 NA
HETATM   24  C2  UNL     1      22.001   7.766  49.633  1.00  0.00     0.095 A 
HETATM   25  C1  UNL     1      20.829   8.139  50.151  1.00  0.00     0.117 A 
ENDBRANCH  22  23
ENDBRANCH   1  22
TORSDOF 2
ENDMDL
MODEL 8
REMARK VINA RESULT:      -6.9      2.445      5.802
REMARK  2 active torsions:
REMARK  status: ('A' for Active; 'I' for Inactive)
REMARK    1  A    between atoms: N1_3  and  C3_4 
REMARK    2  A    between atoms: C3_4  and  C4_5 
ROOT
HETATM    1  C4  UNL     1      22.282   2.444  48.867  1.00  0.00     0.133 C 
HETATM    2  N2  UNL     1      22.984   3.513  48.743  1.00  0.00    -0.267 NA
HETATM    3  C5  UNL     1      23.620   4.086  49.884  1.00  0.00     0.192 C 
HETATM    4  C6  UNL     1      25.030   3.678  50.095  1.00  0.00    -0.011 A 
HETATM    5  C7  UNL     1      26.253   3.758  49.565  1.00  0.00     0.013 A 
HETATM    6  C8  UNL     1      26.721   2.964  50.713  1.00  0.00     0.031 A 
HETATM    7  C9  UNL     1      25.504   2.891  51.228  1.00  0.00     0.057 A 
HETATM    8  N3  UNL     1      24.628   2.441  52.242  1.00  0.00    -0.188 N 
HETATM    9  C10 UNL     1      23.714   1.382  52.435  1.00  0.00     0.727 A 
HETATM   10  N4  UNL     1      24.294   0.408  53.195  1.00  0.00    -0.075 NA
HETATM   11  C11 UNL     1      23.619  -0.715  53.519  1.00  0.00     0.138 A 
HETATM   12  C12 UNL     1      22.324  -0.811  53.037  1.00  0.00     0.048 A 
HETATM   13  C13 UNL     1      21.764   0.191  52.268  1.00  0.00     0.063 A 
HETATM   14  N5  UNL     1      22.441   1.335  51.934  1.00  0.00    -0.067 NA
HETATM   15  C14 UNL     1      20.559   0.545  51.560  1.00  0.00     0.074 C 
HETATM   16  C15 UNL     1      19.249   0.699  51.556  1.00  0.00    -0.013 C 
HETATM   17  C16 UNL     1      19.080   1.143  50.146  1.00  0.00     0.014 C 
HETATM   18  C17 UNL     1      20.111   1.284  49.288  1.00  0.00     0.089 C 
HETATM   19  N6  UNL     1      21.474   1.247  48.907  1.00  0.00    -0.350 N 
HETATM   20  H9  UNL     1      24.699   3.076  53.063  1.00  0.00     0.184 HD
HETATM   21  H16 UNL     1      21.963   0.369  48.638  1.00  0.00     0.166 HD
ENDROOT
BRANCH   1  22
HETATM   22  C3  UNL     1      22.176   2.746  47.427  1.00  0.00     0.110 C 
BRANCH  22  23
HETATM   23  N1  UNL     1      21.946   3.519  46.402  1.00  0.00    -0.281 NA
HETATM   24  C2  UNL     1      20.572   3.708  46.083  1.00  0.00     0.095 A 
HETATM   25  C1  UNL     1      21.115   4.923  46.188  1.00  0.00     0.117 A 
ENDBRANCH  22  23
ENDBRANCH   1  22
TORSDOF 2
ENDMDL
MODEL 9
REMARK VINA RESULT:      -6.8      1.620      4.686
REMARK  2 active torsions:
REMARK  status: ('A' for Active; 'I' for Inactive)
REMARK    1  A    between atoms: N1_3  and  C3_4 
REMARK    2  A    between atoms: C3_4  and  C4_5 
ROOT
HETATM    1  C4  UNL     1      25.237   2.588  51.676  1.00  0.00     0.133 C 
HETATM    2  N2  UNL     1      24.835   2.266  52.853  1.00  0.00    -0.267 NA
HETATM    3  C5  UNL     1      23.455   2.392  53.195  1.00  0.00     0.192 C 
HETATM    4  C6  UNL     1      22.647   1.160  53.030  1.00  0.00    -0.011 A 
HETATM    5  C7  UNL     1      22.490  -0.082  53.494  1.00  0.00     0.013 A 
HETATM    6  C8  UNL     1      21.398  -0.229  52.518  1.00  0.00     0.031 A 
HETATM    7  C9  UNL     1      21.564   1.004  52.065  1.00  0.00     0.057 A 
HETATM    8  N3  UNL     1      21.192   2.046  51.185  1.00  0.00    -0.188 N 
HETATM    9  C10 UNL     1      21.639   2.580  49.957  1.00  0.00     0.727 A 
HETATM   10  N4  UNL     1      20.853   2.117  48.942  1.00  0.00    -0.075 NA
HETATM   11  C11 UNL     1      21.079   2.485  47.663  1.00  0.00     0.138 A 
HETATM   12  C12 UNL     1      22.142   3.348  47.454  1.00  0.00     0.048 A 
HETATM   13  C13 UNL     1      22.921   3.800  48.502  1.00  0.00     0.063 A 
HETATM   14  N5  UNL     1      22.699   3.432  49.803  1.00  0.00    -0.067 NA
HETATM   15  C14 UNL     1      24.065   4.628  48.796  1.00  0.00     0.074 C 
HETATM   16  C15 UNL     1      24.687   5.785  48.686  1.00  0.00    -0.013 C 
HETATM   17  C16 UNL     1      25.910   5.459  49.465  1.00  0.00     0.014 C 
HETATM   18  C17 UNL     1      26.120   4.257  50.042  1.00  0.00     0.089 C 
HETATM   19  N6  UNL     1      25.784   2.924  50.382  1.00  0.00    -0.350 N 
HETATM   20  H9  UNL     1      20.356   2.533  51.564  1.00  0.00     0.184 HD
HETATM   21  H16 UNL     1      25.911   2.124  49.728  1.00  0.00     0.166 HD
ENDROOT
BRANCH   1  22
HETATM   22  C3  UNL     1      26.479   2.151  52.344  1.00  0.00     0.110 C 
BRANCH  22  23
HETATM   23  N1  UNL     1      27.270   1.996  53.369  1.00  0.00    -0.281 NA
HETATM   24  C2  UNL     1      28.485   1.310  53.096  1.00  0.00     0.095 A 
HETATM   25  C1  UNL     1      28.815   2.453  53.704  1.00  0.00     0.117 A 
ENDBRANCH  22  23
ENDBRANCH   1  22
TORSDOF 2
ENDMDL
