MODEL 1
REMARK VINA RESULT:      -7.1      0.000      0.000
REMARK  8 active torsions:
REMARK  status: ('A' for Active; 'I' for Inactive)
REMARK    1  A    between atoms: C2_2  and  C3_3 
REMARK    2  A    between atoms: C3_3  and  C4_4 
REMARK    3  A    between atoms: C4_4  and  C5_5 
REMARK    4  A    between atoms: C5_5  and  N1_6 
REMARK    5  A    between atoms: N1_6  and  C6_7 
REMARK    6  A    between atoms: C6_7  and  C7_8 
REMARK    7  A    between atoms: C11_15  and  N5_16 
REMARK    8  A    between atoms: N5_16  and  C12_17 
ROOT
HETATM    1  C7  UNL     1      26.284  -0.509  53.102  1.00  0.00     0.004 A 
HETATM    2  C8  UNL     1      27.116  -1.616  52.924  1.00  0.00     0.030 A 
HETATM    3  C9  UNL     1      28.429  -1.268  53.149  1.00  0.00     0.119 A 
HETATM    4  N2  UNL     1      28.375   0.034  53.458  1.00  0.00    -0.240 N 
HETATM    5  N3  UNL     1      29.405   0.824  53.759  1.00  0.00    -0.161 NA
HETATM    6  C10 UNL     1      29.237   2.119  54.052  1.00  0.00     0.258 A 
HETATM    7  N4  UNL     1      28.004   2.631  54.043  1.00  0.00    -0.220 NA
HETATM    8  C11 UNL     1      26.957   1.853  53.743  1.00  0.00     0.159 A 
HETATM    9  C18 UNL     1      27.124   0.525  53.442  1.00  0.00     0.112 A 
ENDROOT
BRANCH   8  10
HETATM   10  N5  UNL     1      25.665   2.435  53.746  1.00  0.00    -0.339 N 
HETATM   11  H18 UNL     1      25.002   2.675  54.504  1.00  0.00     0.167 HD
BRANCH  10  12
HETATM   12  C12 UNL     1      24.985   2.827  52.563  1.00  0.00     0.035 A 
HETATM   13  C13 UNL     1      25.572   2.796  51.316  1.00  0.00     0.029 A 
HETATM   14  C14 UNL     1      24.957   3.190  50.148  1.00  0.00     0.004 A 
HETATM   15  C15 UNL     1      23.659   3.655  50.178  1.00  0.00     0.019 A 
HETATM   16  C16 UNL     1      22.993   3.720  51.382  1.00  0.00     0.013 A 
HETATM   17 BR1  UNL     1      21.207   4.349  51.507  1.00  0.00    -0.051 Br
HETATM   18  C17 UNL     1      23.674   3.310  52.501  1.00  0.00     0.048 A 
ENDBRANCH  10  12
ENDBRANCH   8  10
BRANCH   1  19
HETATM   19  C6  UNL     1      24.810  -0.474  52.948  1.00  0.00     0.310 C 
BRANCH  19  20
HETATM   20  N1  UNL     1      24.225  -0.664  54.275  1.00  0.00     0.087 N 
HETATM   21  H12 UNL     1      24.386   0.194  54.845  1.00  0.00     0.316 HD
BRANCH  20  22
HETATM   22  C5  UNL     1      22.803  -0.798  54.068  1.00  0.00     0.270 C 
BRANCH  22  23
HETATM   23  C4  UNL     1      22.332  -0.169  52.795  1.00  0.00     0.030 C 
BRANCH  23  24
HETATM   24  C3  UNL     1      20.995   0.507  52.920  1.00  0.00     0.001 C 
BRANCH  24  25
HETATM   25  C2  UNL     1      20.373   0.591  51.523  1.00  0.00    -0.005 C 
HETATM   26  C1  UNL     1      21.429   0.553  50.455  1.00  0.00     0.005 C 
ENDBRANCH  24  25
ENDBRANCH  23  24
ENDBRANCH  22  23
ENDBRANCH  20  22
ENDBRANCH  19  20
ENDBRANCH   1  19
TORSDOF 8
ENDMDL
MODEL 2
REMARK VINA RESULT:      -7.1      2.849      6.033
REMARK  8 active torsions:
REMARK  status: ('A' for Active; 'I' for Inactive)
REMARK    1  A    between atoms: C2_2  and  C3_3 
REMARK    2  A    between atoms: C3_3  and  C4_4 
REMARK    3  A    between atoms: C4_4  and  C5_5 
REMARK    4  A    between atoms: C5_5  and  N1_6 
REMARK    5  A    between atoms: N1_6  and  C6_7 
REMARK    6  A    between atoms: C6_7  and  C7_8 
REMARK    7  A    between atoms: C11_15  and  N5_16 
REMARK    8  A    between atoms: N5_16  and  C12_17 
ROOT
HETATM    1  C7  UNL     1      21.855   0.702  52.081  1.00  0.00     0.004 A 
HETATM    2  C8  UNL     1      20.500   0.636  52.409  1.00  0.00     0.030 A 
HETATM    3  C9  UNL     1      20.329  -0.026  53.604  1.00  0.00     0.119 A 
HETATM    4  N2  UNL     1      21.573  -0.349  53.980  1.00  0.00    -0.240 N 
HETATM    5  N3  UNL     1      21.926  -1.007  55.085  1.00  0.00    -0.161 NA
HETATM    6  C10 UNL     1      23.205  -1.280  55.363  1.00  0.00     0.258 A 
HETATM    7  N4  UNL     1      24.154  -0.882  54.512  1.00  0.00    -0.220 NA
HETATM    8  C11 UNL     1      23.819  -0.221  53.397  1.00  0.00     0.159 A 
HETATM    9  C18 UNL     1      22.509   0.062  53.107  1.00  0.00     0.112 A 
ENDROOT
BRANCH   8  10
HETATM   10  N5  UNL     1      24.855   0.186  52.520  1.00  0.00    -0.339 N 
HETATM   11  H18 UNL     1      24.915   0.265  51.489  1.00  0.00     0.167 HD
BRANCH  10  12
HETATM   12  C12 UNL     1      26.138   0.597  52.967  1.00  0.00     0.035 A 
HETATM   13  C13 UNL     1      26.430   1.900  53.308  1.00  0.00     0.029 A 
HETATM   14  C14 UNL     1      27.666   2.345  53.723  1.00  0.00     0.004 A 
HETATM   15  C15 UNL     1      28.718   1.460  53.821  1.00  0.00     0.019 A 
HETATM   16  C16 UNL     1      28.518   0.136  53.500  1.00  0.00     0.013 A 
HETATM   17 BR1  UNL     1      29.914  -1.145  53.608  1.00  0.00    -0.051 Br
HETATM   18  C17 UNL     1      27.258  -0.230  53.094  1.00  0.00     0.048 A 
ENDBRANCH  10  12
ENDBRANCH   8  10
BRANCH   1  19
HETATM   19  C6  UNL     1      22.445   1.329  50.874  1.00  0.00     0.310 C 
BRANCH  19  20
HETATM   20  N1  UNL     1      22.333   2.779  51.033  1.00  0.00     0.087 N 
HETATM   21  H12 UNL     1      21.832   2.987  51.922  1.00  0.00     0.316 HD
BRANCH  20  22
HETATM   22  C5  UNL     1      23.683   3.271  51.159  1.00  0.00     0.270 C 
BRANCH  22  23
HETATM   23  C4  UNL     1      24.467   3.172  49.888  1.00  0.00     0.030 C 
BRANCH  23  24
HETATM   24  C3  UNL     1      25.919   3.531  50.051  1.00  0.00     0.001 C 
BRANCH  24  25
HETATM   25  C2  UNL     1      26.186   4.803  49.242  1.00  0.00    -0.005 C 
HETATM   26  C1  UNL     1      27.575   4.803  48.673  1.00  0.00     0.005 C 
ENDBRANCH  24  25
ENDBRANCH  23  24
ENDBRANCH  22  23
ENDBRANCH  20  22
ENDBRANCH  19  20
ENDBRANCH   1  19
TORSDOF 8
ENDMDL
MODEL 3
REMARK VINA RESULT:      -7.0      2.633      5.783
REMARK  8 active torsions:
REMARK  status: ('A' for Active; 'I' for Inactive)
REMARK    1  A    between atoms: C2_2  and  C3_3 
REMARK    2  A    between atoms: C3_3  and  C4_4 
REMARK    3  A    between atoms: C4_4  and  C5_5 
REMARK    4  A    between atoms: C5_5  and  N1_6 
REMARK    5  A    between atoms: N1_6  and  C6_7 
REMARK    6  A    between atoms: C6_7  and  C7_8 
REMARK    7  A    between atoms: C11_15  and  N5_16 
REMARK    8  A    between atoms: N5_16  and  C12_17 
ROOT
HETATM    1  C7  UNL     1      26.140   3.503  50.399  1.00  0.00     0.004 A 
HETATM    2  C8  UNL     1      26.857   4.088  49.354  1.00  0.00     0.030 A 
HETATM    3  C9  UNL     1      26.269   5.273  48.975  1.00  0.00     0.119 A 
HETATM    4  N2  UNL     1      25.212   5.390  49.790  1.00  0.00    -0.240 N 
HETATM    5  N3  UNL     1      24.325   6.384  49.807  1.00  0.00    -0.161 NA
HETATM    6  C10 UNL     1      23.301   6.400  50.667  1.00  0.00     0.258 A 
HETATM    7  N4  UNL     1      23.165   5.391  51.532  1.00  0.00    -0.220 NA
HETATM    8  C11 UNL     1      24.045   4.383  51.530  1.00  0.00     0.159 A 
HETATM    9  C18 UNL     1      25.097   4.363  50.650  1.00  0.00     0.112 A 
ENDROOT
BRANCH   8  10
HETATM   10  N5  UNL     1      23.867   3.332  52.464  1.00  0.00    -0.339 N 
HETATM   11  H18 UNL     1      24.231   3.170  53.420  1.00  0.00     0.167 HD
BRANCH  10  12
HETATM   12  C12 UNL     1      23.065   2.190  52.207  1.00  0.00     0.035 A 
HETATM   13  C13 UNL     1      22.469   1.951  50.987  1.00  0.00     0.029 A 
HETATM   14  C14 UNL     1      21.665   0.870  50.703  1.00  0.00     0.004 A 
HETATM   15  C15 UNL     1      21.408  -0.070  51.679  1.00  0.00     0.019 A 
HETATM   16  C16 UNL     1      21.962   0.087  52.930  1.00  0.00     0.013 A 
HETATM   17 BR1  UNL     1      21.657  -1.162  54.326  1.00  0.00    -0.051 Br
HETATM   18  C17 UNL     1      22.752   1.191  53.134  1.00  0.00     0.048 A 
ENDBRANCH  10  12
ENDBRANCH   8  10
BRANCH   1  19
HETATM   19  C6  UNL     1      26.451   2.223  51.079  1.00  0.00     0.310 C 
BRANCH  19  20
HETATM   20  N1  UNL     1      27.290   2.532  52.237  1.00  0.00     0.087 N 
HETATM   21  H12 UNL     1      27.075   3.497  52.566  1.00  0.00     0.316 HD
BRANCH  20  22
HETATM   22  C5  UNL     1      26.892   1.612  53.275  1.00  0.00     0.270 C 
BRANCH  22  23
HETATM   23  C4  UNL     1      26.433   0.290  52.745  1.00  0.00     0.030 C 
BRANCH  23  24
HETATM   24  C3  UNL     1      27.493  -0.776  52.797  1.00  0.00     0.001 C 
BRANCH  24  25
HETATM   25  C2  UNL     1      28.474  -0.414  53.916  1.00  0.00    -0.005 C 
HETATM   26  C1  UNL     1      29.868  -0.860  53.580  1.00  0.00     0.005 C 
ENDBRANCH  24  25
ENDBRANCH  23  24
ENDBRANCH  22  23
ENDBRANCH  20  22
ENDBRANCH  19  20
ENDBRANCH   1  19
TORSDOF 8
ENDMDL
MODEL 4
REMARK VINA RESULT:      -6.9      2.027      2.639
REMARK  8 active torsions:
REMARK  status: ('A' for Active; 'I' for Inactive)
REMARK    1  A    between atoms: C2_2  and  C3_3 
REMARK    2  A    between atoms: C3_3  and  C4_4 
REMARK    3  A    between atoms: C4_4  and  C5_5 
REMARK    4  A    between atoms: C5_5  and  N1_6 
REMARK    5  A    between atoms: N1_6  and  C6_7 
REMARK    6  A    between atoms: C6_7  and  C7_8 
REMARK    7  A    between atoms: C11_15  and  N5_16 
REMARK    8  A    between atoms: N5_16  and  C12_17 
ROOT
HETATM    1  C7  UNL     1      25.042   0.431  53.314  1.00  0.00     0.004 A 
HETATM    2  C8  UNL     1      25.170  -0.226  54.539  1.00  0.00     0.030 A 
HETATM    3  C9  UNL     1      26.385   0.068  55.115  1.00  0.00     0.119 A 
HETATM    4  N2  UNL     1      26.972   0.892  54.239  1.00  0.00    -0.240 N 
HETATM    5  N3  UNL     1      28.176   1.452  54.355  1.00  0.00    -0.161 NA
HETATM    6  C10 UNL     1      28.670   2.264  53.413  1.00  0.00     0.258 A 
HETATM    7  N4  UNL     1      27.934   2.521  52.328  1.00  0.00    -0.220 NA
HETATM    8  C11 UNL     1      26.723   1.968  52.194  1.00  0.00     0.159 A 
HETATM    9  C18 UNL     1      26.213   1.135  53.157  1.00  0.00     0.112 A 
ENDROOT
BRANCH   8  10
HETATM   10  N5  UNL     1      25.973   2.266  51.028  1.00  0.00    -0.339 N 
HETATM   11  H18 UNL     1      25.331   1.706  50.441  1.00  0.00     0.167 HD
BRANCH  10  12
HETATM   12  C12 UNL     1      25.987   3.538  50.399  1.00  0.00     0.035 A 
HETATM   13  C13 UNL     1      26.877   3.871  49.400  1.00  0.00     0.029 A 
HETATM   14  C14 UNL     1      26.940   5.099  48.780  1.00  0.00     0.004 A 
HETATM   15  C15 UNL     1      26.069   6.101  49.151  1.00  0.00     0.019 A 
HETATM   16  C16 UNL     1      25.143   5.858  50.141  1.00  0.00     0.013 A 
HETATM   17 BR1  UNL     1      23.909   7.184  50.708  1.00  0.00    -0.051 Br
HETATM   18  C17 UNL     1      25.144   4.609  50.711  1.00  0.00     0.048 A 
ENDBRANCH  10  12
ENDBRANCH   8  10
BRANCH   1  19
HETATM   19  C6  UNL     1      23.884   0.367  52.390  1.00  0.00     0.310 C 
BRANCH  19  20
HETATM   20  N1  UNL     1      22.931   1.394  52.810  1.00  0.00     0.087 N 
HETATM   21  H12 UNL     1      23.341   2.334  52.630  1.00  0.00     0.316 HD
BRANCH  20  22
HETATM   22  C5  UNL     1      21.779   1.241  51.954  1.00  0.00     0.270 C 
BRANCH  22  23
HETATM   23  C4  UNL     1      20.507   1.024  52.711  1.00  0.00     0.030 C 
BRANCH  23  24
HETATM   24  C3  UNL     1      20.720   0.451  54.085  1.00  0.00     0.001 C 
BRANCH  24  25
HETATM   25  C2  UNL     1      20.596  -1.073  53.987  1.00  0.00    -0.005 C 
HETATM   26  C1  UNL     1      21.796  -1.754  54.578  1.00  0.00     0.005 C 
ENDBRANCH  24  25
ENDBRANCH  23  24
ENDBRANCH  22  23
ENDBRANCH  20  22
ENDBRANCH  19  20
ENDBRANCH   1  19
TORSDOF 8
ENDMDL
MODEL 5
REMARK VINA RESULT:      -6.9      1.983      3.343
REMARK  8 active torsions:
REMARK  status: ('A' for Active; 'I' for Inactive)
REMARK    1  A    between atoms: C2_2  and  C3_3 
REMARK    2  A    between atoms: C3_3  and  C4_4 
REMARK    3  A    between atoms: C4_4  and  C5_5 
REMARK    4  A    between atoms: C5_5  and  N1_6 
REMARK    5  A    between atoms: N1_6  and  C6_7 
REMARK    6  A    between atoms: C6_7  and  C7_8 
REMARK    7  A    between atoms: C11_15  and  N5_16 
REMARK    8  A    between atoms: N5_16  and  C12_17 
ROOT
HETATM    1  C7  UNL     1      22.948  -0.710  53.821  1.00  0.00     0.004 A 
HETATM    2  C8  UNL     1      22.684  -1.429  54.988  1.00  0.00     0.030 A 
HETATM    3  C9  UNL     1      23.807  -1.479  55.783  1.00  0.00     0.119 A 
HETATM    4  N2  UNL     1      24.729  -0.794  55.092  1.00  0.00    -0.240 N 
HETATM    5  N3  UNL     1      25.990  -0.565  55.457  1.00  0.00    -0.161 NA
HETATM    6  C10 UNL     1      26.830   0.134  54.686  1.00  0.00     0.258 A 
HETATM    7  N4  UNL     1      26.391   0.616  53.520  1.00  0.00    -0.220 NA
HETATM    8  C11 UNL     1      25.128   0.396  53.137  1.00  0.00     0.159 A 
HETATM    9  C18 UNL     1      24.263  -0.321  53.924  1.00  0.00     0.112 A 
ENDROOT
BRANCH   8  10
HETATM   10  N5  UNL     1      24.701   0.925  51.893  1.00  0.00    -0.339 N 
HETATM   11  H18 UNL     1      24.487   0.490  50.978  1.00  0.00     0.167 HD
BRANCH  10  12
HETATM   12  C12 UNL     1      24.472   2.308  51.673  1.00  0.00     0.035 A 
HETATM   13  C13 UNL     1      23.531   3.033  52.372  1.00  0.00     0.029 A 
HETATM   14  C14 UNL     1      23.260   4.369  52.173  1.00  0.00     0.004 A 
HETATM   15  C15 UNL     1      23.958   5.075  51.217  1.00  0.00     0.019 A 
HETATM   16  C16 UNL     1      24.919   4.432  50.469  1.00  0.00     0.013 A 
HETATM   17 BR1  UNL     1      25.921   5.334  49.134  1.00  0.00    -0.051 Br
HETATM   18  C17 UNL     1      25.129   3.100  50.726  1.00  0.00     0.048 A 
ENDBRANCH  10  12
ENDBRANCH   8  10
BRANCH   1  19
HETATM   19  C6  UNL     1      22.000  -0.437  52.715  1.00  0.00     0.310 C 
BRANCH  19  20
HETATM   20  N1  UNL     1      21.033   0.549  53.198  1.00  0.00     0.087 N 
HETATM   21  H12 UNL     1      21.546   1.388  53.543  1.00  0.00     0.316 HD
BRANCH  20  22
HETATM   22  C5  UNL     1      20.260   0.947  52.046  1.00  0.00     0.270 C 
BRANCH  22  23
HETATM   23  C4  UNL     1      20.951   0.667  50.748  1.00  0.00     0.030 C 
BRANCH  23  24
HETATM   24  C3  UNL     1      21.075   1.877  49.863  1.00  0.00     0.001 C 
BRANCH  24  25
HETATM   25  C2  UNL     1      21.740   1.441  48.555  1.00  0.00    -0.005 C 
HETATM   26  C1  UNL     1      22.653   2.510  48.027  1.00  0.00     0.005 C 
ENDBRANCH  24  25
ENDBRANCH  23  24
ENDBRANCH  22  23
ENDBRANCH  20  22
ENDBRANCH  19  20
ENDBRANCH   1  19
TORSDOF 8
ENDMDL
MODEL 6
REMARK VINA RESULT:      -6.7      1.974      5.497
REMARK  8 active torsions:
REMARK  status: ('A' for Active; 'I' for Inactive)
REMARK    1  A    between atoms: C2_2  and  C3_3 
REMARK    2  A    between atoms: C3_3  and  C4_4 
REMARK    3  A    between atoms: C4_4  and  C5_5 
REMARK    4  A    between atoms: C5_5  and  N1_6 
REMARK    5  A    between atoms: N1_6  and  C6_7 
REMARK    6  A    between atoms: C6_7  and  C7_8 
REMARK    7  A    between atoms: C11_15  and  N5_16 
REMARK    8  A    between atoms: N5_16  and  C12_17 
ROOT
HETATM    1  C7  UNL     1      24.539  -0.288  53.850  1.00  0.00     0.004 A 
HETATM    2  C8  UNL     1      24.774  -0.937  55.063  1.00  0.00     0.030 A 
HETATM    3  C9  UNL     1      23.590  -1.385  55.603  1.00  0.00     0.119 A 
HETATM    4  N2  UNL     1      22.661  -1.006  54.716  1.00  0.00    -0.240 N 
HETATM    5  N3  UNL     1      21.348  -1.216  54.799  1.00  0.00    -0.161 NA
HETATM    6  C10 UNL     1      20.505  -0.790  53.852  1.00  0.00     0.258 A 
HETATM    7  N4  UNL     1      20.994  -0.138  52.794  1.00  0.00    -0.220 NA
HETATM    8  C11 UNL     1      22.310   0.082  52.693  1.00  0.00     0.159 A 
HETATM    9  C18 UNL     1      23.178  -0.352  53.662  1.00  0.00     0.112 A 
ENDROOT
BRANCH   8  10
HETATM   10  N5  UNL     1      22.790   0.776  51.554  1.00  0.00    -0.339 N 
HETATM   11  H18 UNL     1      23.027   0.474  50.592  1.00  0.00     0.167 HD
BRANCH  10  12
HETATM   12  C12 UNL     1      23.061   2.170  51.548  1.00  0.00     0.035 A 
HETATM   13  C13 UNL     1      22.344   3.076  52.300  1.00  0.00     0.029 A 
HETATM   14  C14 UNL     1      22.557   4.436  52.305  1.00  0.00     0.004 A 
HETATM   15  C15 UNL     1      23.551   4.979  51.518  1.00  0.00     0.019 A 
HETATM   16  C16 UNL     1      24.319   4.148  50.733  1.00  0.00     0.013 A 
HETATM   17 BR1  UNL     1      25.705   4.816  49.623  1.00  0.00    -0.051 Br
HETATM   18  C17 UNL     1      24.044   2.804  50.783  1.00  0.00     0.048 A 
ENDBRANCH  10  12
ENDBRANCH   8  10
BRANCH   1  19
HETATM   19  C6  UNL     1      25.554   0.336  52.967  1.00  0.00     0.310 C 
BRANCH  19  20
HETATM   20  N1  UNL     1      25.982   1.582  53.601  1.00  0.00     0.087 N 
HETATM   21  H12 UNL     1      25.948   1.467  54.636  1.00  0.00     0.316 HD
BRANCH  20  22
HETATM   22  C5  UNL     1      27.362   1.768  53.222  1.00  0.00     0.270 C 
BRANCH  22  23
HETATM   23  C4  UNL     1      28.104   0.480  53.049  1.00  0.00     0.030 C 
BRANCH  23  24
HETATM   24  C3  UNL     1      29.094   0.207  54.147  1.00  0.00     0.001 C 
BRANCH  24  25
HETATM   25  C2  UNL     1      29.988  -0.954  53.701  1.00  0.00    -0.005 C 
HETATM   26  C1  UNL     1      29.168  -2.122  53.234  1.00  0.00     0.005 C 
ENDBRANCH  24  25
ENDBRANCH  23  24
ENDBRANCH  22  23
ENDBRANCH  20  22
ENDBRANCH  19  20
ENDBRANCH   1  19
TORSDOF 8
ENDMDL
MODEL 7
REMARK VINA RESULT:      -6.7      2.386      5.425
REMARK  8 active torsions:
REMARK  status: ('A' for Active; 'I' for Inactive)
REMARK    1  A    between atoms: C2_2  and  C3_3 
REMARK    2  A    between atoms: C3_3  and  C4_4 
REMARK    3  A    between atoms: C4_4  and  C5_5 
REMARK    4  A    between atoms: C5_5  and  N1_6 
REMARK    5  A    between atoms: N1_6  and  C6_7 
REMARK    6  A    between atoms: C6_7  and  C7_8 
REMARK    7  A    between atoms: C11_15  and  N5_16 
REMARK    8  A    between atoms: N5_16  and  C12_17 
ROOT
HETATM    1  C7  UNL     1      23.420   0.630  53.015  1.00  0.00     0.004 A 
HETATM    2  C8  UNL     1      22.508  -0.417  53.154  1.00  0.00     0.030 A 
HETATM    3  C9  UNL     1      21.226   0.032  52.928  1.00  0.00     0.119 A 
HETATM    4  N2  UNL     1      21.378   1.335  52.656  1.00  0.00    -0.240 N 
HETATM    5  N3  UNL     1      20.412   2.206  52.369  1.00  0.00    -0.161 NA
HETATM    6  C10 UNL     1      20.677   3.492  52.114  1.00  0.00     0.258 A 
HETATM    7  N4  UNL     1      21.944   3.912  52.147  1.00  0.00    -0.220 NA
HETATM    8  C11 UNL     1      22.928   3.052  52.434  1.00  0.00     0.159 A 
HETATM    9  C18 UNL     1      22.662   1.732  52.697  1.00  0.00     0.112 A 
ENDROOT
BRANCH   8  10
HETATM   10  N5  UNL     1      24.260   3.537  52.459  1.00  0.00    -0.339 N 
HETATM   11  H18 UNL     1      24.921   3.742  53.229  1.00  0.00     0.167 HD
BRANCH  10  12
HETATM   12  C12 UNL     1      24.992   3.862  51.287  1.00  0.00     0.035 A 
HETATM   13  C13 UNL     1      25.965   3.041  50.759  1.00  0.00     0.029 A 
HETATM   14  C14 UNL     1      26.714   3.329  49.640  1.00  0.00     0.004 A 
HETATM   15  C15 UNL     1      26.511   4.514  48.964  1.00  0.00     0.019 A 
HETATM   16  C16 UNL     1      25.558   5.397  49.420  1.00  0.00     0.013 A 
HETATM   17 BR1  UNL     1      25.219   7.047  48.547  1.00  0.00    -0.051 Br
HETATM   18  C17 UNL     1      24.853   5.037  50.542  1.00  0.00     0.048 A 
ENDBRANCH  10  12
ENDBRANCH   8  10
BRANCH   1  19
HETATM   19  C6  UNL     1      24.891   0.552  53.181  1.00  0.00     0.310 C 
BRANCH  19  20
HETATM   20  N1  UNL     1      25.211  -0.802  53.632  1.00  0.00     0.087 N 
HETATM   21  H12 UNL     1      24.466  -1.454  53.310  1.00  0.00     0.316 HD
BRANCH  20  22
HETATM   22  C5  UNL     1      26.437  -1.165  52.963  1.00  0.00     0.270 C 
BRANCH  22  23
HETATM   23  C4  UNL     1      27.397  -0.024  52.834  1.00  0.00     0.030 C 
BRANCH  23  24
HETATM   24  C3  UNL     1      28.659  -0.212  53.630  1.00  0.00     0.001 C 
BRANCH  24  25
HETATM   25  C2  UNL     1      29.248   1.172  53.918  1.00  0.00    -0.005 C 
HETATM   26  C1  UNL     1      28.297   2.262  53.515  1.00  0.00     0.005 C 
ENDBRANCH  24  25
ENDBRANCH  23  24
ENDBRANCH  22  23
ENDBRANCH  20  22
ENDBRANCH  19  20
ENDBRANCH   1  19
TORSDOF 8
ENDMDL
MODEL 8
REMARK VINA RESULT:      -6.7      2.453      5.128
REMARK  8 active torsions:
REMARK  status: ('A' for Active; 'I' for Inactive)
REMARK    1  A    between atoms: C2_2  and  C3_3 
REMARK    2  A    between atoms: C3_3  and  C4_4 
REMARK    3  A    between atoms: C4_4  and  C5_5 
REMARK    4  A    between atoms: C5_5  and  N1_6 
REMARK    5  A    between atoms: N1_6  and  C6_7 
REMARK    6  A    between atoms: C6_7  and  C7_8 
REMARK    7  A    between atoms: C11_15  and  N5_16 
REMARK    8  A    between atoms: N5_16  and  C12_17 
ROOT
HETATM    1  C7  UNL     1      26.875   1.459  52.342  1.00  0.00     0.004 A 
HETATM    2  C8  UNL     1      28.078   1.518  53.048  1.00  0.00     0.030 A 
HETATM    3  C9  UNL     1      27.976   0.811  54.225  1.00  0.00     0.119 A 
HETATM    4  N2  UNL     1      26.723   0.338  54.217  1.00  0.00    -0.240 N 
HETATM    5  N3  UNL     1      26.149  -0.413  55.156  1.00  0.00    -0.161 NA
HETATM    6  C10 UNL     1      24.883  -0.832  55.046  1.00  0.00     0.258 A 
HETATM    7  N4  UNL     1      24.178  -0.488  53.966  1.00  0.00    -0.220 NA
HETATM    8  C11 UNL     1      24.737   0.266  53.012  1.00  0.00     0.159 A 
HETATM    9  C18 UNL     1      26.035   0.698  53.120  1.00  0.00     0.112 A 
ENDROOT
BRANCH   8  10
HETATM   10  N5  UNL     1      23.956   0.608  51.880  1.00  0.00    -0.339 N 
HETATM   11  H18 UNL     1      24.113   0.515  50.861  1.00  0.00     0.167 HD
BRANCH  10  12
HETATM   12  C12 UNL     1      22.674   1.212  51.972  1.00  0.00     0.035 A 
HETATM   13  C13 UNL     1      22.496   2.555  52.229  1.00  0.00     0.029 A 
HETATM   14  C14 UNL     1      21.272   3.176  52.351  1.00  0.00     0.004 A 
HETATM   15  C15 UNL     1      20.113   2.442  52.212  1.00  0.00     0.019 A 
HETATM   16  C16 UNL     1      20.195   1.092  51.953  1.00  0.00     0.013 A 
HETATM   17 BR1  UNL     1      18.647   0.014  51.749  1.00  0.00    -0.051 Br
HETATM   18  C17 UNL     1      21.451   0.547  51.847  1.00  0.00     0.048 A 
ENDBRANCH  10  12
ENDBRANCH   8  10
BRANCH   1  19
HETATM   19  C6  UNL     1      26.583   2.094  51.035  1.00  0.00     0.310 C 
BRANCH  19  20
HETATM   20  N1  UNL     1      26.310   3.509  51.284  1.00  0.00     0.087 N 
HETATM   21  H12 UNL     1      27.200   4.046  51.209  1.00  0.00     0.316 HD
BRANCH  20  22
HETATM   22  C5  UNL     1      25.441   3.941  50.216  1.00  0.00     0.270 C 
BRANCH  22  23
HETATM   23  C4  UNL     1      26.044   5.013  49.363  1.00  0.00     0.030 C 
BRANCH  23  24
HETATM   24  C3  UNL     1      27.382   4.638  48.788  1.00  0.00     0.001 C 
BRANCH  24  25
HETATM   25  C2  UNL     1      28.083   5.924  48.342  1.00  0.00    -0.005 C 
HETATM   26  C1  UNL     1      29.539   5.681  48.066  1.00  0.00     0.005 C 
ENDBRANCH  24  25
ENDBRANCH  23  24
ENDBRANCH  22  23
ENDBRANCH  20  22
ENDBRANCH  19  20
ENDBRANCH   1  19
TORSDOF 8
ENDMDL
MODEL 9
REMARK VINA RESULT:      -6.6      1.960      4.127
REMARK  8 active torsions:
REMARK  status: ('A' for Active; 'I' for Inactive)
REMARK    1  A    between atoms: C2_2  and  C3_3 
REMARK    2  A    between atoms: C3_3  and  C4_4 
REMARK    3  A    between atoms: C4_4  and  C5_5 
REMARK    4  A    between atoms: C5_5  and  N1_6 
REMARK    5  A    between atoms: N1_6  and  C6_7 
REMARK    6  A    between atoms: C6_7  and  C7_8 
REMARK    7  A    between atoms: C11_15  and  N5_16 
REMARK    8  A    between atoms: N5_16  and  C12_17 
ROOT
HETATM    1  C7  UNL     1      26.882   1.611  52.295  1.00  0.00     0.004 A 
HETATM    2  C8  UNL     1      28.075   1.667  53.018  1.00  0.00     0.030 A 
HETATM    3  C9  UNL     1      27.972   0.919  54.169  1.00  0.00     0.119 A 
HETATM    4  N2  UNL     1      26.728   0.423  54.128  1.00  0.00    -0.240 N 
HETATM    5  N3  UNL     1      26.156  -0.370  55.033  1.00  0.00    -0.161 NA
HETATM    6  C10 UNL     1      24.900  -0.808  54.893  1.00  0.00     0.258 A 
HETATM    7  N4  UNL     1      24.202  -0.440  53.816  1.00  0.00    -0.220 NA
HETATM    8  C11 UNL     1      24.759   0.357  52.896  1.00  0.00     0.159 A 
HETATM    9  C18 UNL     1      26.046   0.808  53.035  1.00  0.00     0.112 A 
ENDROOT
BRANCH   8  10
HETATM   10  N5  UNL     1      23.985   0.724  51.767  1.00  0.00    -0.339 N 
HETATM   11  H18 UNL     1      24.145   0.645  50.747  1.00  0.00     0.167 HD
BRANCH  10  12
HETATM   12  C12 UNL     1      22.709   1.338  51.863  1.00  0.00     0.035 A 
HETATM   13  C13 UNL     1      22.536   2.651  52.246  1.00  0.00     0.029 A 
HETATM   14  C14 UNL     1      21.317   3.278  52.375  1.00  0.00     0.004 A 
HETATM   15  C15 UNL     1      20.156   2.582  52.114  1.00  0.00     0.019 A 
HETATM   16  C16 UNL     1      20.232   1.264  51.725  1.00  0.00     0.013 A 
HETATM   17 BR1  UNL     1      18.680   0.238  51.347  1.00  0.00    -0.051 Br
HETATM   18  C17 UNL     1      21.483   0.710  51.619  1.00  0.00     0.048 A 
ENDBRANCH  10  12
ENDBRANCH   8  10
BRANCH   1  19
HETATM   19  C6  UNL     1      26.594   2.285  51.006  1.00  0.00     0.310 C 
BRANCH  19  20
HETATM   20  N1  UNL     1      26.066   3.614  51.314  1.00  0.00     0.087 N 
HETATM   21  H12 UNL     1      26.824   4.194  51.731  1.00  0.00     0.316 HD
BRANCH  20  22
HETATM   22  C5  UNL     1      25.706   4.202  50.046  1.00  0.00     0.270 C 
BRANCH  22  23
HETATM   23  C4  UNL     1      24.563   3.505  49.378  1.00  0.00     0.030 C 
BRANCH  23  24
HETATM   24  C3  UNL     1      23.389   4.406  49.107  1.00  0.00     0.001 C 
BRANCH  24  25
HETATM   25  C2  UNL     1      22.484   3.710  48.085  1.00  0.00    -0.005 C 
HETATM   26  C1  UNL     1      22.491   2.221  48.279  1.00  0.00     0.005 C 
ENDBRANCH  24  25
ENDBRANCH  23  24
ENDBRANCH  22  23
ENDBRANCH  20  22
ENDBRANCH  19  20
ENDBRANCH   1  19
TORSDOF 8
ENDMDL
