MODEL 1
REMARK VINA RESULT:      -7.5      0.000      0.000
REMARK  3 active torsions:
REMARK  status: ('A' for Active; 'I' for Inactive)
REMARK    1  A    between atoms: C2_2  and  C3_4 
REMARK    2  A    between atoms: C3_4  and  C4_5 
REMARK    3  A    between atoms: C12_14  and  N1_15 
ROOT
HETATM    1  C4  UNL     1      25.343   1.686  51.503  1.00  0.00     0.028 C 
HETATM    2  C5  UNL     1      24.083   1.422  51.926  1.00  0.00     0.023 C 
HETATM    3  C6  UNL     1      24.337   0.095  52.442  1.00  0.00     0.016 C 
HETATM    4  C7  UNL     1      23.886  -0.734  53.351  1.00  0.00     0.024 C 
HETATM    5  C8  UNL     1      22.799  -0.613  54.321  1.00  0.00     0.034 C 
HETATM    6 CL2  UNL     1      23.058  -1.544  55.766  1.00  0.00    -0.084 Cl
HETATM    7  C9  UNL     1      21.650   0.090  54.274  1.00  0.00     0.023 C 
HETATM    8  C10 UNL     1      21.073   0.973  53.266  1.00  0.00     0.002 C 
HETATM    9  C11 UNL     1      21.689   1.773  52.387  1.00  0.00     0.038 C 
HETATM   10  C12 UNL     1      22.937   2.308  51.827  1.00  0.00     0.221 C 
HETATM   11  N2  UNL     1      23.180   3.519  52.540  1.00  0.00    -0.250 NA
HETATM   12  C13 UNL     1      23.423   4.627  51.963  1.00  0.00     0.159 C 
HETATM   13  S1  UNL     1      23.537   5.006  50.197  1.00  0.00    -0.113 SA
HETATM   14  C14 UNL     1      25.299   5.365  49.847  1.00  0.00     0.183 C 
HETATM   15  C15 UNL     1      26.059   4.099  50.228  1.00  0.00     0.231 C 
HETATM   16  O2  UNL     1      27.207   3.593  50.173  1.00  0.00    -0.272 OA
HETATM   17  N3  UNL     1      25.702   2.897  50.863  1.00  0.00    -0.329 N 
HETATM   18  H13 UNL     1      24.768   3.222  50.846  1.00  0.00     0.168 HD
ENDROOT
BRANCH   1  19
HETATM   19  C3  UNL     1      26.586   0.969  51.512  1.00  0.00     0.104 C 
BRANCH  19  20
HETATM   20  C2  UNL     1      27.381   1.576  52.685  1.00  0.00    -0.008 A 
HETATM   21  C1  UNL     1      27.447   0.989  53.915  1.00  0.00     0.148 A 
HETATM   22 CL1  UNL     1      28.373   2.630  53.639  1.00  0.00    -0.186 Cl
ENDBRANCH  19  20
ENDBRANCH   1  19
BRANCH  10  23
HETATM   23  N1  UNL     1      22.602   2.693  50.459  1.00  0.00    -0.096 NA
HETATM   24  O1  UNL     1      22.321   1.817  49.684  1.00  0.00    -0.063 OA
ENDBRANCH  10  23
TORSDOF 3
ENDMDL
MODEL 2
REMARK VINA RESULT:      -7.1      2.950      5.144
REMARK  3 active torsions:
REMARK  status: ('A' for Active; 'I' for Inactive)
REMARK    1  A    between atoms: C2_2  and  C3_4 
REMARK    2  A    between atoms: C3_4  and  C4_5 
REMARK    3  A    between atoms: C12_14  and  N1_15 
ROOT
HETATM    1  C4  UNL     1      24.116   1.145  53.075  1.00  0.00     0.028 C 
HETATM    2  C5  UNL     1      23.781   2.069  52.143  1.00  0.00     0.023 C 
HETATM    3  C6  UNL     1      25.061   2.740  52.083  1.00  0.00     0.016 C 
HETATM    4  C7  UNL     1      25.796   3.430  51.245  1.00  0.00     0.024 C 
HETATM    5  C8  UNL     1      25.565   3.841  49.862  1.00  0.00     0.034 C 
HETATM    6 CL2  UNL     1      27.030   4.017  48.941  1.00  0.00    -0.084 Cl
HETATM    7  C9  UNL     1      24.421   4.103  49.199  1.00  0.00     0.023 C 
HETATM    8  C10 UNL     1      23.019   4.074  49.602  1.00  0.00     0.002 C 
HETATM    9  C11 UNL     1      22.410   3.290  50.500  1.00  0.00     0.038 C 
HETATM   10  C12 UNL     1      22.491   2.210  51.491  1.00  0.00     0.221 C 
HETATM   11  N2  UNL     1      22.161   1.020  50.778  1.00  0.00    -0.250 NA
HETATM   12  C13 UNL     1      21.280   0.193  51.177  1.00  0.00     0.159 C 
HETATM   13  S1  UNL     1      20.243   0.240  52.659  1.00  0.00    -0.113 SA
HETATM   14  C14 UNL     1      20.834  -1.100  53.760  1.00  0.00     0.183 C 
HETATM   15  C15 UNL     1      22.295  -0.776  54.054  1.00  0.00     0.231 C 
HETATM   16  O2  UNL     1      23.257  -1.155  54.764  1.00  0.00    -0.272 OA
HETATM   17  N3  UNL     1      23.201   0.181  53.566  1.00  0.00    -0.329 N 
HETATM   18  H13 UNL     1      22.446   0.567  53.056  1.00  0.00     0.168 HD
ENDROOT
BRANCH   1  19
HETATM   19  C3  UNL     1      25.304   0.840  53.819  1.00  0.00     0.104 C 
BRANCH  19  20
HETATM   20  C2  UNL     1      25.959  -0.326  53.052  1.00  0.00    -0.008 A 
HETATM   21  C1  UNL     1      26.794  -0.136  51.989  1.00  0.00     0.148 A 
HETATM   22 CL1  UNL     1      26.418  -1.919  52.544  1.00  0.00    -0.186 Cl
ENDBRANCH  19  20
ENDBRANCH   1  19
BRANCH  10  23
HETATM   23  N1  UNL     1      21.386   2.459  52.412  1.00  0.00    -0.096 NA
HETATM   24  O1  UNL     1      20.993   3.591  52.521  1.00  0.00    -0.063 OA
ENDBRANCH  10  23
TORSDOF 3
ENDMDL
MODEL 3
REMARK VINA RESULT:      -7.0      2.109      4.737
REMARK  3 active torsions:
REMARK  status: ('A' for Active; 'I' for Inactive)
REMARK    1  A    between atoms: C2_2  and  C3_4 
REMARK    2  A    between atoms: C3_4  and  C4_5 
REMARK    3  A    between atoms: C12_14  and  N1_15 
ROOT
HETATM    1  C4  UNL     1      23.326   0.498  52.280  1.00  0.00     0.028 C 
HETATM    2  C5  UNL     1      24.551   1.015  52.541  1.00  0.00     0.023 C 
HETATM    3  C6  UNL     1      25.057  -0.097  53.316  1.00  0.00     0.016 C 
HETATM    4  C7  UNL     1      26.192  -0.676  53.622  1.00  0.00     0.024 C 
HETATM    5  C8  UNL     1      27.570  -0.370  53.243  1.00  0.00     0.034 C 
HETATM    6 CL2  UNL     1      28.602  -1.769  53.204  1.00  0.00    -0.084 Cl
HETATM    7  C9  UNL     1      28.159   0.802  52.928  1.00  0.00     0.023 C 
HETATM    8  C10 UNL     1      27.655   2.169  52.846  1.00  0.00     0.002 C 
HETATM    9  C11 UNL     1      26.433   2.604  52.514  1.00  0.00     0.038 C 
HETATM   10  C12 UNL     1      25.056   2.303  52.102  1.00  0.00     0.221 C 
HETATM   11  N2  UNL     1      25.066   2.376  50.678  1.00  0.00    -0.250 NA
HETATM   12  C13 UNL     1      24.230   3.066  50.012  1.00  0.00     0.159 C 
HETATM   13  S1  UNL     1      22.861   4.096  50.596  1.00  0.00    -0.113 SA
HETATM   14  C14 UNL     1      21.314   3.243  50.112  1.00  0.00     0.183 C 
HETATM   15  C15 UNL     1      21.362   1.883  50.800  1.00  0.00     0.231 C 
HETATM   16  O2  UNL     1      20.657   0.865  51.005  1.00  0.00    -0.272 OA
HETATM   17  N3  UNL     1      22.341   1.194  51.537  1.00  0.00    -0.329 N 
HETATM   18  H13 UNL     1      22.896   2.011  51.474  1.00  0.00     0.168 HD
ENDROOT
BRANCH   1  19
HETATM   19  C3  UNL     1      22.651  -0.724  52.606  1.00  0.00     0.104 C 
BRANCH  19  20
HETATM   20  C2  UNL     1      21.745  -0.366  53.800  1.00  0.00    -0.008 A 
HETATM   21  C1  UNL     1      21.638  -1.152  54.910  1.00  0.00     0.148 A 
HETATM   22 CL1  UNL     1      20.618   0.454  54.832  1.00  0.00    -0.186 Cl
ENDBRANCH  19  20
ENDBRANCH   1  19
BRANCH  10  23
HETATM   23  N1  UNL     1      24.267   3.440  52.568  1.00  0.00    -0.096 NA
HETATM   24  O1  UNL     1      24.300   3.700  53.742  1.00  0.00    -0.063 OA
ENDBRANCH  10  23
TORSDOF 3
ENDMDL
MODEL 4
REMARK VINA RESULT:      -6.9      2.264      2.890
REMARK  3 active torsions:
REMARK  status: ('A' for Active; 'I' for Inactive)
REMARK    1  A    between atoms: C2_2  and  C3_4 
REMARK    2  A    between atoms: C3_4  and  C4_5 
REMARK    3  A    between atoms: C12_14  and  N1_15 
ROOT
HETATM    1  C4  UNL     1      23.214   2.990  52.080  1.00  0.00     0.028 C 
HETATM    2  C5  UNL     1      22.452   1.876  52.193  1.00  0.00     0.023 C 
HETATM    3  C6  UNL     1      23.462   1.023  52.781  1.00  0.00     0.016 C 
HETATM    4  C7  UNL     1      23.563  -0.018  53.571  1.00  0.00     0.024 C 
HETATM    5  C8  UNL     1      22.550  -0.825  54.248  1.00  0.00     0.034 C 
HETATM    6 CL2  UNL     1      23.114  -1.536  55.732  1.00  0.00    -0.084 Cl
HETATM    7  C9  UNL     1      21.274  -1.101  53.913  1.00  0.00     0.023 C 
HETATM    8  C10 UNL     1      20.445  -0.710  52.778  1.00  0.00     0.002 C 
HETATM    9  C11 UNL     1      20.471   0.418  52.057  1.00  0.00     0.038 C 
HETATM   10  C12 UNL     1      21.060   1.739  51.804  1.00  0.00     0.221 C 
HETATM   11  N2  UNL     1      20.246   2.658  52.530  1.00  0.00    -0.250 NA
HETATM   12  C13 UNL     1      19.745   3.704  52.006  1.00  0.00     0.159 C 
HETATM   13  S1  UNL     1      19.885   4.326  50.313  1.00  0.00    -0.113 SA
HETATM   14  C14 UNL     1      20.911   5.841  50.390  1.00  0.00     0.183 C 
HETATM   15  C15 UNL     1      22.252   5.399  50.967  1.00  0.00     0.231 C 
HETATM   16  O2  UNL     1      23.407   5.831  51.200  1.00  0.00    -0.272 OA
HETATM   17  N3  UNL     1      22.731   4.199  51.522  1.00  0.00    -0.329 N 
HETATM   18  H13 UNL     1      21.862   3.794  51.274  1.00  0.00     0.168 HD
ENDROOT
BRANCH   1  19
HETATM   19  C3  UNL     1      24.571   3.328  52.402  1.00  0.00     0.104 C 
BRANCH  19  20
HETATM   20  C2  UNL     1      25.336   3.190  51.071  1.00  0.00    -0.008 A 
HETATM   21  C1  UNL     1      26.451   2.415  50.936  1.00  0.00     0.148 A 
HETATM   22 CL1  UNL     1      25.817   3.371  49.415  1.00  0.00    -0.186 Cl
ENDBRANCH  19  20
ENDBRANCH   1  19
BRANCH  10  23
HETATM   23  N1  UNL     1      20.812   1.997  50.388  1.00  0.00    -0.096 NA
HETATM   24  O1  UNL     1      21.161   1.159  49.598  1.00  0.00    -0.063 OA
ENDBRANCH  10  23
TORSDOF 3
ENDMDL
MODEL 5
REMARK VINA RESULT:      -6.7      6.933      8.764
REMARK  3 active torsions:
REMARK  status: ('A' for Active; 'I' for Inactive)
REMARK    1  A    between atoms: C2_2  and  C3_4 
REMARK    2  A    between atoms: C3_4  and  C4_5 
REMARK    3  A    between atoms: C12_14  and  N1_15 
ROOT
HETATM    1  C4  UNL     1      30.539   6.603  48.118  1.00  0.00     0.028 C 
HETATM    2  C5  UNL     1      29.217   6.793  47.891  1.00  0.00     0.023 C 
HETATM    3  C6  UNL     1      28.785   5.446  48.192  1.00  0.00     0.016 C 
HETATM    4  C7  UNL     1      27.730   4.803  48.632  1.00  0.00     0.024 C 
HETATM    5  C8  UNL     1      26.406   5.272  49.036  1.00  0.00     0.034 C 
HETATM    6 CL2  UNL     1      25.653   4.262  50.235  1.00  0.00    -0.084 Cl
HETATM    7  C9  UNL     1      25.689   6.341  48.635  1.00  0.00     0.023 C 
HETATM    8  C10 UNL     1      25.956   7.404  47.672  1.00  0.00     0.002 C 
HETATM    9  C11 UNL     1      27.123   7.960  47.325  1.00  0.00     0.038 C 
HETATM   10  C12 UNL     1      28.581   8.032  47.481  1.00  0.00     0.221 C 
HETATM   11  N2  UNL     1      28.806   9.053  48.452  1.00  0.00    -0.250 NA
HETATM   12  C13 UNL     1      29.613  10.019  48.269  1.00  0.00     0.159 C 
HETATM   13  S1  UNL     1      30.662  10.390  46.842  1.00  0.00    -0.113 SA
HETATM   14  C14 UNL     1      32.392  10.108  47.370  1.00  0.00     0.183 C 
HETATM   15  C15 UNL     1      32.461   8.642  47.785  1.00  0.00     0.231 C 
HETATM   16  O2  UNL     1      33.285   7.762  48.135  1.00  0.00    -0.272 OA
HETATM   17  N3  UNL     1      31.503   7.627  47.951  1.00  0.00    -0.329 N 
HETATM   18  H13 UNL     1      30.836   8.264  47.594  1.00  0.00     0.168 HD
ENDROOT
BRANCH   1  19
HETATM   19  C3  UNL     1      31.348   5.490  48.524  1.00  0.00     0.104 C 
BRANCH  19  20
HETATM   20  C2  UNL     1      31.931   4.929  47.212  1.00  0.00    -0.008 A 
HETATM   21  C1  UNL     1      31.925   3.598  46.910  1.00  0.00     0.148 A 
HETATM   22 CL1  UNL     1      32.692   4.812  45.658  1.00  0.00    -0.186 Cl
ENDBRANCH  19  20
ENDBRANCH   1  19
BRANCH  10  23
HETATM   23  N1  UNL     1      29.071   8.557  46.209  1.00  0.00    -0.096 NA
HETATM   24  O1  UNL     1      28.624   8.081  45.199  1.00  0.00    -0.063 OA
ENDBRANCH  10  23
TORSDOF 3
ENDMDL
MODEL 6
REMARK VINA RESULT:      -6.7      2.638      5.070
REMARK  3 active torsions:
REMARK  status: ('A' for Active; 'I' for Inactive)
REMARK    1  A    between atoms: C2_2  and  C3_4 
REMARK    2  A    between atoms: C3_4  and  C4_5 
REMARK    3  A    between atoms: C12_14  and  N1_15 
ROOT
HETATM    1  C4  UNL     1      21.873   2.348  52.522  1.00  0.00     0.028 C 
HETATM    2  C5  UNL     1      23.191   2.425  52.218  1.00  0.00     0.023 C 
HETATM    3  C6  UNL     1      23.651   1.413  53.143  1.00  0.00     0.016 C 
HETATM    4  C7  UNL     1      24.622   0.544  53.281  1.00  0.00     0.024 C 
HETATM    5  C8  UNL     1      25.771   0.230  52.434  1.00  0.00     0.034 C 
HETATM    6 CL2  UNL     1      26.303  -1.419  52.578  1.00  0.00    -0.084 Cl
HETATM    7  C9  UNL     1      26.472   0.999  51.577  1.00  0.00     0.023 C 
HETATM    8  C10 UNL     1      26.350   2.398  51.181  1.00  0.00     0.002 C 
HETATM    9  C11 UNL     1      25.255   3.163  51.094  1.00  0.00     0.038 C 
HETATM   10  C12 UNL     1      23.800   3.303  51.234  1.00  0.00     0.221 C 
HETATM   11  N2  UNL     1      23.270   3.040  49.936  1.00  0.00    -0.250 NA
HETATM   12  C13 UNL     1      22.451   3.818  49.351  1.00  0.00     0.159 C 
HETATM   13  S1  UNL     1      21.739   5.381  49.919  1.00  0.00    -0.113 SA
HETATM   14  C14 UNL     1      19.962   5.069  50.234  1.00  0.00     0.183 C 
HETATM   15  C15 UNL     1      19.920   3.981  51.302  1.00  0.00     0.231 C 
HETATM   16  O2  UNL     1      19.113   3.368  52.043  1.00  0.00    -0.272 OA
HETATM   17  N3  UNL     1      20.893   3.168  51.909  1.00  0.00    -0.329 N 
HETATM   18  H13 UNL     1      21.570   3.687  51.409  1.00  0.00     0.168 HD
ENDROOT
BRANCH   1  19
HETATM   19  C3  UNL     1      21.086   1.567  53.432  1.00  0.00     0.104 C 
BRANCH  19  20
HETATM   20  C2  UNL     1      20.199   0.687  52.529  1.00  0.00    -0.008 A 
HETATM   21  C1  UNL     1      19.532  -0.411  52.991  1.00  0.00     0.148 A 
HETATM   22 CL1  UNL     1      19.364   0.049  51.151  1.00  0.00    -0.186 Cl
ENDBRANCH  19  20
ENDBRANCH   1  19
BRANCH  10  23
HETATM   23  N1  UNL     1      23.580   4.723  51.490  1.00  0.00    -0.096 NA
HETATM   24  O1  UNL     1      23.595   5.094  52.635  1.00  0.00    -0.063 OA
ENDBRANCH  10  23
TORSDOF 3
ENDMDL
MODEL 7
REMARK VINA RESULT:      -6.6      3.100      5.142
REMARK  3 active torsions:
REMARK  status: ('A' for Active; 'I' for Inactive)
REMARK    1  A    between atoms: C2_2  and  C3_4 
REMARK    2  A    between atoms: C3_4  and  C4_5 
REMARK    3  A    between atoms: C12_14  and  N1_15 
ROOT
HETATM    1  C4  UNL     1      23.744   0.224  52.583  1.00  0.00     0.028 C 
HETATM    2  C5  UNL     1      23.734   1.333  51.805  1.00  0.00     0.023 C 
HETATM    3  C6  UNL     1      22.485   1.068  51.126  1.00  0.00     0.016 C 
HETATM    4  C7  UNL     1      21.499   1.710  50.548  1.00  0.00     0.024 C 
HETATM    5  C8  UNL     1      21.259   3.136  50.339  1.00  0.00     0.034 C 
HETATM    6 CL2  UNL     1      19.572   3.549  50.268  1.00  0.00    -0.084 Cl
HETATM    7  C9  UNL     1      22.121   4.163  50.194  1.00  0.00     0.023 C 
HETATM    8  C10 UNL     1      23.578   4.236  50.191  1.00  0.00     0.002 C 
HETATM    9  C11 UNL     1      24.466   3.483  50.852  1.00  0.00     0.038 C 
HETATM   10  C12 UNL     1      24.740   2.379  51.781  1.00  0.00     0.221 C 
HETATM   11  N2  UNL     1      24.857   2.989  53.065  1.00  0.00    -0.250 NA
HETATM   12  C13 UNL     1      25.842   2.785  53.843  1.00  0.00     0.159 C 
HETATM   13  S1  UNL     1      27.300   1.740  53.607  1.00  0.00    -0.113 SA
HETATM   14  C14 UNL     1      27.135   0.333  54.768  1.00  0.00     0.183 C 
HETATM   15  C15 UNL     1      25.838  -0.370  54.380  1.00  0.00     0.231 C 
HETATM   16  O2  UNL     1      25.168  -1.399  54.639  1.00  0.00    -0.272 OA
HETATM   17  N3  UNL     1      24.796  -0.073  53.485  1.00  0.00    -0.329 N 
HETATM   18  H13 UNL     1      25.334   0.701  53.188  1.00  0.00     0.168 HD
ENDROOT
BRANCH   1  19
HETATM   19  C3  UNL     1      22.869  -0.899  52.760  1.00  0.00     0.104 C 
BRANCH  19  20
HETATM   20  C2  UNL     1      21.885  -0.461  53.862  1.00  0.00    -0.008 A 
HETATM   21  C1  UNL     1      21.647  -1.206  54.980  1.00  0.00     0.148 A 
HETATM   22 CL1  UNL     1      20.718   0.443  54.772  1.00  0.00    -0.186 Cl
ENDBRANCH  19  20
ENDBRANCH   1  19
BRANCH  10  23
HETATM   23  N1  UNL     1      26.076   1.909  51.425  1.00  0.00    -0.096 NA
HETATM   24  O1  UNL     1      26.575   2.349  50.422  1.00  0.00    -0.063 OA
ENDBRANCH  10  23
TORSDOF 3
ENDMDL
MODEL 8
REMARK VINA RESULT:      -6.5      2.679      4.615
REMARK  3 active torsions:
REMARK  status: ('A' for Active; 'I' for Inactive)
REMARK    1  A    between atoms: C2_2  and  C3_4 
REMARK    2  A    between atoms: C3_4  and  C4_5 
REMARK    3  A    between atoms: C12_14  and  N1_15 
ROOT
HETATM    1  C4  UNL     1      23.472   4.329  49.781  1.00  0.00     0.028 C 
HETATM    2  C5  UNL     1      23.698   3.213  50.515  1.00  0.00     0.023 C 
HETATM    3  C6  UNL     1      25.128   3.146  50.311  1.00  0.00     0.016 C 
HETATM    4  C7  UNL     1      26.209   2.708  50.908  1.00  0.00     0.024 C 
HETATM    5  C8  UNL     1      26.403   2.021  52.184  1.00  0.00     0.034 C 
HETATM    6 CL2  UNL     1      27.952   2.335  52.908  1.00  0.00    -0.084 Cl
HETATM    7  C9  UNL     1      25.589   1.196  52.874  1.00  0.00     0.023 C 
HETATM    8  C10 UNL     1      24.245   0.694  52.616  1.00  0.00     0.002 C 
HETATM    9  C11 UNL     1      23.229   1.280  51.968  1.00  0.00     0.038 C 
HETATM   10  C12 UNL     1      22.703   2.437  51.234  1.00  0.00     0.221 C 
HETATM   11  N2  UNL     1      22.056   3.244  52.217  1.00  0.00    -0.250 NA
HETATM   12  C13 UNL     1      20.865   3.673  52.088  1.00  0.00     0.159 C 
HETATM   13  S1  UNL     1      19.693   3.431  50.732  1.00  0.00    -0.113 SA
HETATM   14  C14 UNL     1      19.504   5.052  49.901  1.00  0.00     0.183 C 
HETATM   15  C15 UNL     1      20.899   5.428  49.413  1.00  0.00     0.231 C 
HETATM   16  O2  UNL     1      21.493   6.288  48.718  1.00  0.00    -0.272 OA
HETATM   17  N3  UNL     1      22.180   4.880  49.596  1.00  0.00    -0.329 N 
HETATM   18  H13 UNL     1      21.741   4.135  50.076  1.00  0.00     0.168 HD
ENDROOT
BRANCH   1  19
HETATM   19  C3  UNL     1      24.293   5.223  49.017  1.00  0.00     0.104 C 
BRANCH  19  20
HETATM   20  C2  UNL     1      24.417   6.486  49.892  1.00  0.00    -0.008 A 
HETATM   21  C1  UNL     1      25.619   7.044  50.220  1.00  0.00     0.148 A 
HETATM   22 CL1  UNL     1      24.027   7.859  50.877  1.00  0.00    -0.186 Cl
ENDBRANCH  19  20
ENDBRANCH   1  19
BRANCH  10  23
HETATM   23  N1  UNL     1      21.646   1.895  50.384  1.00  0.00    -0.096 NA
HETATM   24  O1  UNL     1      21.957   1.076  49.560  1.00  0.00    -0.063 OA
ENDBRANCH  10  23
TORSDOF 3
ENDMDL
MODEL 9
REMARK VINA RESULT:      -6.4      2.456      5.299
REMARK  3 active torsions:
REMARK  status: ('A' for Active; 'I' for Inactive)
REMARK    1  A    between atoms: C2_2  and  C3_4 
REMARK    2  A    between atoms: C3_4  and  C4_5 
REMARK    3  A    between atoms: C12_14  and  N1_15 
ROOT
HETATM    1  C4  UNL     1      21.692   2.062  52.089  1.00  0.00     0.028 C 
HETATM    2  C5  UNL     1      22.759   2.550  51.411  1.00  0.00     0.023 C 
HETATM    3  C6  UNL     1      23.683   2.582  52.523  1.00  0.00     0.016 C 
HETATM    4  C7  UNL     1      24.969   2.507  52.765  1.00  0.00     0.024 C 
HETATM    5  C8  UNL     1      26.116   2.343  51.873  1.00  0.00     0.034 C 
HETATM    6 CL2  UNL     1      27.459   1.531  52.621  1.00  0.00    -0.084 Cl
HETATM    7  C9  UNL     1      26.296   2.714  50.590  1.00  0.00     0.023 C 
HETATM    8  C10 UNL     1      25.436   3.401  49.632  1.00  0.00     0.002 C 
HETATM    9  C11 UNL     1      24.102   3.377  49.519  1.00  0.00     0.038 C 
HETATM   10  C12 UNL     1      22.805   2.883  49.998  1.00  0.00     0.221 C 
HETATM   11  N2  UNL     1      22.524   1.732  49.205  1.00  0.00    -0.250 NA
HETATM   12  C13 UNL     1      21.422   1.564  48.592  1.00  0.00     0.159 C 
HETATM   13  S1  UNL     1      19.964   2.633  48.528  1.00  0.00    -0.113 SA
HETATM   14  C14 UNL     1      18.641   1.779  49.463  1.00  0.00     0.183 C 
HETATM   15  C15 UNL     1      19.183   1.608  50.878  1.00  0.00     0.231 C 
HETATM   16  O2  UNL     1      18.831   1.230  52.022  1.00  0.00    -0.272 OA
HETATM   17  N3  UNL     1      20.433   1.834  51.480  1.00  0.00    -0.329 N 
HETATM   18  H13 UNL     1      20.725   2.223  50.619  1.00  0.00     0.168 HD
ENDROOT
BRANCH   1  19
HETATM   19  C3  UNL     1      21.446   1.673  53.447  1.00  0.00     0.104 C 
BRANCH  19  20
HETATM   20  C2  UNL     1      21.847   0.186  53.509  1.00  0.00    -0.008 A 
HETATM   21  C1  UNL     1      21.693  -0.576  54.630  1.00  0.00     0.148 A 
HETATM   22 CL1  UNL     1      22.442  -1.384  53.077  1.00  0.00    -0.186 Cl
ENDBRANCH  19  20
ENDBRANCH   1  19
BRANCH  10  23
HETATM   23  N1  UNL     1      21.842   3.905  49.599  1.00  0.00    -0.096 NA
HETATM   24  O1  UNL     1      22.001   5.020  50.022  1.00  0.00    -0.063 OA
ENDBRANCH  10  23
TORSDOF 3
ENDMDL
