MODEL 1
REMARK VINA RESULT:      -8.9      0.000      0.000
REMARK  4 active torsions:
REMARK  status: ('A' for Active; 'I' for Inactive)
REMARK    1  A    between atoms: C3_3  and  N1_5 
REMARK    2  A    between atoms: N1_5  and  C4_6 
REMARK    3  A    between atoms: C4_6  and  C6_8 
REMARK    4  A    between atoms: C8_10  and  O2_11 
ROOT
HETATM    1  C6  UNL     1      24.579   1.865  51.850  1.00  0.00     0.049 C 
HETATM    2  C7  UNL     1      23.922   1.059  52.631  1.00  0.00     0.112 C 
HETATM    3  C8  UNL     1      24.237  -0.076  53.597  1.00  0.00     0.067 C 
HETATM    4  C10 UNL     1      23.046  -0.492  54.072  1.00  0.00     0.098 C 
HETATM    5  N2  UNL     1      21.664  -0.278  54.005  1.00  0.00    -0.234 NA
HETATM    6  C11 UNL     1      20.428  -0.433  53.341  1.00  0.00     0.224 A 
HETATM    7  N3  UNL     1      19.398  -1.214  53.756  1.00  0.00    -0.227 NA
HETATM    8  C12 UNL     1      18.286  -1.208  52.967  1.00  0.00     0.151 A 
HETATM    9  C13 UNL     1      18.055  -0.522  51.803  1.00  0.00     0.076 A 
HETATM   10  C14 UNL     1      17.221  -0.217  50.759  1.00  0.00     0.035 A 
HETATM   11  C15 UNL     1      17.841   0.671  49.894  1.00  0.00     0.035 A 
HETATM   12  C16 UNL     1      19.088   0.946  50.376  1.00  0.00     0.070 A 
HETATM   13  N4  UNL     1      19.129   0.206  51.494  1.00  0.00    -0.229 N 
HETATM   14  N5  UNL     1      20.194   0.230  52.211  1.00  0.00    -0.133 NA
HETATM   15  C17 UNL     1      20.256   1.734  50.010  1.00  0.00     0.012 A 
HETATM   16  C18 UNL     1      20.265   2.366  48.811  1.00  0.00     0.130 A 
HETATM   17  N6  UNL     1      21.294   3.121  48.347  1.00  0.00    -0.270 NA
HETATM   18  C19 UNL     1      22.369   3.224  49.174  1.00  0.00     0.145 A 
HETATM   19  C20 UNL     1      22.447   2.609  50.426  1.00  0.00     0.052 A 
HETATM   20  C21 UNL     1      21.340   1.854  50.814  1.00  0.00     0.046 A 
HETATM   21  N7  UNL     1      23.617   2.789  51.268  1.00  0.00    -0.351 N 
HETATM   22  C22 UNL     1      23.678   4.234  51.498  1.00  0.00     0.156 C 
HETATM   23  H12 UNL     1      21.993  -0.837  53.129  1.00  0.00     0.136 HD
ENDROOT
BRANCH   1  24
HETATM   24  C4  UNL     1      25.787   2.363  51.276  1.00  0.00     0.048 C 
HETATM   25  C5  UNL     1      26.493   2.590  50.299  1.00  0.00     0.045 C 
BRANCH  24  26
HETATM   26  N1  UNL     1      26.557   2.823  52.415  1.00  0.00    -0.336 N 
HETATM   27  H4  UNL     1      26.590   3.716  53.004  1.00  0.00     0.168 HD
BRANCH  26  28
HETATM   28  C3  UNL     1      27.560   2.131  53.137  1.00  0.00     0.141 A 
HETATM   29  C2  UNL     1      28.203   0.812  53.109  1.00  0.00     0.056 A 
HETATM   30  C1  UNL     1      28.907   1.241  54.134  1.00  0.00     0.209 A 
HETATM   31  O1  UNL     1      28.209   2.588  54.106  1.00  0.00    -0.332 OA
ENDBRANCH  26  28
ENDBRANCH  24  26
ENDBRANCH   1  24
BRANCH   3  32
HETATM   32  O2  UNL     1      25.241  -0.889  54.211  1.00  0.00    -0.358 OA
HETATM   33  C9  UNL     1      25.752  -0.475  55.475  1.00  0.00     0.209 C 
ENDBRANCH   3  32
TORSDOF 4
ENDMDL
MODEL 2
REMARK VINA RESULT:      -8.6      1.770      4.307
REMARK  4 active torsions:
REMARK  status: ('A' for Active; 'I' for Inactive)
REMARK    1  A    between atoms: C3_3  and  N1_5 
REMARK    2  A    between atoms: N1_5  and  C4_6 
REMARK    3  A    between atoms: C4_6  and  C6_8 
REMARK    4  A    between atoms: C8_10  and  O2_11 
ROOT
HETATM    1  C6  UNL     1      25.311   1.192  52.782  1.00  0.00     0.049 C 
HETATM    2  C7  UNL     1      24.732   1.736  51.752  1.00  0.00     0.112 C 
HETATM    3  C8  UNL     1      24.936   2.955  50.862  1.00  0.00     0.067 C 
HETATM    4  C10 UNL     1      23.930   2.923  49.964  1.00  0.00     0.098 C 
HETATM    5  N2  UNL     1      22.796   2.209  49.561  1.00  0.00    -0.234 NA
HETATM    6  C11 UNL     1      21.439   1.860  49.733  1.00  0.00     0.224 A 
HETATM    7  N3  UNL     1      20.418   2.224  48.915  1.00  0.00    -0.227 NA
HETATM    8  C12 UNL     1      19.181   1.766  49.262  1.00  0.00     0.151 A 
HETATM    9  C13 UNL     1      18.815   0.984  50.327  1.00  0.00     0.076 A 
HETATM   10  C14 UNL     1      17.835   0.338  51.034  1.00  0.00     0.035 A 
HETATM   11  C15 UNL     1      18.381  -0.300  52.136  1.00  0.00     0.035 A 
HETATM   12  C16 UNL     1      19.727  -0.068  52.150  1.00  0.00     0.070 A 
HETATM   13  N4  UNL     1      19.893   0.691  51.055  1.00  0.00    -0.229 N 
HETATM   14  N5  UNL     1      21.075   1.100  50.762  1.00  0.00    -0.133 NA
HETATM   15  C17 UNL     1      20.886  -0.384  52.969  1.00  0.00     0.012 A 
HETATM   16  C18 UNL     1      20.695  -1.029  54.147  1.00  0.00     0.130 A 
HETATM   17  N6  UNL     1      21.688  -1.371  55.007  1.00  0.00    -0.270 NA
HETATM   18  C19 UNL     1      22.947  -1.026  54.622  1.00  0.00     0.145 A 
HETATM   19  C20 UNL     1      23.238  -0.362  53.427  1.00  0.00     0.052 A 
HETATM   20  C21 UNL     1      22.150  -0.052  52.611  1.00  0.00     0.046 A 
HETATM   21  N7  UNL     1      24.611  -0.052  53.069  1.00  0.00    -0.351 N 
HETATM   22  C22 UNL     1      25.271  -1.358  53.004  1.00  0.00     0.156 C 
HETATM   23  H12 UNL     1      22.562   2.804  50.444  1.00  0.00     0.136 HD
ENDROOT
BRANCH   1  24
HETATM   24  C4  UNL     1      26.325   1.148  53.785  1.00  0.00     0.048 C 
HETATM   25  C5  UNL     1      26.668   1.181  54.962  1.00  0.00     0.045 C 
BRANCH  24  26
HETATM   26  N1  UNL     1      27.557   0.990  53.037  1.00  0.00    -0.336 N 
HETATM   27  H4  UNL     1      27.971   1.420  52.149  1.00  0.00     0.168 HD
BRANCH  26  28
HETATM   28  C3  UNL     1      28.662   0.153  53.327  1.00  0.00     0.141 A 
HETATM   29  C2  UNL     1      28.977  -1.281  53.292  1.00  0.00     0.056 A 
HETATM   30  C1  UNL     1      30.167  -0.931  53.730  1.00  0.00     0.209 A 
HETATM   31  O1  UNL     1      29.782   0.537  53.737  1.00  0.00    -0.332 OA
ENDBRANCH  26  28
ENDBRANCH  24  26
ENDBRANCH   1  24
BRANCH   3  32
HETATM   32  O2  UNL     1      25.724   4.112  50.569  1.00  0.00    -0.358 OA
HETATM   33  C9  UNL     1      26.564   4.072  49.419  1.00  0.00     0.209 C 
ENDBRANCH   3  32
TORSDOF 4
ENDMDL
MODEL 3
REMARK VINA RESULT:      -8.5      3.082      5.628
REMARK  4 active torsions:
REMARK  status: ('A' for Active; 'I' for Inactive)
REMARK    1  A    between atoms: C3_3  and  N1_5 
REMARK    2  A    between atoms: N1_5  and  C4_6 
REMARK    3  A    between atoms: C4_6  and  C6_8 
REMARK    4  A    between atoms: C8_10  and  O2_11 
ROOT
HETATM    1  C6  UNL     1      23.905   4.818  49.644  1.00  0.00     0.049 C 
HETATM    2  C7  UNL     1      24.829   4.090  50.200  1.00  0.00     0.112 C 
HETATM    3  C8  UNL     1      26.259   3.666  49.896  1.00  0.00     0.067 C 
HETATM    4  C10 UNL     1      26.630   2.872  50.921  1.00  0.00     0.098 C 
HETATM    5  N2  UNL     1      26.198   2.304  52.125  1.00  0.00    -0.234 NA
HETATM    6  C11 UNL     1      25.459   1.326  52.826  1.00  0.00     0.224 A 
HETATM    7  N3  UNL     1      25.985   0.308  53.554  1.00  0.00    -0.227 NA
HETATM    8  C12 UNL     1      25.087  -0.519  54.162  1.00  0.00     0.151 A 
HETATM    9  C13 UNL     1      23.717  -0.471  54.146  1.00  0.00     0.076 A 
HETATM   10  C14 UNL     1      22.514  -0.998  54.534  1.00  0.00     0.035 A 
HETATM   11  C15 UNL     1      21.471  -0.252  54.007  1.00  0.00     0.035 A 
HETATM   12  C16 UNL     1      21.998   0.768  53.268  1.00  0.00     0.070 A 
HETATM   13  N4  UNL     1      23.317   0.564  53.404  1.00  0.00    -0.229 N 
HETATM   14  N5  UNL     1      24.130   1.366  52.817  1.00  0.00    -0.133 NA
HETATM   15  C17 UNL     1      21.539   1.879  52.448  1.00  0.00     0.012 A 
HETATM   16  C18 UNL     1      20.212   1.998  52.196  1.00  0.00     0.130 A 
HETATM   17  N6  UNL     1      19.657   2.979  51.441  1.00  0.00    -0.270 NA
HETATM   18  C19 UNL     1      20.528   3.886  50.919  1.00  0.00     0.145 A 
HETATM   19  C20 UNL     1      21.910   3.843  51.126  1.00  0.00     0.052 A 
HETATM   20  C21 UNL     1      22.384   2.795  51.917  1.00  0.00     0.046 A 
HETATM   21  N7  UNL     1      22.775   4.863  50.561  1.00  0.00    -0.351 N 
HETATM   22  C22 UNL     1      22.293   6.113  51.153  1.00  0.00     0.156 C 
HETATM   23  H12 UNL     1      25.780   1.750  51.285  1.00  0.00     0.136 HD
ENDROOT
BRANCH   1  24
HETATM   24  C4  UNL     1      23.413   5.653  48.597  1.00  0.00     0.048 C 
HETATM   25  C5  UNL     1      22.520   5.991  47.827  1.00  0.00     0.045 C 
BRANCH  24  26
HETATM   26  N1  UNL     1      24.524   6.535  48.295  1.00  0.00    -0.336 N 
HETATM   27  H4  UNL     1      25.222   6.635  47.490  1.00  0.00     0.168 HD
BRANCH  26  28
HETATM   28  C3  UNL     1      25.016   7.623  49.056  1.00  0.00     0.141 A 
HETATM   29  C2  UNL     1      26.105   7.879  50.007  1.00  0.00     0.056 A 
HETATM   30  C1  UNL     1      25.640   9.109  50.059  1.00  0.00     0.209 A 
HETATM   31  O1  UNL     1      24.540   8.782  49.066  1.00  0.00    -0.332 OA
ENDBRANCH  26  28
ENDBRANCH  24  26
ENDBRANCH   1  24
BRANCH   3  32
HETATM   32  O2  UNL     1      27.372   3.741  49.000  1.00  0.00    -0.358 OA
HETATM   33  C9  UNL     1      27.794   5.032  48.569  1.00  0.00     0.209 C 
ENDBRANCH   3  32
TORSDOF 4
ENDMDL
MODEL 4
REMARK VINA RESULT:      -8.4      2.872      6.831
REMARK  4 active torsions:
REMARK  status: ('A' for Active; 'I' for Inactive)
REMARK    1  A    between atoms: C3_3  and  N1_5 
REMARK    2  A    between atoms: N1_5  and  C4_6 
REMARK    3  A    between atoms: C4_6  and  C6_8 
REMARK    4  A    between atoms: C8_10  and  O2_11 
ROOT
HETATM    1  C6  UNL     1      22.932   2.000  51.412  1.00  0.00     0.049 C 
HETATM    2  C7  UNL     1      24.208   2.110  51.189  1.00  0.00     0.112 C 
HETATM    3  C8  UNL     1      25.506   1.632  51.828  1.00  0.00     0.067 C 
HETATM    4  C10 UNL     1      26.495   2.138  51.064  1.00  0.00     0.098 C 
HETATM    5  N2  UNL     1      26.766   2.922  49.937  1.00  0.00    -0.234 NA
HETATM    6  C11 UNL     1      26.877   4.186  49.318  1.00  0.00     0.224 A 
HETATM    7  N3  UNL     1      28.034   4.771  48.913  1.00  0.00    -0.227 NA
HETATM    8  C12 UNL     1      27.912   5.996  48.325  1.00  0.00     0.151 A 
HETATM    9  C13 UNL     1      26.779   6.729  48.081  1.00  0.00     0.076 A 
HETATM   10  C14 UNL     1      26.194   7.866  47.589  1.00  0.00     0.035 A 
HETATM   11  C15 UNL     1      24.820   7.810  47.760  1.00  0.00     0.035 A 
HETATM   12  C16 UNL     1      24.506   6.628  48.368  1.00  0.00     0.070 A 
HETATM   13  N4  UNL     1      25.712   6.059  48.518  1.00  0.00    -0.229 N 
HETATM   14  N5  UNL     1      25.784   4.904  49.075  1.00  0.00    -0.133 NA
HETATM   15  C17 UNL     1      23.330   5.924  48.855  1.00  0.00     0.012 A 
HETATM   16  C18 UNL     1      22.133   6.561  48.831  1.00  0.00     0.130 A 
HETATM   17  N6  UNL     1      20.966   6.021  49.264  1.00  0.00    -0.270 NA
HETATM   18  C19 UNL     1      21.046   4.752  49.748  1.00  0.00     0.145 A 
HETATM   19  C20 UNL     1      22.235   4.019  49.811  1.00  0.00     0.052 A 
HETATM   20  C21 UNL     1      23.382   4.661  49.342  1.00  0.00     0.046 A 
HETATM   21  N7  UNL     1      22.239   2.657  50.313  1.00  0.00    -0.351 N 
HETATM   22  C22 UNL     1      21.339   1.935  49.409  1.00  0.00     0.156 C 
HETATM   23  H12 UNL     1      26.505   3.564  50.778  1.00  0.00     0.136 HD
ENDROOT
BRANCH   1  24
HETATM   24  C4  UNL     1      21.816   1.527  52.167  1.00  0.00     0.048 C 
HETATM   25  C5  UNL     1      20.739   1.721  52.721  1.00  0.00     0.045 C 
BRANCH  24  26
HETATM   26  N1  UNL     1      22.108   0.124  52.389  1.00  0.00    -0.336 N 
HETATM   27  H4  UNL     1      22.177  -0.748  51.772  1.00  0.00     0.168 HD
BRANCH  26  28
HETATM   28  C3  UNL     1      22.433  -0.526  53.604  1.00  0.00     0.141 A 
HETATM   29  C2  UNL     1      21.750  -1.346  54.613  1.00  0.00     0.056 A 
HETATM   30  C1  UNL     1      22.912  -1.380  55.230  1.00  0.00     0.209 A 
HETATM   31  O1  UNL     1      23.561  -0.534  54.149  1.00  0.00    -0.332 OA
ENDBRANCH  26  28
ENDBRANCH  24  26
ENDBRANCH   1  24
BRANCH   3  32
HETATM   32  O2  UNL     1      26.126   0.888  52.880  1.00  0.00    -0.358 OA
HETATM   33  C9  UNL     1      26.867  -0.275  52.525  1.00  0.00     0.209 C 
ENDBRANCH   3  32
TORSDOF 4
ENDMDL
MODEL 5
REMARK VINA RESULT:      -8.3      2.161      3.414
REMARK  4 active torsions:
REMARK  status: ('A' for Active; 'I' for Inactive)
REMARK    1  A    between atoms: C3_3  and  N1_5 
REMARK    2  A    between atoms: N1_5  and  C4_6 
REMARK    3  A    between atoms: C4_6  and  C6_8 
REMARK    4  A    between atoms: C8_10  and  O2_11 
ROOT
HETATM    1  C6  UNL     1      23.610   3.782  50.522  1.00  0.00     0.049 C 
HETATM    2  C7  UNL     1      23.949   2.841  51.354  1.00  0.00     0.112 C 
HETATM    3  C8  UNL     1      25.205   2.060  51.717  1.00  0.00     0.067 C 
HETATM    4  C10 UNL     1      24.833   1.200  52.686  1.00  0.00     0.098 C 
HETATM    5  N2  UNL     1      23.749   0.766  53.457  1.00  0.00    -0.234 NA
HETATM    6  C11 UNL     1      22.561   0.015  53.595  1.00  0.00     0.224 A 
HETATM    7  N3  UNL     1      22.414  -1.103  54.351  1.00  0.00    -0.227 NA
HETATM    8  C12 UNL     1      21.173  -1.668  54.351  1.00  0.00     0.151 A 
HETATM    9  C13 UNL     1      20.040  -1.266  53.691  1.00  0.00     0.076 A 
HETATM   10  C14 UNL     1      18.718  -1.462  53.391  1.00  0.00     0.035 A 
HETATM   11  C15 UNL     1      18.270  -0.473  52.530  1.00  0.00     0.035 A 
HETATM   12  C16 UNL     1      19.307   0.373  52.264  1.00  0.00     0.070 A 
HETATM   13  N4  UNL     1      20.303  -0.165  52.985  1.00  0.00    -0.229 N 
HETATM   14  N5  UNL     1      21.457   0.398  52.960  1.00  0.00    -0.133 NA
HETATM   15  C17 UNL     1      19.576   1.563  51.472  1.00  0.00     0.012 A 
HETATM   16  C18 UNL     1      18.611   2.021  50.636  1.00  0.00     0.130 A 
HETATM   17  N6  UNL     1      18.739   3.111  49.837  1.00  0.00    -0.270 NA
HETATM   18  C19 UNL     1      19.933   3.760  49.910  1.00  0.00     0.145 A 
HETATM   19  C20 UNL     1      20.984   3.361  50.742  1.00  0.00     0.052 A 
HETATM   20  C21 UNL     1      20.756   2.228  51.525  1.00  0.00     0.046 A 
HETATM   21  N7  UNL     1      22.220   4.120  50.789  1.00  0.00    -0.351 N 
HETATM   22  C22 UNL     1      21.808   5.455  51.232  1.00  0.00     0.156 C 
HETATM   23  H12 UNL     1      23.684   0.337  52.458  1.00  0.00     0.136 HD
ENDROOT
BRANCH   1  24
HETATM   24  C4  UNL     1      23.901   4.714  49.481  1.00  0.00     0.048 C 
HETATM   25  C5  UNL     1      23.619   5.250  48.415  1.00  0.00     0.045 C 
BRANCH  24  26
HETATM   26  N1  UNL     1      25.153   5.321  49.889  1.00  0.00    -0.336 N 
HETATM   27  H4  UNL     1      25.470   5.948  50.696  1.00  0.00     0.168 HD
BRANCH  26  28
HETATM   28  C3  UNL     1      26.425   5.215  49.274  1.00  0.00     0.141 A 
HETATM   29  C2  UNL     1      27.348   6.083  48.533  1.00  0.00     0.056 A 
HETATM   30  C1  UNL     1      28.130   5.027  48.462  1.00  0.00     0.209 A 
HETATM   31  O1  UNL     1      27.135   4.184  49.239  1.00  0.00    -0.332 OA
ENDBRANCH  26  28
ENDBRANCH  24  26
ENDBRANCH   1  24
BRANCH   3  32
HETATM   32  O2  UNL     1      26.598   1.842  51.475  1.00  0.00    -0.358 OA
HETATM   33  C9  UNL     1      27.464   1.757  52.602  1.00  0.00     0.209 C 
ENDBRANCH   3  32
TORSDOF 4
ENDMDL
MODEL 6
REMARK VINA RESULT:      -8.2      2.897      6.086
REMARK  4 active torsions:
REMARK  status: ('A' for Active; 'I' for Inactive)
REMARK    1  A    between atoms: C3_3  and  N1_5 
REMARK    2  A    between atoms: N1_5  and  C4_6 
REMARK    3  A    between atoms: C4_6  and  C6_8 
REMARK    4  A    between atoms: C8_10  and  O2_11 
ROOT
HETATM    1  C6  UNL     1      23.730   4.749  49.819  1.00  0.00     0.049 C 
HETATM    2  C7  UNL     1      24.693   4.041  50.331  1.00  0.00     0.112 C 
HETATM    3  C8  UNL     1      26.124   3.663  49.971  1.00  0.00     0.067 C 
HETATM    4  C10 UNL     1      26.553   2.867  50.971  1.00  0.00     0.098 C 
HETATM    5  N2  UNL     1      26.181   2.271  52.181  1.00  0.00    -0.234 NA
HETATM    6  C11 UNL     1      25.497   1.263  52.894  1.00  0.00     0.224 A 
HETATM    7  N3  UNL     1      26.077   0.250  53.588  1.00  0.00    -0.227 NA
HETATM    8  C12 UNL     1      25.225  -0.610  54.217  1.00  0.00     0.151 A 
HETATM    9  C13 UNL     1      23.855  -0.601  54.249  1.00  0.00     0.076 A 
HETATM   10  C14 UNL     1      22.681  -1.168  54.673  1.00  0.00     0.035 A 
HETATM   11  C15 UNL     1      21.600  -0.446  54.193  1.00  0.00     0.035 A 
HETATM   12  C16 UNL     1      22.071   0.598  53.451  1.00  0.00     0.070 A 
HETATM   13  N4  UNL     1      23.399   0.431  53.537  1.00  0.00    -0.229 N 
HETATM   14  N5  UNL     1      24.167   1.264  52.933  1.00  0.00    -0.133 NA
HETATM   15  C17 UNL     1      21.551   1.706  52.664  1.00  0.00     0.012 A 
HETATM   16  C18 UNL     1      20.213   1.790  52.461  1.00  0.00     0.130 A 
HETATM   17  N6  UNL     1      19.604   2.765  51.739  1.00  0.00    -0.270 NA
HETATM   18  C19 UNL     1      20.429   3.703  51.200  1.00  0.00     0.145 A 
HETATM   19  C20 UNL     1      21.818   3.697  51.357  1.00  0.00     0.052 A 
HETATM   20  C21 UNL     1      22.350   2.653  52.115  1.00  0.00     0.046 A 
HETATM   21  N7  UNL     1      22.633   4.749  50.776  1.00  0.00    -0.351 N 
HETATM   22  C22 UNL     1      22.137   5.977  51.402  1.00  0.00     0.156 C 
HETATM   23  H12 UNL     1      25.749   1.715  51.349  1.00  0.00     0.136 HD
ENDROOT
BRANCH   1  24
HETATM   24  C4  UNL     1      23.177   5.583  48.802  1.00  0.00     0.048 C 
HETATM   25  C5  UNL     1      23.154   6.640  48.180  1.00  0.00     0.045 C 
BRANCH  24  26
HETATM   26  N1  UNL     1      22.116   4.782  48.223  1.00  0.00    -0.336 N 
HETATM   27  H4  UNL     1      21.230   4.309  48.591  1.00  0.00     0.168 HD
BRANCH  26  28
HETATM   28  C3  UNL     1      21.944   4.392  46.873  1.00  0.00     0.141 A 
HETATM   29  C2  UNL     1      21.593   5.027  45.596  1.00  0.00     0.056 A 
HETATM   30  C1  UNL     1      21.722   3.825  45.075  1.00  0.00     0.209 A 
HETATM   31  O1  UNL     1      22.086   3.231  46.423  1.00  0.00    -0.332 OA
ENDBRANCH  26  28
ENDBRANCH  24  26
ENDBRANCH   1  24
BRANCH   3  32
HETATM   32  O2  UNL     1      27.201   3.782  49.037  1.00  0.00    -0.358 OA
HETATM   33  C9  UNL     1      27.580   5.090  48.621  1.00  0.00     0.209 C 
ENDBRANCH   3  32
TORSDOF 4
ENDMDL
MODEL 7
REMARK VINA RESULT:      -8.0      2.701      7.000
REMARK  4 active torsions:
REMARK  status: ('A' for Active; 'I' for Inactive)
REMARK    1  A    between atoms: C3_3  and  N1_5 
REMARK    2  A    between atoms: N1_5  and  C4_6 
REMARK    3  A    between atoms: C4_6  and  C6_8 
REMARK    4  A    between atoms: C8_10  and  O2_11 
ROOT
HETATM    1  C6  UNL     1      20.749   1.412  50.876  1.00  0.00     0.049 C 
HETATM    2  C7  UNL     1      21.196   0.629  51.813  1.00  0.00     0.112 C 
HETATM    3  C8  UNL     1      20.630  -0.147  52.995  1.00  0.00     0.067 C 
HETATM    4  C10 UNL     1      21.686  -0.756  53.571  1.00  0.00     0.098 C 
HETATM    5  N2  UNL     1      23.072  -0.931  53.492  1.00  0.00    -0.234 NA
HETATM    6  C11 UNL     1      24.384  -0.456  53.709  1.00  0.00     0.224 A 
HETATM    7  N3  UNL     1      25.261  -0.942  54.625  1.00  0.00    -0.227 NA
HETATM    8  C12 UNL     1      26.486  -0.342  54.659  1.00  0.00     0.151 A 
HETATM    9  C13 UNL     1      26.964   0.690  53.895  1.00  0.00     0.076 A 
HETATM   10  C14 UNL     1      27.983   1.551  53.580  1.00  0.00     0.035 A 
HETATM   11  C15 UNL     1      27.594   2.402  52.558  1.00  0.00     0.035 A 
HETATM   12  C16 UNL     1      26.311   2.096  52.204  1.00  0.00     0.070 A 
HETATM   13  N4  UNL     1      26.022   1.083  53.036  1.00  0.00    -0.229 N 
HETATM   14  N5  UNL     1      24.858   0.544  52.971  1.00  0.00    -0.133 NA
HETATM   15  C17 UNL     1      25.292   2.553  51.272  1.00  0.00     0.012 A 
HETATM   16  C18 UNL     1      25.536   3.664  50.534  1.00  0.00     0.130 A 
HETATM   17  N6  UNL     1      24.666   4.199  49.639  1.00  0.00    -0.270 NA
HETATM   18  C19 UNL     1      23.481   3.546  49.505  1.00  0.00     0.145 A 
HETATM   19  C20 UNL     1      23.143   2.394  50.223  1.00  0.00     0.052 A 
HETATM   20  C21 UNL     1      24.103   1.921  51.118  1.00  0.00     0.046 A 
HETATM   21  N7  UNL     1      21.869   1.733  50.004  1.00  0.00    -0.351 N 
HETATM   22  C22 UNL     1      21.893   1.361  48.587  1.00  0.00     0.156 C 
HETATM   23  H12 UNL     1      22.848   0.041  53.931  1.00  0.00     0.136 HD
ENDROOT
BRANCH   1  24
HETATM   24  C4  UNL     1      19.700   2.112  50.207  1.00  0.00     0.048 C 
HETATM   25  C5  UNL     1      19.077   2.385  49.187  1.00  0.00     0.045 C 
BRANCH  24  26
HETATM   26  N1  UNL     1      19.063   2.883  51.257  1.00  0.00    -0.336 N 
HETATM   27  H4  UNL     1      19.397   3.550  52.024  1.00  0.00     0.168 HD
BRANCH  26  28
HETATM   28  C3  UNL     1      17.684   2.984  51.561  1.00  0.00     0.141 A 
HETATM   29  C2  UNL     1      16.504   2.111  51.554  1.00  0.00     0.056 A 
HETATM   30  C1  UNL     1      15.841   3.166  51.978  1.00  0.00     0.209 A 
HETATM   31  O1  UNL     1      17.100   4.015  51.970  1.00  0.00    -0.332 OA
ENDBRANCH  26  28
ENDBRANCH  24  26
ENDBRANCH   1  24
BRANCH   3  32
HETATM   32  O2  UNL     1      19.473  -0.506  53.755  1.00  0.00    -0.358 OA
HETATM   33  C9  UNL     1      18.319  -0.947  53.045  1.00  0.00     0.209 C 
ENDBRANCH   3  32
TORSDOF 4
ENDMDL
MODEL 8
REMARK VINA RESULT:      -7.8      2.739      5.935
REMARK  4 active torsions:
REMARK  status: ('A' for Active; 'I' for Inactive)
REMARK    1  A    between atoms: C3_3  and  N1_5 
REMARK    2  A    between atoms: N1_5  and  C4_6 
REMARK    3  A    between atoms: C4_6  and  C6_8 
REMARK    4  A    between atoms: C8_10  and  O2_11 
ROOT
HETATM    1  C6  UNL     1      20.871   3.305  49.847  1.00  0.00     0.049 C 
HETATM    2  C7  UNL     1      20.363   2.441  50.674  1.00  0.00     0.112 C 
HETATM    3  C8  UNL     1      19.031   2.201  51.372  1.00  0.00     0.067 C 
HETATM    4  C10 UNL     1      19.206   1.096  52.124  1.00  0.00     0.098 C 
HETATM    5  N2  UNL     1      20.135   0.117  52.496  1.00  0.00    -0.234 NA
HETATM    6  C11 UNL     1      21.250  -0.292  53.260  1.00  0.00     0.224 A 
HETATM    7  N3  UNL     1      21.224  -1.180  54.286  1.00  0.00    -0.227 NA
HETATM    8  C12 UNL     1      22.423  -1.441  54.882  1.00  0.00     0.151 A 
HETATM    9  C13 UNL     1      23.662  -0.931  54.593  1.00  0.00     0.076 A 
HETATM   10  C14 UNL     1      25.005  -0.872  54.860  1.00  0.00     0.035 A 
HETATM   11  C15 UNL     1      25.628   0.010  53.991  1.00  0.00     0.035 A 
HETATM   12  C16 UNL     1      24.685   0.530  53.151  1.00  0.00     0.070 A 
HETATM   13  N4  UNL     1      23.565  -0.075  53.574  1.00  0.00    -0.229 N 
HETATM   14  N5  UNL     1      22.457   0.196  52.985  1.00  0.00    -0.133 NA
HETATM   15  C17 UNL     1      24.599   1.482  52.054  1.00  0.00     0.012 A 
HETATM   16  C18 UNL     1      25.703   2.197  51.724  1.00  0.00     0.130 A 
HETATM   17  N6  UNL     1      25.753   3.121  50.731  1.00  0.00    -0.270 NA
HETATM   18  C19 UNL     1      24.594   3.312  50.045  1.00  0.00     0.145 A 
HETATM   19  C20 UNL     1      23.408   2.622  50.314  1.00  0.00     0.052 A 
HETATM   20  C21 UNL     1      23.458   1.692  51.354  1.00  0.00     0.046 A 
HETATM   21  N7  UNL     1      22.217   2.858  49.519  1.00  0.00    -0.351 N 
HETATM   22  C22 UNL     1      22.617   2.504  48.155  1.00  0.00     0.156 C 
HETATM   23  H12 UNL     1      20.335   1.040  53.040  1.00  0.00     0.136 HD
ENDROOT
BRANCH   1  24
HETATM   24  C4  UNL     1      20.790   4.476  49.034  1.00  0.00     0.048 C 
HETATM   25  C5  UNL     1      20.699   5.011  47.934  1.00  0.00     0.045 C 
BRANCH  24  26
HETATM   26  N1  UNL     1      20.851   5.571  49.983  1.00  0.00    -0.336 N 
HETATM   27  H4  UNL     1      20.158   6.045  50.647  1.00  0.00     0.168 HD
BRANCH  26  28
HETATM   28  C3  UNL     1      21.966   6.372  50.333  1.00  0.00     0.141 A 
HETATM   29  C2  UNL     1      22.586   7.624  49.885  1.00  0.00     0.056 A 
HETATM   30  C1  UNL     1      23.471   7.413  50.836  1.00  0.00     0.209 A 
HETATM   31  O1  UNL     1      22.778   6.129  51.255  1.00  0.00    -0.332 OA
ENDBRANCH  26  28
ENDBRANCH  24  26
ENDBRANCH   1  24
BRANCH   3  32
HETATM   32  O2  UNL     1      17.684   2.638  51.576  1.00  0.00    -0.358 OA
HETATM   33  C9  UNL     1      17.395   4.019  51.380  1.00  0.00     0.209 C 
ENDBRANCH   3  32
TORSDOF 4
ENDMDL
MODEL 9
REMARK VINA RESULT:      -7.6      2.841      7.499
REMARK  4 active torsions:
REMARK  status: ('A' for Active; 'I' for Inactive)
REMARK    1  A    between atoms: C3_3  and  N1_5 
REMARK    2  A    between atoms: N1_5  and  C4_6 
REMARK    3  A    between atoms: C4_6  and  C6_8 
REMARK    4  A    between atoms: C8_10  and  O2_11 
ROOT
HETATM    1  C6  UNL     1      20.880   2.132  50.160  1.00  0.00     0.049 C 
HETATM    2  C7  UNL     1      22.088   2.575  49.967  1.00  0.00     0.112 C 
HETATM    3  C8  UNL     1      22.900   3.161  48.820  1.00  0.00     0.067 C 
HETATM    4  C10 UNL     1      24.128   3.396  49.326  1.00  0.00     0.098 C 
HETATM    5  N2  UNL     1      24.913   3.299  50.481  1.00  0.00    -0.234 NA
HETATM    6  C11 UNL     1      25.684   2.532  51.381  1.00  0.00     0.224 A 
HETATM    7  N3  UNL     1      27.031   2.609  51.535  1.00  0.00    -0.227 NA
HETATM    8  C12 UNL     1      27.575   1.782  52.473  1.00  0.00     0.151 A 
HETATM    9  C13 UNL     1      26.953   0.875  53.291  1.00  0.00     0.076 A 
HETATM   10  C14 UNL     1      27.034  -0.080  54.271  1.00  0.00     0.035 A 
HETATM   11  C15 UNL     1      25.774  -0.580  54.559  1.00  0.00     0.035 A 
HETATM   12  C16 UNL     1      24.864   0.052  53.761  1.00  0.00     0.070 A 
HETATM   13  N4  UNL     1      25.640   0.886  53.052  1.00  0.00    -0.229 N 
HETATM   14  N5  UNL     1      25.089   1.651  52.180  1.00  0.00    -0.133 NA
HETATM   15  C17 UNL     1      23.432   0.034  53.503  1.00  0.00     0.012 A 
HETATM   16  C18 UNL     1      22.672  -0.906  54.117  1.00  0.00     0.130 A 
HETATM   17  N6  UNL     1      21.331  -1.037  53.954  1.00  0.00    -0.270 NA
HETATM   18  C19 UNL     1      20.748  -0.143  53.109  1.00  0.00     0.145 A 
HETATM   19  C20 UNL     1      21.452   0.859  52.435  1.00  0.00     0.052 A 
HETATM   20  C21 UNL     1      22.827   0.912  52.667  1.00  0.00     0.046 A 
HETATM   21  N7  UNL     1      20.758   1.797  51.571  1.00  0.00    -0.351 N 
HETATM   22  C22 UNL     1      19.804   2.468  52.458  1.00  0.00     0.156 C 
HETATM   23  H12 UNL     1      24.825   2.320  50.012  1.00  0.00     0.136 HD
ENDROOT
BRANCH   1  24
HETATM   24  C4  UNL     1      19.559   1.830  49.714  1.00  0.00     0.048 C 
HETATM   25  C5  UNL     1      18.579   1.092  49.692  1.00  0.00     0.045 C 
BRANCH  24  26
HETATM   26  N1  UNL     1      19.207   2.950  48.862  1.00  0.00    -0.336 N 
HETATM   27  H4  UNL     1      18.839   3.063  47.863  1.00  0.00     0.168 HD
BRANCH  26  28
HETATM   28  C3  UNL     1      19.239   4.332  49.167  1.00  0.00     0.141 A 
HETATM   29  C2  UNL     1      19.977   5.523  48.729  1.00  0.00     0.056 A 
HETATM   30  C1  UNL     1      19.250   6.178  49.609  1.00  0.00     0.209 A 
HETATM   31  O1  UNL     1      18.519   4.911  50.013  1.00  0.00    -0.332 OA
ENDBRANCH  26  28
ENDBRANCH  24  26
ENDBRANCH   1  24
BRANCH   3  32
HETATM   32  O2  UNL     1      22.928   3.565  47.449  1.00  0.00    -0.358 OA
HETATM   33  C9  UNL     1      21.839   3.174  46.617  1.00  0.00     0.209 C 
ENDBRANCH   3  32
TORSDOF 4
ENDMDL
