MODEL 1
REMARK VINA RESULT:      -8.0      0.000      0.000
REMARK  6 active torsions:
REMARK  status: ('A' for Active; 'I' for Inactive)
REMARK    1  A    between atoms: C5_7  and  N3_8 
REMARK    2  A    between atoms: N3_8  and  C6_9 
REMARK    3  A    between atoms: C10_16  and  C11_17 
REMARK    4  A    between atoms: C11_17  and  O1_18 
REMARK    5  A    between atoms: O1_18  and  C12_19 
REMARK    6  A    between atoms: C12_19  and  C13_20 
ROOT
HETATM    1  C6  UNL     1      27.003   1.598  53.848  1.00  0.00     0.159 A 
HETATM    2  N4  UNL     1      27.911   2.524  54.139  1.00  0.00    -0.220 NA
HETATM    3  C7  UNL     1      29.225   2.200  54.113  1.00  0.00     0.258 A 
HETATM    4  N5  UNL     1      29.526   0.953  53.794  1.00  0.00    -0.161 NA
HETATM    5  N6  UNL     1      28.628   0.020  53.502  1.00  0.00    -0.240 N 
HETATM    6  C8  UNL     1      28.854  -1.248  53.175  1.00  0.00     0.119 A 
HETATM    7  C9  UNL     1      27.587  -1.765  52.978  1.00  0.00     0.031 A 
HETATM    8  C10 UNL     1      26.588  -0.814  53.182  1.00  0.00    -0.001 A 
HETATM    9  C17 UNL     1      27.290   0.299  53.513  1.00  0.00     0.112 A 
ENDROOT
BRANCH   1  10
HETATM   10  N3  UNL     1      25.652   2.034  53.924  1.00  0.00    -0.339 N 
HETATM   11  H6  UNL     1      24.876   2.004  54.614  1.00  0.00     0.167 HD
BRANCH  10  12
HETATM   12  C5  UNL     1      25.014   2.738  52.838  1.00  0.00     0.034 A 
HETATM   13  C4  UNL     1      23.974   3.661  52.918  1.00  0.00     0.044 A 
HETATM   14  C3  UNL     1      23.413   4.272  51.829  1.00  0.00     0.013 A 
HETATM   15  C2  UNL     1      22.400   5.188  51.756  1.00  0.00     0.152 A 
HETATM   16  C20 UNL     1      23.867   3.992  50.570  1.00  0.00     0.064 A 
HETATM   17  N2  UNL     1      22.234   5.465  50.454  1.00  0.00    -0.184 NA
HETATM   18  N1  UNL     1      23.105   4.755  49.764  1.00  0.00    -0.274 N 
HETATM   19  C1  UNL     1      23.224   4.795  48.315  1.00  0.00     0.180 C 
HETATM   20  C19 UNL     1      24.903   3.079  50.415  1.00  0.00     0.034 A 
HETATM   21  C18 UNL     1      25.449   2.477  51.546  1.00  0.00     0.032 A 
ENDBRANCH  10  12
ENDBRANCH   1  10
BRANCH   8  22
HETATM   22  C11 UNL     1      25.127  -0.940  53.080  1.00  0.00     0.208 C 
BRANCH  22  23
HETATM   23  O1  UNL     1      24.442  -0.586  54.245  1.00  0.00    -0.386 OA
BRANCH  23  24
HETATM   24  C12 UNL     1      23.103  -0.823  54.096  1.00  0.00     0.174 C 
BRANCH  24  25
HETATM   25  C13 UNL     1      22.324   0.393  53.653  1.00  0.00     0.039 C 
HETATM   26  C14 UNL     1      22.162   0.435  52.142  1.00  0.00     0.038 C 
HETATM   27  C15 UNL     1      21.011   1.427  52.051  1.00  0.00     0.270 C 
HETATM   28  N7  UNL     1      20.098   0.944  53.060  1.00  0.00     0.083 N 
HETATM   29  C16 UNL     1      20.882   0.332  54.095  1.00  0.00     0.276 C 
HETATM   30  H19 UNL     1      19.433   0.285  52.596  1.00  0.00     0.315 HD
ENDBRANCH  24  25
ENDBRANCH  23  24
ENDBRANCH  22  23
ENDBRANCH   8  22
TORSDOF 6
ENDMDL
MODEL 2
REMARK VINA RESULT:      -8.0      2.332      7.121
REMARK  6 active torsions:
REMARK  status: ('A' for Active; 'I' for Inactive)
REMARK    1  A    between atoms: C5_7  and  N3_8 
REMARK    2  A    between atoms: N3_8  and  C6_9 
REMARK    3  A    between atoms: C10_16  and  C11_17 
REMARK    4  A    between atoms: C11_17  and  O1_18 
REMARK    5  A    between atoms: O1_18  and  C12_19 
REMARK    6  A    between atoms: C12_19  and  C13_20 
ROOT
HETATM    1  C6  UNL     1      22.502   1.206  52.766  1.00  0.00     0.159 A 
HETATM    2  N4  UNL     1      21.948   0.612  53.818  1.00  0.00    -0.220 NA
HETATM    3  C7  UNL     1      20.761  -0.024  53.676  1.00  0.00     0.258 A 
HETATM    4  N5  UNL     1      20.218  -0.011  52.472  1.00  0.00    -0.161 NA
HETATM    5  N6  UNL     1      20.761   0.579  51.413  1.00  0.00    -0.240 N 
HETATM    6  C8  UNL     1      20.275   0.634  50.178  1.00  0.00     0.119 A 
HETATM    7  C9  UNL     1      21.227   1.359  49.485  1.00  0.00     0.031 A 
HETATM    8  C10 UNL     1      22.294   1.745  50.296  1.00  0.00    -0.001 A 
HETATM    9  C17 UNL     1      21.958   1.232  51.506  1.00  0.00     0.112 A 
ENDROOT
BRANCH   1  10
HETATM   10  N3  UNL     1      23.736   1.863  53.024  1.00  0.00    -0.339 N 
HETATM   11  H6  UNL     1      24.065   2.834  53.196  1.00  0.00     0.167 HD
BRANCH  10  12
HETATM   12  C5  UNL     1      24.982   1.141  53.117  1.00  0.00     0.034 A 
HETATM   13  C4  UNL     1      25.221  -0.188  52.773  1.00  0.00     0.044 A 
HETATM   14  C3  UNL     1      26.436  -0.802  52.910  1.00  0.00     0.013 A 
HETATM   15  C2  UNL     1      26.815  -2.083  52.617  1.00  0.00     0.152 A 
HETATM   16  C20 UNL     1      27.506  -0.112  53.408  1.00  0.00     0.064 A 
HETATM   17  N2  UNL     1      28.114  -2.176  52.937  1.00  0.00    -0.184 NA
HETATM   18  N1  UNL     1      28.511  -1.008  53.402  1.00  0.00    -0.274 N 
HETATM   19  C1  UNL     1      29.867  -0.726  53.850  1.00  0.00     0.180 C 
HETATM   20  C19 UNL     1      27.340   1.219  53.773  1.00  0.00     0.034 A 
HETATM   21  C18 UNL     1      26.088   1.811  53.619  1.00  0.00     0.032 A 
ENDBRANCH  10  12
ENDBRANCH   1  10
BRANCH   8  22
HETATM   22  C11 UNL     1      23.500   2.517  49.966  1.00  0.00     0.208 C 
BRANCH  22  23
HETATM   23  O1  UNL     1      23.498   3.820  50.471  1.00  0.00    -0.386 OA
BRANCH  23  24
HETATM   24  C12 UNL     1      24.777   4.234  50.717  1.00  0.00     0.174 C 
BRANCH  24  25
HETATM   25  C13 UNL     1      25.510   4.692  49.478  1.00  0.00     0.039 C 
HETATM   26  C14 UNL     1      25.904   6.157  49.569  1.00  0.00     0.038 C 
HETATM   27  C15 UNL     1      26.966   6.189  48.478  1.00  0.00     0.270 C 
HETATM   28  N7  UNL     1      27.746   5.008  48.764  1.00  0.00     0.083 N 
HETATM   29  C16 UNL     1      26.864   4.037  49.348  1.00  0.00     0.276 C 
HETATM   30  H19 UNL     1      28.530   5.292  49.393  1.00  0.00     0.315 HD
ENDBRANCH  24  25
ENDBRANCH  23  24
ENDBRANCH  22  23
ENDBRANCH   8  22
TORSDOF 6
ENDMDL
MODEL 3
REMARK VINA RESULT:      -7.9      1.873      6.508
REMARK  6 active torsions:
REMARK  status: ('A' for Active; 'I' for Inactive)
REMARK    1  A    between atoms: C5_7  and  N3_8 
REMARK    2  A    between atoms: N3_8  and  C6_9 
REMARK    3  A    between atoms: C10_16  and  C11_17 
REMARK    4  A    between atoms: C11_17  and  O1_18 
REMARK    5  A    between atoms: O1_18  and  C12_19 
REMARK    6  A    between atoms: C12_19  and  C13_20 
ROOT
HETATM    1  C6  UNL     1      22.732  -0.046  53.248  1.00  0.00     0.159 A 
HETATM    2  N4  UNL     1      23.193  -0.747  54.278  1.00  0.00    -0.220 NA
HETATM    3  C7  UNL     1      22.332  -1.471  55.031  1.00  0.00     0.258 A 
HETATM    4  N5  UNL     1      21.057  -1.430  54.684  1.00  0.00    -0.161 NA
HETATM    5  N6  UNL     1      20.584  -0.733  53.657  1.00  0.00    -0.240 N 
HETATM    6  C8  UNL     1      19.322  -0.644  53.251  1.00  0.00     0.119 A 
HETATM    7  C9  UNL     1      19.390   0.200  52.158  1.00  0.00     0.031 A 
HETATM    8  C10 UNL     1      20.692   0.624  51.895  1.00  0.00    -0.001 A 
HETATM    9  C17 UNL     1      21.414   0.012  52.867  1.00  0.00     0.112 A 
ENDROOT
BRANCH   1  10
HETATM   10  N3  UNL     1      23.713   0.696  52.535  1.00  0.00    -0.339 N 
HETATM   11  H6  UNL     1      23.735   1.397  51.769  1.00  0.00     0.167 HD
BRANCH  10  12
HETATM   12  C5  UNL     1      25.122   0.574  52.824  1.00  0.00     0.034 A 
HETATM   13  C4  UNL     1      26.010   1.592  53.163  1.00  0.00     0.044 A 
HETATM   14  C3  UNL     1      27.342   1.389  53.405  1.00  0.00     0.013 A 
HETATM   15  C2  UNL     1      28.322   2.281  53.744  1.00  0.00     0.152 A 
HETATM   16  C20 UNL     1      27.876   0.133  53.321  1.00  0.00     0.064 A 
HETATM   17  N2  UNL     1      29.453   1.570  53.867  1.00  0.00    -0.184 NA
HETATM   18  N1  UNL     1      29.179   0.306  53.616  1.00  0.00    -0.274 N 
HETATM   19  C1  UNL     1      30.162  -0.766  53.654  1.00  0.00     0.180 C 
HETATM   20  C19 UNL     1      27.047  -0.931  52.987  1.00  0.00     0.034 A 
HETATM   21  C18 UNL     1      25.697  -0.687  52.747  1.00  0.00     0.032 A 
ENDBRANCH  10  12
ENDBRANCH   1  10
BRANCH   8  22
HETATM   22  C11 UNL     1      21.203   1.513  50.842  1.00  0.00     0.208 C 
BRANCH  22  23
HETATM   23  O1  UNL     1      21.654   2.750  51.311  1.00  0.00    -0.386 OA
BRANCH  23  24
HETATM   24  C12 UNL     1      22.417   3.366  50.358  1.00  0.00     0.174 C 
BRANCH  24  25
HETATM   25  C13 UNL     1      23.848   3.589  50.786  1.00  0.00     0.039 C 
HETATM   26  C14 UNL     1      24.830   3.121  49.724  1.00  0.00     0.038 C 
HETATM   27  C15 UNL     1      26.071   3.867  50.198  1.00  0.00     0.270 C 
HETATM   28  N7  UNL     1      25.560   5.192  50.458  1.00  0.00     0.083 N 
HETATM   29  C16 UNL     1      24.191   5.057  50.868  1.00  0.00     0.276 C 
HETATM   30  H19 UNL     1      25.680   5.754  49.585  1.00  0.00     0.315 HD
ENDBRANCH  24  25
ENDBRANCH  23  24
ENDBRANCH  22  23
ENDBRANCH   8  22
TORSDOF 6
ENDMDL
MODEL 4
REMARK VINA RESULT:      -7.7      1.727      5.982
REMARK  6 active torsions:
REMARK  status: ('A' for Active; 'I' for Inactive)
REMARK    1  A    between atoms: C5_7  and  N3_8 
REMARK    2  A    between atoms: N3_8  and  C6_9 
REMARK    3  A    between atoms: C10_16  and  C11_17 
REMARK    4  A    between atoms: C11_17  and  O1_18 
REMARK    5  A    between atoms: O1_18  and  C12_19 
REMARK    6  A    between atoms: C12_19  and  C13_20 
ROOT
HETATM    1  C6  UNL     1      24.993   3.541  51.199  1.00  0.00     0.159 A 
HETATM    2  N4  UNL     1      26.126   3.864  50.585  1.00  0.00    -0.220 NA
HETATM    3  C7  UNL     1      26.081   4.415  49.348  1.00  0.00     0.258 A 
HETATM    4  N5  UNL     1      24.883   4.597  48.821  1.00  0.00    -0.161 NA
HETATM    5  N6  UNL     1      23.744   4.278  49.424  1.00  0.00    -0.240 N 
HETATM    6  C8  UNL     1      22.509   4.430  48.957  1.00  0.00     0.119 A 
HETATM    7  C9  UNL     1      21.713   3.939  49.976  1.00  0.00     0.031 A 
HETATM    8  C10 UNL     1      22.460   3.490  51.064  1.00  0.00    -0.001 A 
HETATM    9  C17 UNL     1      23.738   3.721  50.673  1.00  0.00     0.112 A 
ENDROOT
BRANCH   1  10
HETATM   10  N3  UNL     1      25.150   2.951  52.483  1.00  0.00    -0.339 N 
HETATM   11  H6  UNL     1      24.732   3.053  53.428  1.00  0.00     0.167 HD
BRANCH  10  12
HETATM   12  C5  UNL     1      26.104   1.896  52.727  1.00  0.00     0.034 A 
HETATM   13  C4  UNL     1      27.306   1.982  53.426  1.00  0.00     0.044 A 
HETATM   14  C3  UNL     1      28.164   0.930  53.596  1.00  0.00     0.013 A 
HETATM   15  C2  UNL     1      29.364   0.868  54.250  1.00  0.00     0.152 A 
HETATM   16  C20 UNL     1      27.867  -0.296  53.068  1.00  0.00     0.064 A 
HETATM   17  N2  UNL     1      29.799  -0.395  54.121  1.00  0.00    -0.184 NA
HETATM   18  N1  UNL     1      28.909  -1.072  53.423  1.00  0.00    -0.274 N 
HETATM   19  C1  UNL     1      29.039  -2.480  53.082  1.00  0.00     0.180 C 
HETATM   20  C19 UNL     1      26.683  -0.455  52.358  1.00  0.00     0.034 A 
HETATM   21  C18 UNL     1      25.834   0.638  52.205  1.00  0.00     0.032 A 
ENDBRANCH  10  12
ENDBRANCH   1  10
BRANCH   8  22
HETATM   22  C11 UNL     1      22.018   2.902  52.337  1.00  0.00     0.208 C 
BRANCH  22  23
HETATM   23  O1  UNL     1      21.208   1.773  52.191  1.00  0.00    -0.386 OA
BRANCH  23  24
HETATM   24  C12 UNL     1      21.949   0.715  51.744  1.00  0.00     0.174 C 
BRANCH  24  25
HETATM   25  C13 UNL     1      21.842  -0.509  52.624  1.00  0.00     0.039 C 
HETATM   26  C14 UNL     1      22.745  -0.404  53.842  1.00  0.00     0.038 C 
HETATM   27  C15 UNL     1      22.100  -1.475  54.712  1.00  0.00     0.270 C 
HETATM   28  N7  UNL     1      20.692  -1.180  54.583  1.00  0.00     0.083 N 
HETATM   29  C16 UNL     1      20.486  -0.617  53.279  1.00  0.00     0.276 C 
HETATM   30  H19 UNL     1      20.432  -0.534  55.362  1.00  0.00     0.315 HD
ENDBRANCH  24  25
ENDBRANCH  23  24
ENDBRANCH  22  23
ENDBRANCH   8  22
TORSDOF 6
ENDMDL
MODEL 5
REMARK VINA RESULT:      -7.7      1.728      5.345
REMARK  6 active torsions:
REMARK  status: ('A' for Active; 'I' for Inactive)
REMARK    1  A    between atoms: C5_7  and  N3_8 
REMARK    2  A    between atoms: N3_8  and  C6_9 
REMARK    3  A    between atoms: C10_16  and  C11_17 
REMARK    4  A    between atoms: C11_17  and  O1_18 
REMARK    5  A    between atoms: O1_18  and  C12_19 
REMARK    6  A    between atoms: C12_19  and  C13_20 
ROOT
HETATM    1  C6  UNL     1      22.848   0.855  52.084  1.00  0.00     0.159 A 
HETATM    2  N4  UNL     1      21.789   1.252  51.385  1.00  0.00    -0.220 NA
HETATM    3  C7  UNL     1      20.553   0.843  51.757  1.00  0.00     0.258 A 
HETATM    4  N5  UNL     1      20.479   0.056  52.816  1.00  0.00    -0.161 NA
HETATM    5  N6  UNL     1      21.529  -0.348  53.522  1.00  0.00    -0.240 N 
HETATM    6  C8  UNL     1      21.532  -1.136  54.591  1.00  0.00     0.119 A 
HETATM    7  C9  UNL     1      22.871  -1.233  54.921  1.00  0.00     0.031 A 
HETATM    8  C10 UNL     1      23.685  -0.503  54.056  1.00  0.00    -0.001 A 
HETATM    9  C17 UNL     1      22.796   0.039  53.186  1.00  0.00     0.112 A 
ENDROOT
BRANCH   1  10
HETATM   10  N3  UNL     1      24.100   1.322  51.599  1.00  0.00    -0.339 N 
HETATM   11  H6  UNL     1      25.038   0.925  51.397  1.00  0.00     0.167 HD
BRANCH  10  12
HETATM   12  C5  UNL     1      24.310   2.701  51.229  1.00  0.00     0.034 A 
HETATM   13  C4  UNL     1      25.176   3.198  50.258  1.00  0.00     0.044 A 
HETATM   14  C3  UNL     1      25.326   4.530  49.982  1.00  0.00     0.013 A 
HETATM   15  C2  UNL     1      26.129   5.156  49.068  1.00  0.00     0.152 A 
HETATM   16  C20 UNL     1      24.605   5.464  50.673  1.00  0.00     0.064 A 
HETATM   17  N2  UNL     1      25.898   6.471  49.202  1.00  0.00    -0.184 NA
HETATM   18  N1  UNL     1      24.998   6.641  50.150  1.00  0.00    -0.274 N 
HETATM   19  C1  UNL     1      24.495   7.938  50.575  1.00  0.00     0.180 C 
HETATM   20  C19 UNL     1      23.721   5.040  51.658  1.00  0.00     0.034 A 
HETATM   21  C18 UNL     1      23.594   3.676  51.911  1.00  0.00     0.032 A 
ENDBRANCH  10  12
ENDBRANCH   1  10
BRANCH   8  22
HETATM   22  C11 UNL     1      25.145  -0.336  54.048  1.00  0.00     0.208 C 
BRANCH  22  23
HETATM   23  O1  UNL     1      25.797  -1.075  53.058  1.00  0.00    -0.386 OA
BRANCH  23  24
HETATM   24  C12 UNL     1      26.851  -0.364  52.554  1.00  0.00     0.174 C 
BRANCH  24  25
HETATM   25  C13 UNL     1      27.439   0.618  53.541  1.00  0.00     0.039 C 
HETATM   26  C14 UNL     1      28.846   0.218  53.958  1.00  0.00     0.038 C 
HETATM   27  C15 UNL     1      29.315   1.551  54.526  1.00  0.00     0.270 C 
HETATM   28  N7  UNL     1      28.887   2.492  53.517  1.00  0.00     0.083 N 
HETATM   29  C16 UNL     1      27.697   1.965  52.911  1.00  0.00     0.276 C 
HETATM   30  H19 UNL     1      29.677   2.615  52.845  1.00  0.00     0.315 HD
ENDBRANCH  24  25
ENDBRANCH  23  24
ENDBRANCH  22  23
ENDBRANCH   8  22
TORSDOF 6
ENDMDL
MODEL 6
REMARK VINA RESULT:      -7.4      2.358      3.680
REMARK  6 active torsions:
REMARK  status: ('A' for Active; 'I' for Inactive)
REMARK    1  A    between atoms: C5_7  and  N3_8 
REMARK    2  A    between atoms: N3_8  and  C6_9 
REMARK    3  A    between atoms: C10_16  and  C11_17 
REMARK    4  A    between atoms: C11_17  and  O1_18 
REMARK    5  A    between atoms: O1_18  and  C12_19 
REMARK    6  A    between atoms: C12_19  and  C13_20 
ROOT
HETATM    1  C6  UNL     1      24.945   0.505  52.863  1.00  0.00     0.159 A 
HETATM    2  N4  UNL     1      26.234   0.774  53.043  1.00  0.00    -0.220 NA
HETATM    3  C7  UNL     1      26.856   0.335  54.163  1.00  0.00     0.258 A 
HETATM    4  N5  UNL     1      26.122  -0.348  55.024  1.00  0.00    -0.161 NA
HETATM    5  N6  UNL     1      24.834  -0.623  54.854  1.00  0.00    -0.240 N 
HETATM    6  C8  UNL     1      24.035  -1.300  55.673  1.00  0.00     0.119 A 
HETATM    7  C9  UNL     1      22.816  -1.289  55.022  1.00  0.00     0.031 A 
HETATM    8  C10 UNL     1      22.870  -0.608  53.806  1.00  0.00    -0.001 A 
HETATM    9  C17 UNL     1      24.162  -0.203  53.740  1.00  0.00     0.112 A 
ENDROOT
BRANCH   1  10
HETATM   10  N3  UNL     1      24.381   1.028  51.666  1.00  0.00    -0.339 N 
HETATM   11  H6  UNL     1      23.707   0.718  50.939  1.00  0.00     0.167 HD
BRANCH  10  12
HETATM   12  C5  UNL     1      24.718   2.342  51.174  1.00  0.00     0.034 A 
HETATM   13  C4  UNL     1      25.732   2.682  50.283  1.00  0.00     0.044 A 
HETATM   14  C3  UNL     1      25.994   3.964  49.881  1.00  0.00     0.013 A 
HETATM   15  C2  UNL     1      26.945   4.441  49.021  1.00  0.00     0.152 A 
HETATM   16  C20 UNL     1      25.243   5.003  50.355  1.00  0.00     0.064 A 
HETATM   17  N2  UNL     1      26.775   5.771  48.972  1.00  0.00    -0.184 NA
HETATM   18  N1  UNL     1      25.769   6.091  49.761  1.00  0.00    -0.274 N 
HETATM   19  C1  UNL     1      25.290   7.450  49.962  1.00  0.00     0.180 C 
HETATM   20  C19 UNL     1      24.213   4.738  51.249  1.00  0.00     0.034 A 
HETATM   21  C18 UNL     1      23.976   3.421  51.636  1.00  0.00     0.032 A 
ENDBRANCH  10  12
ENDBRANCH   1  10
BRANCH   8  22
HETATM   22  C11 UNL     1      21.815  -0.363  52.812  1.00  0.00     0.208 C 
BRANCH  22  23
HETATM   23  O1  UNL     1      21.530   0.989  52.606  1.00  0.00    -0.386 OA
BRANCH  23  24
HETATM   24  C12 UNL     1      20.478   1.124  51.743  1.00  0.00     0.174 C 
BRANCH  24  25
HETATM   25  C13 UNL     1      20.836   1.851  50.467  1.00  0.00     0.039 C 
HETATM   26  C14 UNL     1      21.541   0.935  49.480  1.00  0.00     0.038 C 
HETATM   27  C15 UNL     1      21.349   1.755  48.211  1.00  0.00     0.270 C 
HETATM   28  N7  UNL     1      19.955   2.128  48.287  1.00  0.00     0.083 N 
HETATM   29  C16 UNL     1      19.611   2.239  49.675  1.00  0.00     0.276 C 
HETATM   30  H19 UNL     1      19.406   1.400  47.777  1.00  0.00     0.315 HD
ENDBRANCH  24  25
ENDBRANCH  23  24
ENDBRANCH  22  23
ENDBRANCH   8  22
TORSDOF 6
ENDMDL
MODEL 7
REMARK VINA RESULT:      -7.3      2.423      6.004
REMARK  6 active torsions:
REMARK  status: ('A' for Active; 'I' for Inactive)
REMARK    1  A    between atoms: C5_7  and  N3_8 
REMARK    2  A    between atoms: N3_8  and  C6_9 
REMARK    3  A    between atoms: C10_16  and  C11_17 
REMARK    4  A    between atoms: C11_17  and  O1_18 
REMARK    5  A    between atoms: O1_18  and  C12_19 
REMARK    6  A    between atoms: C12_19  and  C13_20 
ROOT
HETATM    1  C6  UNL     1      21.880   4.010  51.754  1.00  0.00     0.159 A 
HETATM    2  N4  UNL     1      20.883   4.691  51.200  1.00  0.00    -0.220 NA
HETATM    3  C7  UNL     1      19.816   4.023  50.700  1.00  0.00     0.258 A 
HETATM    4  N5  UNL     1      19.839   2.705  50.797  1.00  0.00    -0.161 NA
HETATM    5  N6  UNL     1      20.830   2.014  51.349  1.00  0.00    -0.240 N 
HETATM    6  C8  UNL     1      20.922   0.695  51.481  1.00  0.00     0.119 A 
HETATM    7  C9  UNL     1      22.139   0.515  52.113  1.00  0.00     0.031 A 
HETATM    8  C10 UNL     1      22.788   1.722  52.369  1.00  0.00    -0.001 A 
HETATM    9  C17 UNL     1      21.926   2.643  51.868  1.00  0.00     0.112 A 
ENDROOT
BRANCH   1  10
HETATM   10  N3  UNL     1      22.961   4.803  52.229  1.00  0.00    -0.339 N 
HETATM   11  H6  UNL     1      23.283   5.191  53.137  1.00  0.00     0.167 HD
BRANCH  10  12
HETATM   12  C5  UNL     1      23.997   5.288  51.350  1.00  0.00     0.034 A 
HETATM   13  C4  UNL     1      24.909   4.535  50.615  1.00  0.00     0.044 A 
HETATM   14  C3  UNL     1      25.876   5.081  49.815  1.00  0.00     0.013 A 
HETATM   15  C2  UNL     1      26.830   4.473  49.044  1.00  0.00     0.152 A 
HETATM   16  C20 UNL     1      25.991   6.438  49.698  1.00  0.00     0.064 A 
HETATM   17  N2  UNL     1      27.526   5.459  48.459  1.00  0.00    -0.184 NA
HETATM   18  N1  UNL     1      27.023   6.612  48.850  1.00  0.00    -0.274 N 
HETATM   19  C1  UNL     1      27.521   7.909  48.418  1.00  0.00     0.180 C 
HETATM   20  C19 UNL     1      25.113   7.252  50.403  1.00  0.00     0.034 A 
HETATM   21  C18 UNL     1      24.141   6.661  51.208  1.00  0.00     0.032 A 
ENDBRANCH  10  12
ENDBRANCH   1  10
BRANCH   8  22
HETATM   22  C11 UNL     1      24.083   1.981  53.013  1.00  0.00     0.208 C 
BRANCH  22  23
HETATM   23  O1  UNL     1      24.888   0.848  53.149  1.00  0.00    -0.386 OA
BRANCH  23  24
HETATM   24  C12 UNL     1      25.866   0.845  52.194  1.00  0.00     0.174 C 
BRANCH  24  25
HETATM   25  C13 UNL     1      27.263   0.765  52.764  1.00  0.00     0.039 C 
HETATM   26  C14 UNL     1      27.830   2.146  53.053  1.00  0.00     0.038 C 
HETATM   27  C15 UNL     1      28.958   1.749  53.997  1.00  0.00     0.270 C 
HETATM   28  N7  UNL     1      28.309   0.817  54.888  1.00  0.00     0.083 N 
HETATM   29  C16 UNL     1      27.276   0.154  54.144  1.00  0.00     0.276 C 
HETATM   30  H19 UNL     1      27.951   1.359  55.706  1.00  0.00     0.315 HD
ENDBRANCH  24  25
ENDBRANCH  23  24
ENDBRANCH  22  23
ENDBRANCH   8  22
TORSDOF 6
ENDMDL
MODEL 8
REMARK VINA RESULT:      -7.3      2.682      6.127
REMARK  6 active torsions:
REMARK  status: ('A' for Active; 'I' for Inactive)
REMARK    1  A    between atoms: C5_7  and  N3_8 
REMARK    2  A    between atoms: N3_8  and  C6_9 
REMARK    3  A    between atoms: C10_16  and  C11_17 
REMARK    4  A    between atoms: C11_17  and  O1_18 
REMARK    5  A    between atoms: O1_18  and  C12_19 
REMARK    6  A    between atoms: C12_19  and  C13_20 
ROOT
HETATM    1  C6  UNL     1      24.798   5.704  50.809  1.00  0.00     0.159 A 
HETATM    2  N4  UNL     1      24.193   6.870  51.007  1.00  0.00    -0.220 NA
HETATM    3  C7  UNL     1      24.578   7.951  50.288  1.00  0.00     0.258 A 
HETATM    4  N5  UNL     1      25.555   7.771  49.416  1.00  0.00    -0.161 NA
HETATM    5  N6  UNL     1      26.167   6.610  49.210  1.00  0.00    -0.240 N 
HETATM    6  C8  UNL     1      27.152   6.355  48.356  1.00  0.00     0.119 A 
HETATM    7  C9  UNL     1      27.410   5.010  48.549  1.00  0.00     0.031 A 
HETATM    8  C10 UNL     1      26.581   4.444  49.517  1.00  0.00    -0.001 A 
HETATM    9  C17 UNL     1      25.813   5.491  49.910  1.00  0.00     0.112 A 
ENDROOT
BRANCH   1  10
HETATM   10  N3  UNL     1      24.334   4.638  51.627  1.00  0.00    -0.339 N 
HETATM   11  H6  UNL     1      24.609   4.183  52.520  1.00  0.00     0.167 HD
BRANCH  10  12
HETATM   12  C5  UNL     1      23.166   3.863  51.284  1.00  0.00     0.034 A 
HETATM   13  C4  UNL     1      22.217   4.145  50.304  1.00  0.00     0.044 A 
HETATM   14  C3  UNL     1      21.124   3.360  50.056  1.00  0.00     0.013 A 
HETATM   15  C2  UNL     1      20.121   3.510  49.137  1.00  0.00     0.152 A 
HETATM   16  C20 UNL     1      20.908   2.225  50.787  1.00  0.00     0.064 A 
HETATM   17  N2  UNL     1      19.294   2.468  49.307  1.00  0.00    -0.184 NA
HETATM   18  N1  UNL     1      19.768   1.717  50.282  1.00  0.00    -0.274 N 
HETATM   19  C1  UNL     1      19.136   0.493  50.749  1.00  0.00     0.180 C 
HETATM   20  C19 UNL     1      21.814   1.882  51.783  1.00  0.00     0.034 A 
HETATM   21  C18 UNL     1      22.916   2.705  52.007  1.00  0.00     0.032 A 
ENDBRANCH  10  12
ENDBRANCH   1  10
BRANCH   8  22
HETATM   22  C11 UNL     1      26.522   3.065  50.022  1.00  0.00     0.208 C 
BRANCH  22  23
HETATM   23  O1  UNL     1      27.152   2.882  51.255  1.00  0.00    -0.386 OA
BRANCH  23  24
HETATM   24  C12 UNL     1      26.685   1.749  51.861  1.00  0.00     0.174 C 
BRANCH  24  25
HETATM   25  C13 UNL     1      27.266   1.520  53.237  1.00  0.00     0.039 C 
HETATM   26  C14 UNL     1      28.014   0.198  53.315  1.00  0.00     0.038 C 
HETATM   27  C15 UNL     1      28.833   0.460  54.572  1.00  0.00     0.270 C 
HETATM   28  N7  UNL     1      29.342   1.792  54.344  1.00  0.00     0.083 N 
HETATM   29  C16 UNL     1      28.373   2.496  53.552  1.00  0.00     0.276 C 
HETATM   30  H19 UNL     1      30.273   1.699  53.880  1.00  0.00     0.315 HD
ENDBRANCH  24  25
ENDBRANCH  23  24
ENDBRANCH  22  23
ENDBRANCH   8  22
TORSDOF 6
ENDMDL
MODEL 9
REMARK VINA RESULT:      -7.2      2.595      7.450
REMARK  6 active torsions:
REMARK  status: ('A' for Active; 'I' for Inactive)
REMARK    1  A    between atoms: C5_7  and  N3_8 
REMARK    2  A    between atoms: N3_8  and  C6_9 
REMARK    3  A    between atoms: C10_16  and  C11_17 
REMARK    4  A    between atoms: C11_17  and  O1_18 
REMARK    5  A    between atoms: O1_18  and  C12_19 
REMARK    6  A    between atoms: C12_19  and  C13_20 
ROOT
HETATM    1  C6  UNL     1      23.157   2.280  52.655  1.00  0.00     0.159 A 
HETATM    2  N4  UNL     1      22.892   1.154  53.311  1.00  0.00    -0.220 NA
HETATM    3  C7  UNL     1      21.605   0.776  53.492  1.00  0.00     0.258 A 
HETATM    4  N5  UNL     1      20.674   1.570  52.994  1.00  0.00    -0.161 NA
HETATM    5  N6  UNL     1      20.926   2.697  52.337  1.00  0.00    -0.240 N 
HETATM    6  C8  UNL     1      20.046   3.543  51.812  1.00  0.00     0.119 A 
HETATM    7  C9  UNL     1      20.837   4.531  51.255  1.00  0.00     0.031 A 
HETATM    8  C10 UNL     1      22.198   4.288  51.438  1.00  0.00    -0.001 A 
HETATM    9  C17 UNL     1      22.209   3.120  52.128  1.00  0.00     0.112 A 
ENDROOT
BRANCH   1  10
HETATM   10  N3  UNL     1      24.538   2.598  52.537  1.00  0.00    -0.339 N 
HETATM   11  H6  UNL     1      25.113   3.427  52.290  1.00  0.00     0.167 HD
BRANCH  10  12
HETATM   12  C5  UNL     1      25.571   1.627  52.804  1.00  0.00     0.034 A 
HETATM   13  C4  UNL     1      26.506   1.642  53.836  1.00  0.00     0.044 A 
HETATM   14  C3  UNL     1      27.469   0.684  54.005  1.00  0.00     0.013 A 
HETATM   15  C2  UNL     1      28.441   0.570  54.961  1.00  0.00     0.152 A 
HETATM   16  C20 UNL     1      27.556  -0.368  53.136  1.00  0.00     0.064 A 
HETATM   17  N2  UNL     1      29.122  -0.549  54.674  1.00  0.00    -0.184 NA
HETATM   18  N1  UNL     1      28.591  -1.095  53.598  1.00  0.00    -0.274 N 
HETATM   19  C1  UNL     1      29.066  -2.327  52.988  1.00  0.00     0.180 C 
HETATM   20  C19 UNL     1      26.654  -0.448  52.081  1.00  0.00     0.034 A 
HETATM   21  C18 UNL     1      25.688   0.546  51.941  1.00  0.00     0.032 A 
ENDBRANCH  10  12
ENDBRANCH   1  10
BRANCH   8  22
HETATM   22  C11 UNL     1      23.364   5.075  51.013  1.00  0.00     0.208 C 
BRANCH  22  23
HETATM   23  O1  UNL     1      24.020   4.560  49.892  1.00  0.00    -0.386 OA
BRANCH  23  24
HETATM   24  C12 UNL     1      25.374   4.591  50.081  1.00  0.00     0.174 C 
BRANCH  24  25
HETATM   25  C13 UNL     1      26.108   5.402  49.038  1.00  0.00     0.039 C 
HETATM   26  C14 UNL     1      26.329   6.834  49.497  1.00  0.00     0.038 C 
HETATM   27  C15 UNL     1      27.430   7.231  48.523  1.00  0.00     0.270 C 
HETATM   28  N7  UNL     1      28.325   6.098  48.581  1.00  0.00     0.083 N 
HETATM   29  C16 UNL     1      27.532   4.934  48.858  1.00  0.00     0.276 C 
HETATM   30  H19 UNL     1      29.041   6.299  49.315  1.00  0.00     0.315 HD
ENDBRANCH  24  25
ENDBRANCH  23  24
ENDBRANCH  22  23
ENDBRANCH   8  22
TORSDOF 6
ENDMDL
