MODEL 1
REMARK VINA RESULT:      -7.7      0.000      0.000
REMARK  4 active torsions:
REMARK  status: ('A' for Active; 'I' for Inactive)
REMARK    1  A    between atoms: O1_2  and  C2_3 
REMARK    2  A    between atoms: C7_8  and  C8_9 
REMARK    3  A    between atoms: C8_9  and  N1_10 
REMARK    4  A    between atoms: N1_10  and  C9_11 
ROOT
HETATM    1  N1  UNL     1      25.663   2.730  52.550  1.00  0.00    -0.386 N 
HETATM    2  H10 UNL     1      26.058   3.459  51.880  1.00  0.00     0.160 HD
ENDROOT
BRANCH   1   3
HETATM    3  C8  UNL     1      24.356   2.876  53.097  1.00  0.00     0.161 C 
BRANCH   3   4
HETATM    4  C7  UNL     1      23.361   1.971  52.462  1.00  0.00    -0.007 A 
HETATM    5  C2  UNL     1      22.919   2.283  51.170  1.00  0.00     0.076 A 
HETATM    6  C3  UNL     1      21.996   1.489  50.515  1.00  0.00     0.037 A 
HETATM    7  C4  UNL     1      21.501   0.367  51.150  1.00  0.00     0.003 A 
HETATM    8  C5  UNL     1      21.913   0.023  52.432  1.00  0.00     0.001 A 
HETATM    9  C6  UNL     1      22.840   0.844  53.053  1.00  0.00     0.011 A 
BRANCH   5  10
HETATM   10  O1  UNL     1      23.437   3.417  50.561  1.00  0.00    -0.355 OA
HETATM   11  C1  UNL     1      24.060   3.299  49.298  1.00  0.00     0.210 C 
ENDBRANCH   5  10
ENDBRANCH   3   4
ENDBRANCH   1   3
BRANCH   1  12
HETATM   12  C9  UNL     1      26.573   1.678  52.789  1.00  0.00     0.025 A 
HETATM   13  C10 UNL     1      27.744   2.083  53.306  1.00  0.00     0.008 A 
HETATM   14  C11 UNL     1      28.934   1.275  53.688  1.00  0.00     0.089 A 
HETATM   15  C12 UNL     1      28.621  -0.142  53.380  1.00  0.00     0.047 A 
HETATM   16  N2  UNL     1      29.584  -0.989  53.643  1.00  0.00    -0.246 NA
HETATM   17  C15 UNL     1      27.367  -0.632  52.822  1.00  0.00    -0.011 A 
HETATM   18  C13 UNL     1      29.261  -2.361  53.339  1.00  0.00     0.227 A 
HETATM   19  N3  UNL     1      28.174  -2.900  52.846  1.00  0.00    -0.278 NA
HETATM   20  C14 UNL     1      27.038  -2.024  52.520  1.00  0.00     0.191 A 
HETATM   21  C16 UNL     1      26.420   0.250  52.552  1.00  0.00     0.039 A 
ENDBRANCH   1  12
TORSDOF 4
ENDMDL
MODEL 2
REMARK VINA RESULT:      -7.7      2.155      3.734
REMARK  4 active torsions:
REMARK  status: ('A' for Active; 'I' for Inactive)
REMARK    1  A    between atoms: O1_2  and  C2_3 
REMARK    2  A    between atoms: C7_8  and  C8_9 
REMARK    3  A    between atoms: C8_9  and  N1_10 
REMARK    4  A    between atoms: N1_10  and  C9_11 
ROOT
HETATM    1  N1  UNL     1      25.707   2.786  52.178  1.00  0.00    -0.386 N 
HETATM    2  H10 UNL     1      25.534   3.430  53.009  1.00  0.00     0.160 HD
ENDROOT
BRANCH   1   3
HETATM    3  C8  UNL     1      25.088   3.039  50.920  1.00  0.00     0.161 C 
BRANCH   3   4
HETATM    4  C7  UNL     1      25.800   4.076  50.125  1.00  0.00    -0.007 A 
HETATM    5  C2  UNL     1      25.313   5.388  50.172  1.00  0.00     0.076 A 
HETATM    6  C3  UNL     1      25.921   6.406  49.460  1.00  0.00     0.037 A 
HETATM    7  C4  UNL     1      27.031   6.120  48.690  1.00  0.00     0.003 A 
HETATM    8  C5  UNL     1      27.546   4.830  48.617  1.00  0.00     0.001 A 
HETATM    9  C6  UNL     1      26.908   3.840  49.345  1.00  0.00     0.011 A 
BRANCH   5  10
HETATM   10  O1  UNL     1      24.197   5.642  50.956  1.00  0.00    -0.355 OA
HETATM   11  C1  UNL     1      23.619   6.931  50.939  1.00  0.00     0.210 C 
ENDBRANCH   5  10
ENDBRANCH   3   4
ENDBRANCH   1   3
BRANCH   1  12
HETATM   12  C9  UNL     1      26.578   1.724  52.499  1.00  0.00     0.025 A 
HETATM   13  C10 UNL     1      27.741   2.122  53.037  1.00  0.00     0.008 A 
HETATM   14  C11 UNL     1      28.895   1.303  53.499  1.00  0.00     0.089 A 
HETATM   15  C12 UNL     1      28.554  -0.119  53.246  1.00  0.00     0.047 A 
HETATM   16  N2  UNL     1      29.483  -0.977  53.584  1.00  0.00    -0.246 NA
HETATM   17  C15 UNL     1      27.306  -0.602  52.669  1.00  0.00    -0.011 A 
HETATM   18  C13 UNL     1      29.133  -2.353  53.333  1.00  0.00     0.227 A 
HETATM   19  N3  UNL     1      28.048  -2.886  52.828  1.00  0.00    -0.278 NA
HETATM   20  C14 UNL     1      26.949  -1.998  52.421  1.00  0.00     0.191 A 
HETATM   21  C16 UNL     1      26.394   0.290  52.324  1.00  0.00     0.039 A 
ENDBRANCH   1  12
TORSDOF 4
ENDMDL
MODEL 3
REMARK VINA RESULT:      -7.6      1.099      2.038
REMARK  4 active torsions:
REMARK  status: ('A' for Active; 'I' for Inactive)
REMARK    1  A    between atoms: O1_2  and  C2_3 
REMARK    2  A    between atoms: C7_8  and  C8_9 
REMARK    3  A    between atoms: C8_9  and  N1_10 
REMARK    4  A    between atoms: N1_10  and  C9_11 
ROOT
HETATM    1  N1  UNL     1      25.680   2.765  52.729  1.00  0.00    -0.386 N 
HETATM    2  H10 UNL     1      26.148   3.619  52.295  1.00  0.00     0.160 HD
ENDROOT
BRANCH   1   3
HETATM    3  C8  UNL     1      24.293   2.783  53.054  1.00  0.00     0.161 C 
BRANCH   3   4
HETATM    4  C7  UNL     1      23.441   2.224  51.971  1.00  0.00    -0.007 A 
HETATM    5  C2  UNL     1      22.600   1.148  52.286  1.00  0.00     0.076 A 
HETATM    6  C3  UNL     1      21.779   0.574  51.333  1.00  0.00     0.037 A 
HETATM    7  C4  UNL     1      21.790   1.074  50.046  1.00  0.00     0.003 A 
HETATM    8  C5  UNL     1      22.609   2.140  49.692  1.00  0.00     0.001 A 
HETATM    9  C6  UNL     1      23.416   2.686  50.676  1.00  0.00     0.011 A 
BRANCH   5  10
HETATM   10  O1  UNL     1      22.614   0.671  53.589  1.00  0.00    -0.355 OA
HETATM   11  C1  UNL     1      22.996  -0.668  53.830  1.00  0.00     0.210 C 
ENDBRANCH   5  10
ENDBRANCH   3   4
ENDBRANCH   1   3
BRANCH   1  12
HETATM   12  C9  UNL     1      26.584   1.699  52.917  1.00  0.00     0.025 A 
HETATM   13  C10 UNL     1      27.778   2.080  53.398  1.00  0.00     0.008 A 
HETATM   14  C11 UNL     1      28.971   1.251  53.723  1.00  0.00     0.089 A 
HETATM   15  C12 UNL     1      28.629  -0.156  53.401  1.00  0.00     0.047 A 
HETATM   16  N2  UNL     1      29.591  -1.019  53.615  1.00  0.00    -0.246 NA
HETATM   17  C15 UNL     1      27.349  -0.620  52.881  1.00  0.00    -0.011 A 
HETATM   18  C13 UNL     1      29.239  -2.381  53.299  1.00  0.00     0.227 A 
HETATM   19  N3  UNL     1      28.128  -2.898  52.836  1.00  0.00    -0.278 NA
HETATM   20  C14 UNL     1      26.993  -2.003  52.567  1.00  0.00     0.191 A 
HETATM   21  C16 UNL     1      26.405   0.277  52.661  1.00  0.00     0.039 A 
ENDBRANCH   1  12
TORSDOF 4
ENDMDL
MODEL 4
REMARK VINA RESULT:      -7.3      1.678      2.332
REMARK  4 active torsions:
REMARK  status: ('A' for Active; 'I' for Inactive)
REMARK    1  A    between atoms: O1_2  and  C2_3 
REMARK    2  A    between atoms: C7_8  and  C8_9 
REMARK    3  A    between atoms: C8_9  and  N1_10 
REMARK    4  A    between atoms: N1_10  and  C9_11 
ROOT
HETATM    1  N1  UNL     1      24.270   1.389  51.917  1.00  0.00    -0.386 N 
HETATM    2  H10 UNL     1      24.181   1.335  50.856  1.00  0.00     0.160 HD
ENDROOT
BRANCH   1   3
HETATM    3  C8  UNL     1      23.183   1.842  52.717  1.00  0.00     0.161 C 
BRANCH   3   4
HETATM    4  C7  UNL     1      22.335   0.729  53.222  1.00  0.00    -0.007 A 
HETATM    5  C2  UNL     1      21.033   0.615  52.719  1.00  0.00     0.076 A 
HETATM    6  C3  UNL     1      20.185  -0.393  53.140  1.00  0.00     0.037 A 
HETATM    7  C4  UNL     1      20.635  -1.304  54.074  1.00  0.00     0.003 A 
HETATM    8  C5  UNL     1      21.920  -1.226  54.599  1.00  0.00     0.001 A 
HETATM    9  C6  UNL     1      22.737  -0.202  54.150  1.00  0.00     0.011 A 
BRANCH   5  10
HETATM   10  O1  UNL     1      20.613   1.547  51.780  1.00  0.00    -0.355 OA
HETATM   11  C1  UNL     1      19.480   2.344  52.058  1.00  0.00     0.210 C 
ENDBRANCH   5  10
ENDBRANCH   3   4
ENDBRANCH   1   3
BRANCH   1  12
HETATM   12  C9  UNL     1      25.541   0.972  52.366  1.00  0.00     0.025 A 
HETATM   13  C10 UNL     1      26.324   1.977  52.786  1.00  0.00     0.008 A 
HETATM   14  C11 UNL     1      27.711   1.931  53.324  1.00  0.00     0.089 A 
HETATM   15  C12 UNL     1      28.138   0.510  53.314  1.00  0.00     0.047 A 
HETATM   16  N2  UNL     1      29.357   0.299  53.744  1.00  0.00    -0.246 NA
HETATM   17  C15 UNL     1      27.327  -0.617  52.872  1.00  0.00    -0.011 A 
HETATM   18  C13 UNL     1      29.753  -1.088  53.730  1.00  0.00     0.227 A 
HETATM   19  N3  UNL     1      29.105  -2.164  53.361  1.00  0.00    -0.278 NA
HETATM   20  C14 UNL     1      27.728  -2.023  52.864  1.00  0.00     0.191 A 
HETATM   21  C16 UNL     1      26.107  -0.369  52.428  1.00  0.00     0.039 A 
ENDBRANCH   1  12
TORSDOF 4
ENDMDL
MODEL 5
REMARK VINA RESULT:      -7.2      3.296      5.416
REMARK  4 active torsions:
REMARK  status: ('A' for Active; 'I' for Inactive)
REMARK    1  A    between atoms: O1_2  and  C2_3 
REMARK    2  A    between atoms: C7_8  and  C8_9 
REMARK    3  A    between atoms: C8_9  and  N1_10 
REMARK    4  A    between atoms: N1_10  and  C9_11 
ROOT
HETATM    1  N1  UNL     1      26.480   3.601  50.869  1.00  0.00    -0.386 N 
HETATM    2  H10 UNL     1      26.754   4.466  51.429  1.00  0.00     0.160 HD
ENDROOT
BRANCH   1   3
HETATM    3  C8  UNL     1      26.629   3.574  49.453  1.00  0.00     0.161 C 
BRANCH   3   4
HETATM    4  C7  UNL     1      27.053   4.886  48.893  1.00  0.00    -0.007 A 
HETATM    5  C2  UNL     1      26.113   5.925  48.873  1.00  0.00     0.076 A 
HETATM    6  C3  UNL     1      26.432   7.172  48.368  1.00  0.00     0.037 A 
HETATM    7  C4  UNL     1      27.703   7.395  47.876  1.00  0.00     0.003 A 
HETATM    8  C5  UNL     1      28.664   6.390  47.878  1.00  0.00     0.001 A 
HETATM    9  C6  UNL     1      28.304   5.156  48.392  1.00  0.00     0.011 A 
BRANCH   5  10
HETATM   10  O1  UNL     1      24.846   5.668  49.376  1.00  0.00    -0.355 OA
HETATM   11  C1  UNL     1      24.341   6.474  50.420  1.00  0.00     0.210 C 
ENDBRANCH   5  10
ENDBRANCH   3   4
ENDBRANCH   1   3
BRANCH   1  12
HETATM   12  C9  UNL     1      25.984   2.569  51.692  1.00  0.00     0.025 A 
HETATM   13  C10 UNL     1      24.746   2.165  51.367  1.00  0.00     0.008 A 
HETATM   14  C11 UNL     1      23.902   1.112  51.996  1.00  0.00     0.089 A 
HETATM   15  C12 UNL     1      24.679   0.542  53.124  1.00  0.00     0.047 A 
HETATM   16  N2  UNL     1      24.063  -0.395  53.800  1.00  0.00    -0.246 NA
HETATM   17  C15 UNL     1      26.025   0.942  53.515  1.00  0.00    -0.011 A 
HETATM   18  C13 UNL     1      24.834  -0.938  54.891  1.00  0.00     0.227 A 
HETATM   19  N3  UNL     1      26.040  -0.654  55.317  1.00  0.00    -0.278 NA
HETATM   20  C14 UNL     1      26.808   0.386  54.617  1.00  0.00     0.191 A 
HETATM   21  C16 UNL     1      26.614   1.902  52.823  1.00  0.00     0.039 A 
ENDBRANCH   1  12
TORSDOF 4
ENDMDL
MODEL 6
REMARK VINA RESULT:      -7.2      2.455      4.562
REMARK  4 active torsions:
REMARK  status: ('A' for Active; 'I' for Inactive)
REMARK    1  A    between atoms: O1_2  and  C2_3 
REMARK    2  A    between atoms: C7_8  and  C8_9 
REMARK    3  A    between atoms: C8_9  and  N1_10 
REMARK    4  A    between atoms: N1_10  and  C9_11 
ROOT
HETATM    1  N1  UNL     1      24.461   3.071  51.119  1.00  0.00    -0.386 N 
HETATM    2  H10 UNL     1      23.684   3.593  51.629  1.00  0.00     0.160 HD
ENDROOT
BRANCH   1   3
HETATM    3  C8  UNL     1      24.604   3.179  49.706  1.00  0.00     0.161 C 
BRANCH   3   4
HETATM    4  C7  UNL     1      25.572   4.235  49.303  1.00  0.00    -0.007 A 
HETATM    5  C2  UNL     1      25.099   5.548  49.185  1.00  0.00     0.076 A 
HETATM    6  C3  UNL     1      25.938   6.583  48.816  1.00  0.00     0.037 A 
HETATM    7  C4  UNL     1      27.268   6.314  48.558  1.00  0.00     0.003 A 
HETATM    8  C5  UNL     1      27.776   5.024  48.663  1.00  0.00     0.001 A 
HETATM    9  C6  UNL     1      26.903   4.016  49.037  1.00  0.00     0.011 A 
BRANCH   5  10
HETATM   10  O1  UNL     1      23.758   5.784  49.452  1.00  0.00    -0.355 OA
HETATM   11  C1  UNL     1      23.406   6.639  50.520  1.00  0.00     0.210 C 
ENDBRANCH   5  10
ENDBRANCH   3   4
ENDBRANCH   1   3
BRANCH   1  12
HETATM   12  C9  UNL     1      25.262   2.314  52.000  1.00  0.00     0.025 A 
HETATM   13  C10 UNL     1      24.664   1.202  52.454  1.00  0.00     0.008 A 
HETATM   14  C11 UNL     1      25.186   0.165  53.386  1.00  0.00     0.089 A 
HETATM   15  C12 UNL     1      26.556   0.577  53.780  1.00  0.00     0.047 A 
HETATM   16  N2  UNL     1      27.153  -0.228  54.622  1.00  0.00    -0.246 NA
HETATM   17  C15 UNL     1      27.249   1.771  53.313  1.00  0.00    -0.011 A 
HETATM   18  C13 UNL     1      28.484   0.188  54.991  1.00  0.00     0.227 A 
HETATM   19  N3  UNL     1      29.191   1.228  54.628  1.00  0.00    -0.278 NA
HETATM   20  C14 UNL     1      28.601   2.188  53.682  1.00  0.00     0.191 A 
HETATM   21  C16 UNL     1      26.614   2.573  52.475  1.00  0.00     0.039 A 
ENDBRANCH   1  12
TORSDOF 4
ENDMDL
MODEL 7
REMARK VINA RESULT:      -7.0      2.733      7.090
REMARK  4 active torsions:
REMARK  status: ('A' for Active; 'I' for Inactive)
REMARK    1  A    between atoms: O1_2  and  C2_3 
REMARK    2  A    between atoms: C7_8  and  C8_9 
REMARK    3  A    between atoms: C8_9  and  N1_10 
REMARK    4  A    between atoms: N1_10  and  C9_11 
ROOT
HETATM    1  N1  UNL     1      24.666  -0.022  53.219  1.00  0.00    -0.386 N 
HETATM    2  H10 UNL     1      24.598  -1.026  52.866  1.00  0.00     0.160 HD
ENDROOT
BRANCH   1   3
HETATM    3  C8  UNL     1      25.857   0.451  53.842  1.00  0.00     0.161 C 
BRANCH   3   4
HETATM    4  C7  UNL     1      27.026  -0.436  53.598  1.00  0.00    -0.007 A 
HETATM    5  C2  UNL     1      28.291   0.022  53.990  1.00  0.00     0.076 A 
HETATM    6  C3  UNL     1      29.425  -0.745  53.797  1.00  0.00     0.037 A 
HETATM    7  C4  UNL     1      29.305  -1.987  53.205  1.00  0.00     0.003 A 
HETATM    8  C5  UNL     1      28.069  -2.478  52.801  1.00  0.00     0.001 A 
HETATM    9  C6  UNL     1      26.958  -1.679  53.014  1.00  0.00     0.011 A 
BRANCH   5  10
HETATM   10  O1  UNL     1      28.375   1.274  54.582  1.00  0.00    -0.355 OA
HETATM   11  C1  UNL     1      28.767   2.383  53.799  1.00  0.00     0.210 C 
ENDBRANCH   5  10
ENDBRANCH   3   4
ENDBRANCH   1   3
BRANCH   1  12
HETATM   12  C9  UNL     1      23.480   0.705  52.989  1.00  0.00     0.025 A 
HETATM   13  C10 UNL     1      22.394   0.165  53.563  1.00  0.00     0.008 A 
HETATM   14  C11 UNL     1      20.983   0.640  53.545  1.00  0.00     0.089 A 
HETATM   15  C12 UNL     1      20.947   1.878  52.729  1.00  0.00     0.047 A 
HETATM   16  N2  UNL     1      19.761   2.417  52.597  1.00  0.00    -0.246 NA
HETATM   17  C15 UNL     1      22.096   2.506  52.088  1.00  0.00    -0.011 A 
HETATM   18  C13 UNL     1      19.746   3.621  51.803  1.00  0.00     0.227 A 
HETATM   19  N3  UNL     1      20.713   4.262  51.195  1.00  0.00    -0.278 NA
HETATM   20  C14 UNL     1      22.081   3.730  51.289  1.00  0.00     0.191 A 
HETATM   21  C16 UNL     1      23.278   1.929  52.226  1.00  0.00     0.039 A 
ENDBRANCH   1  12
TORSDOF 4
ENDMDL
MODEL 8
REMARK VINA RESULT:      -6.9      3.035      6.838
REMARK  4 active torsions:
REMARK  status: ('A' for Active; 'I' for Inactive)
REMARK    1  A    between atoms: O1_2  and  C2_3 
REMARK    2  A    between atoms: C7_8  and  C8_9 
REMARK    3  A    between atoms: C8_9  and  N1_10 
REMARK    4  A    between atoms: N1_10  and  C9_11 
ROOT
HETATM    1  N1  UNL     1      25.043   0.538  52.493  1.00  0.00    -0.386 N 
HETATM    2  H10 UNL     1      25.439   0.680  51.514  1.00  0.00     0.160 HD
ENDROOT
BRANCH   1   3
HETATM    3  C8  UNL     1      25.897   0.547  53.632  1.00  0.00     0.161 C 
BRANCH   3   4
HETATM    4  C7  UNL     1      27.064  -0.364  53.485  1.00  0.00    -0.007 A 
HETATM    5  C2  UNL     1      28.303   0.071  53.973  1.00  0.00     0.076 A 
HETATM    6  C3  UNL     1      29.433  -0.719  53.872  1.00  0.00     0.037 A 
HETATM    7  C4  UNL     1      29.334  -1.963  53.279  1.00  0.00     0.003 A 
HETATM    8  C5  UNL     1      28.124  -2.432  52.782  1.00  0.00     0.001 A 
HETATM    9  C6  UNL     1      27.016  -1.609  52.903  1.00  0.00     0.011 A 
BRANCH   5  10
HETATM   10  O1  UNL     1      28.366   1.325  54.563  1.00  0.00    -0.355 OA
HETATM   11  C1  UNL     1      29.597   2.018  54.581  1.00  0.00     0.210 C 
ENDBRANCH   5  10
ENDBRANCH   3   4
ENDBRANCH   1   3
BRANCH   1  12
HETATM   12  C9  UNL     1      23.644   0.350  52.480  1.00  0.00     0.025 A 
HETATM   13  C10 UNL     1      23.007   1.096  51.564  1.00  0.00     0.008 A 
HETATM   14  C11 UNL     1      21.553   1.170  51.255  1.00  0.00     0.089 A 
HETATM   15  C12 UNL     1      20.859   0.242  52.183  1.00  0.00     0.047 A 
HETATM   16  N2  UNL     1      19.557   0.204  52.052  1.00  0.00    -0.246 NA
HETATM   17  C15 UNL     1      21.504  -0.590  53.190  1.00  0.00    -0.011 A 
HETATM   18  C13 UNL     1      18.900  -0.703  52.960  1.00  0.00     0.227 A 
HETATM   19  N3  UNL     1      19.384  -1.491  53.888  1.00  0.00    -0.278 NA
HETATM   20  C14 UNL     1      20.838  -1.514  54.106  1.00  0.00     0.191 A 
HETATM   21  C16 UNL     1      22.819  -0.516  53.309  1.00  0.00     0.039 A 
ENDBRANCH   1  12
TORSDOF 4
ENDMDL
MODEL 9
REMARK VINA RESULT:      -6.9      2.977      4.868
REMARK  4 active torsions:
REMARK  status: ('A' for Active; 'I' for Inactive)
REMARK    1  A    between atoms: O1_2  and  C2_3 
REMARK    2  A    between atoms: C7_8  and  C8_9 
REMARK    3  A    between atoms: C8_9  and  N1_10 
REMARK    4  A    between atoms: N1_10  and  C9_11 
ROOT
HETATM    1  N1  UNL     1      25.681   2.090  51.096  1.00  0.00    -0.386 N 
HETATM    2  H10 UNL     1      26.622   1.832  50.667  1.00  0.00     0.160 HD
ENDROOT
BRANCH   1   3
HETATM    3  C8  UNL     1      24.922   3.180  50.582  1.00  0.00     0.161 C 
BRANCH   3   4
HETATM    4  C7  UNL     1      25.756   4.166  49.844  1.00  0.00    -0.007 A 
HETATM    5  C2  UNL     1      25.263   5.469  49.703  1.00  0.00     0.076 A 
HETATM    6  C3  UNL     1      25.981   6.441  49.030  1.00  0.00     0.037 A 
HETATM    7  C4  UNL     1      27.208   6.116  48.487  1.00  0.00     0.003 A 
HETATM    8  C5  UNL     1      27.733   4.834  48.604  1.00  0.00     0.001 A 
HETATM    9  C6  UNL     1      26.983   3.891  49.286  1.00  0.00     0.011 A 
BRANCH   5  10
HETATM   10  O1  UNL     1      24.027   5.762  50.261  1.00  0.00    -0.355 OA
HETATM   11  C1  UNL     1      23.925   6.811  51.202  1.00  0.00     0.210 C 
ENDBRANCH   5  10
ENDBRANCH   3   4
ENDBRANCH   1   3
BRANCH   1  12
HETATM   12  C9  UNL     1      25.337   1.247  52.173  1.00  0.00     0.025 A 
HETATM   13  C10 UNL     1      26.394   0.776  52.852  1.00  0.00     0.008 A 
HETATM   14  C11 UNL     1      26.429  -0.129  54.033  1.00  0.00     0.089 A 
HETATM   15  C12 UNL     1      25.024  -0.470  54.367  1.00  0.00     0.047 A 
HETATM   16  N2  UNL     1      24.881  -1.283  55.384  1.00  0.00    -0.246 NA
HETATM   17  C15 UNL     1      23.844   0.017  53.666  1.00  0.00    -0.011 A 
HETATM   18  C13 UNL     1      23.510  -1.601  55.695  1.00  0.00     0.227 A 
HETATM   19  N3  UNL     1      22.389  -1.216  55.136  1.00  0.00    -0.278 NA
HETATM   20  C14 UNL     1      22.453  -0.301  53.986  1.00  0.00     0.191 A 
HETATM   21  C16 UNL     1      24.021   0.824  52.633  1.00  0.00     0.039 A 
ENDBRANCH   1  12
TORSDOF 4
ENDMDL
