MODEL 1
REMARK VINA RESULT:      -9.9      0.000      0.000
REMARK  2 active torsions:
REMARK  status: ('A' for Active; 'I' for Inactive)
REMARK    1  A    between atoms: C2_2  and  O1_3 
REMARK    2  A    between atoms: O1_3  and  C3_4 
ROOT
HETATM    1  C3  UNL     1      26.950   0.729  53.151  1.00  0.00     0.101 A 
HETATM    2  C4  UNL     1      26.166  -0.021  53.884  1.00  0.00     0.018 A 
HETATM    3  C5  UNL     1      24.733  -0.329  53.877  1.00  0.00     0.073 A 
HETATM    4  C6  UNL     1      24.124   0.418  52.765  1.00  0.00     0.006 A 
HETATM    5  C7  UNL     1      22.824   0.318  52.532  1.00  0.00     0.041 C 
HETATM    6  C8  UNL     1      21.604   0.630  51.802  1.00  0.00     0.093 C 
HETATM    7  C9  UNL     1      21.072   1.328  50.772  1.00  0.00     0.005 C 
HETATM    8 CL1  UNL     1      21.497   2.469  49.447  1.00  0.00    -0.092 Cl
HETATM    9  C10 UNL     1      19.629   0.922  50.873  1.00  0.00    -0.011 C 
HETATM   10  C11 UNL     1      18.844   1.631  49.751  1.00  0.00     0.017 C 
HETATM   11  C12 UNL     1      19.659   0.083  51.943  1.00  0.00     0.067 C 
HETATM   12  C13 UNL     1      18.408  -0.587  52.431  1.00  0.00    -0.002 C 
HETATM   13  C14 UNL     1      18.636  -1.374  53.500  1.00  0.00     0.099 C 
HETATM   14  N1  UNL     1      19.941  -1.505  54.051  1.00  0.00    -0.318 N 
HETATM   15  N2  UNL     1      20.172  -0.223  54.596  1.00  0.00    -0.153 NA
HETATM   16  N3  UNL     1      21.534   0.087  54.558  1.00  0.00    -0.153 NA
HETATM   17  N4  UNL     1      22.159  -0.570  53.466  1.00  0.00    -0.309 N 
HETATM   18  C15 UNL     1      24.962   1.263  51.925  1.00  0.00     0.113 A 
HETATM   19  C16 UNL     1      26.267   1.447  52.052  1.00  0.00     0.136 A 
HETATM   20  O2  UNL     1      27.048   2.243  51.259  1.00  0.00    -0.344 OA
HETATM   21  C17 UNL     1      26.492   3.293  50.531  1.00  0.00     0.202 C 
HETATM   22  C18 UNL     1      24.969   3.297  50.602  1.00  0.00     0.202 C 
HETATM   23  O3  UNL     1      24.469   1.999  50.857  1.00  0.00    -0.345 OA
HETATM   24  H16 UNL     1      20.747  -2.174  54.190  1.00  0.00     0.181 HD
HETATM   25  H17 UNL     1      19.770  -0.126  55.542  1.00  0.00     0.168 HD
HETATM   26  H18 UNL     1      21.942  -0.229  55.484  1.00  0.00     0.168 HD
HETATM   27  H19 UNL     1      22.316  -1.555  53.086  1.00  0.00     0.182 HD
ENDROOT
BRANCH   1  28
HETATM   28  O1  UNL     1      28.309   0.800  53.435  1.00  0.00    -0.349 OA
BRANCH  28  29
HETATM   29  C2  UNL     1      28.967  -0.000  54.379  1.00  0.00     0.171 C 
HETATM   30  C1  UNL     1      29.879  -1.011  53.696  1.00  0.00     0.034 C 
ENDBRANCH  28  29
ENDBRANCH   1  28
TORSDOF 2
ENDMDL
MODEL 2
REMARK VINA RESULT:      -9.1      3.941      5.980
REMARK  2 active torsions:
REMARK  status: ('A' for Active; 'I' for Inactive)
REMARK    1  A    between atoms: C2_2  and  O1_3 
REMARK    2  A    between atoms: O1_3  and  C3_4 
ROOT
HETATM    1  C3  UNL     1      26.214  -0.422  52.924  1.00  0.00     0.101 A 
HETATM    2  C4  UNL     1      27.039   0.391  52.313  1.00  0.00     0.018 A 
HETATM    3  C5  UNL     1      26.917   1.724  51.715  1.00  0.00     0.073 A 
HETATM    4  C6  UNL     1      25.522   2.162  51.888  1.00  0.00     0.006 A 
HETATM    5  C7  UNL     1      25.138   3.345  51.433  1.00  0.00     0.041 C 
HETATM    6  C8  UNL     1      24.158   4.395  51.202  1.00  0.00     0.093 C 
HETATM    7  C9  UNL     1      22.869   4.772  51.375  1.00  0.00     0.005 C 
HETATM    8 CL1  UNL     1      21.299   4.224  52.063  1.00  0.00    -0.092 Cl
HETATM    9  C10 UNL     1      22.885   6.132  50.737  1.00  0.00    -0.011 C 
HETATM   10  C11 UNL     1      21.471   6.737  50.843  1.00  0.00     0.017 C 
HETATM   11  C12 UNL     1      24.182   6.227  50.337  1.00  0.00     0.067 C 
HETATM   12  C13 UNL     1      24.681   7.453  49.630  1.00  0.00    -0.002 C 
HETATM   13  C14 UNL     1      25.986   7.359  49.311  1.00  0.00     0.099 C 
HETATM   14  N1  UNL     1      26.742   6.198  49.637  1.00  0.00    -0.318 N 
HETATM   15  N2  UNL     1      26.178   5.220  48.789  1.00  0.00    -0.153 NA
HETATM   16  N3  UNL     1      26.253   3.957  49.382  1.00  0.00    -0.153 NA
HETATM   17  N4  UNL     1      26.218   4.074  50.796  1.00  0.00    -0.309 N 
HETATM   18  C15 UNL     1      24.574   1.287  52.563  1.00  0.00     0.113 A 
HETATM   19  C16 UNL     1      24.831   0.087  53.061  1.00  0.00     0.136 A 
HETATM   20  O2  UNL     1      23.935  -0.730  53.695  1.00  0.00    -0.344 OA
HETATM   21  C17 UNL     1      22.565  -0.593  53.479  1.00  0.00     0.202 C 
HETATM   22  C18 UNL     1      22.237   0.638  52.640  1.00  0.00     0.202 C 
HETATM   23  O3  UNL     1      23.244   1.623  52.768  1.00  0.00    -0.345 OA
HETATM   24  H16 UNL     1      27.523   5.830  50.245  1.00  0.00     0.181 HD
HETATM   25  H17 UNL     1      26.594   5.239  47.845  1.00  0.00     0.168 HD
HETATM   26  H18 UNL     1      27.161   3.521  49.052  1.00  0.00     0.168 HD
HETATM   27  H19 UNL     1      26.757   4.539  51.591  1.00  0.00     0.182 HD
ENDROOT
BRANCH   1  28
HETATM   28  O1  UNL     1      26.666  -1.654  53.385  1.00  0.00    -0.349 OA
BRANCH  28  29
HETATM   29  C2  UNL     1      27.502  -2.515  52.661  1.00  0.00     0.171 C 
HETATM   30  C1  UNL     1      28.928  -2.463  53.192  1.00  0.00     0.034 C 
ENDBRANCH  28  29
ENDBRANCH   1  28
TORSDOF 2
ENDMDL
MODEL 3
REMARK VINA RESULT:      -8.8      4.610      7.119
REMARK  2 active torsions:
REMARK  status: ('A' for Active; 'I' for Inactive)
REMARK    1  A    between atoms: C2_2  and  O1_3 
REMARK    2  A    between atoms: O1_3  and  C3_4 
ROOT
HETATM    1  C3  UNL     1      25.039   0.856  52.280  1.00  0.00     0.101 A 
HETATM    2  C4  UNL     1      26.170   1.503  52.148  1.00  0.00     0.018 A 
HETATM    3  C5  UNL     1      26.592   2.703  51.420  1.00  0.00     0.073 A 
HETATM    4  C6  UNL     1      25.414   3.227  50.708  1.00  0.00     0.006 A 
HETATM    5  C7  UNL     1      25.520   4.318  49.965  1.00  0.00     0.041 C 
HETATM    6  C8  UNL     1      24.994   5.348  49.082  1.00  0.00     0.093 C 
HETATM    7  C9  UNL     1      23.895   5.806  48.439  1.00  0.00     0.005 C 
HETATM    8 CL1  UNL     1      22.147   5.467  48.174  1.00  0.00    -0.092 Cl
HETATM    9  C10 UNL     1      24.456   7.020  47.753  1.00  0.00    -0.011 C 
HETATM   10  C11 UNL     1      23.323   7.695  46.954  1.00  0.00     0.017 C 
HETATM   11  C12 UNL     1      25.755   6.981  48.155  1.00  0.00     0.067 C 
HETATM   12  C13 UNL     1      26.731   8.028  47.706  1.00  0.00    -0.002 C 
HETATM   13  C14 UNL     1      27.965   7.819  48.203  1.00  0.00     0.099 C 
HETATM   14  N1  UNL     1      28.238   6.708  49.050  1.00  0.00    -0.318 N 
HETATM   15  N2  UNL     1      28.105   5.613  48.169  1.00  0.00    -0.153 NA
HETATM   16  N3  UNL     1      27.658   4.483  48.857  1.00  0.00    -0.153 NA
HETATM   17  N4  UNL     1      26.863   4.866  49.970  1.00  0.00    -0.309 N 
HETATM   18  C15 UNL     1      24.137   2.537  50.829  1.00  0.00     0.113 A 
HETATM   19  C16 UNL     1      23.901   1.443  51.537  1.00  0.00     0.136 A 
HETATM   20  O2  UNL     1      22.698   0.800  51.647  1.00  0.00    -0.344 OA
HETATM   21  C17 UNL     1      21.714   0.953  50.673  1.00  0.00     0.202 C 
HETATM   22  C18 UNL     1      22.085   2.017  49.644  1.00  0.00     0.202 C 
HETATM   23  O3  UNL     1      22.981   2.963  50.194  1.00  0.00    -0.345 OA
HETATM   24  H16 UNL     1      28.490   6.428  50.036  1.00  0.00     0.181 HD
HETATM   25  H17 UNL     1      28.972   5.435  47.638  1.00  0.00     0.168 HD
HETATM   26  H18 UNL     1      28.523   3.953  49.165  1.00  0.00     0.168 HD
HETATM   27  H19 UNL     1      26.932   5.449  50.861  1.00  0.00     0.182 HD
ENDROOT
BRANCH   1  28
HETATM   28  O1  UNL     1      24.978  -0.285  53.072  1.00  0.00    -0.349 OA
BRANCH  28  29
HETATM   29  C2  UNL     1      26.096  -0.947  53.599  1.00  0.00     0.171 C 
HETATM   30  C1  UNL     1      26.711  -1.882  52.567  1.00  0.00     0.034 C 
ENDBRANCH  28  29
ENDBRANCH   1  28
TORSDOF 2
ENDMDL
MODEL 4
REMARK VINA RESULT:      -8.6      3.944      6.518
REMARK  2 active torsions:
REMARK  status: ('A' for Active; 'I' for Inactive)
REMARK    1  A    between atoms: C2_2  and  O1_3 
REMARK    2  A    between atoms: O1_3  and  C3_4 
ROOT
HETATM    1  C3  UNL     1      25.683   6.283  48.463  1.00  0.00     0.101 A 
HETATM    2  C4  UNL     1      26.661   5.458  48.741  1.00  0.00     0.018 A 
HETATM    3  C5  UNL     1      26.784   4.242  49.550  1.00  0.00     0.073 A 
HETATM    4  C6  UNL     1      25.464   3.965  50.140  1.00  0.00     0.006 A 
HETATM    5  C7  UNL     1      25.296   2.911  50.923  1.00  0.00     0.041 C 
HETATM    6  C8  UNL     1      24.506   2.033  51.773  1.00  0.00     0.093 C 
HETATM    7  C9  UNL     1      23.281   1.804  52.302  1.00  0.00     0.005 C 
HETATM    8 CL1  UNL     1      21.603   2.453  52.358  1.00  0.00    -0.092 Cl
HETATM    9  C10 UNL     1      23.543   0.548  53.084  1.00  0.00    -0.011 C 
HETATM   10  C11 UNL     1      22.230   0.120  53.771  1.00  0.00     0.017 C 
HETATM   11  C12 UNL     1      24.864   0.342  52.830  1.00  0.00     0.067 C 
HETATM   12  C13 UNL     1      25.586  -0.834  53.419  1.00  0.00    -0.002 C 
HETATM   13  C14 UNL     1      26.883  -0.866  53.058  1.00  0.00     0.099 C 
HETATM   14  N1  UNL     1      27.436   0.137  52.214  1.00  0.00    -0.318 N 
HETATM   15  N2  UNL     1      27.407   1.282  53.040  1.00  0.00    -0.153 NA
HETATM   16  N3  UNL     1      27.242   2.436  52.270  1.00  0.00    -0.153 NA
HETATM   17  N4  UNL     1      26.514   2.140  51.088  1.00  0.00    -0.309 N 
HETATM   18  C15 UNL     1      24.350   4.858  49.854  1.00  0.00     0.113 A 
HETATM   19  C16 UNL     1      24.387   5.940  49.091  1.00  0.00     0.136 A 
HETATM   20  O2  UNL     1      23.335   6.774  48.826  1.00  0.00    -0.344 OA
HETATM   21  C17 UNL     1      22.242   6.842  49.687  1.00  0.00     0.202 C 
HETATM   22  C18 UNL     1      22.308   5.783  50.783  1.00  0.00     0.202 C 
HETATM   23  O3  UNL     1      23.075   4.670  50.368  1.00  0.00    -0.345 OA
HETATM   24  H16 UNL     1      27.836   0.320  51.254  1.00  0.00     0.181 HD
HETATM   25  H17 UNL     1      28.230   1.334  53.659  1.00  0.00     0.168 HD
HETATM   26  H18 UNL     1      28.214   2.792  52.046  1.00  0.00     0.168 HD
HETATM   27  H19 UNL     1      26.572   1.510  50.228  1.00  0.00     0.182 HD
ENDROOT
BRANCH   1  28
HETATM   28  O1  UNL     1      25.909   7.376  47.634  1.00  0.00    -0.349 OA
BRANCH  28  29
HETATM   29  C2  UNL     1      27.089   8.132  47.620  1.00  0.00     0.171 C 
HETATM   30  C1  UNL     1      27.541   8.411  46.193  1.00  0.00     0.034 C 
ENDBRANCH  28  29
ENDBRANCH   1  28
TORSDOF 2
ENDMDL
MODEL 5
REMARK VINA RESULT:      -8.4      3.612      6.365
REMARK  2 active torsions:
REMARK  status: ('A' for Active; 'I' for Inactive)
REMARK    1  A    between atoms: C2_2  and  O1_3 
REMARK    2  A    between atoms: O1_3  and  C3_4 
ROOT
HETATM    1  C3  UNL     1      23.836   5.276  48.575  1.00  0.00     0.101 A 
HETATM    2  C4  UNL     1      24.962   5.014  49.189  1.00  0.00     0.018 A 
HETATM    3  C5  UNL     1      25.374   4.059  50.223  1.00  0.00     0.073 A 
HETATM    4  C6  UNL     1      24.191   3.262  50.587  1.00  0.00     0.006 A 
HETATM    5  C7  UNL     1      24.287   2.316  51.508  1.00  0.00     0.041 C 
HETATM    6  C8  UNL     1      23.751   1.248  52.339  1.00  0.00     0.093 C 
HETATM    7  C9  UNL     1      22.647   0.532  52.654  1.00  0.00     0.005 C 
HETATM    8 CL1  UNL     1      20.901   0.347  52.258  1.00  0.00    -0.092 Cl
HETATM    9  C10 UNL     1      23.202  -0.398  53.696  1.00  0.00    -0.011 C 
HETATM   10  C11 UNL     1      22.065  -1.318  54.183  1.00  0.00     0.017 C 
HETATM   11  C12 UNL     1      24.502   0.000  53.747  1.00  0.00     0.067 C 
HETATM   12  C13 UNL     1      25.474  -0.664  54.677  1.00  0.00    -0.002 C 
HETATM   13  C14 UNL     1      26.707  -0.132  54.588  1.00  0.00     0.099 C 
HETATM   14  N1  UNL     1      26.984   0.939  53.693  1.00  0.00    -0.318 N 
HETATM   15  N2  UNL     1      26.261   2.008  54.265  1.00  0.00    -0.153 NA
HETATM   16  N3  UNL     1      25.830   2.893  53.273  1.00  0.00    -0.153 NA
HETATM   17  N4  UNL     1      25.628   2.201  52.049  1.00  0.00    -0.309 N 
HETATM   18  C15 UNL     1      22.919   3.522  49.925  1.00  0.00     0.113 A 
HETATM   19  C16 UNL     1      22.693   4.434  48.992  1.00  0.00     0.136 A 
HETATM   20  O2  UNL     1      21.495   4.673  48.375  1.00  0.00    -0.344 OA
HETATM   21  C17 UNL     1      20.294   4.307  48.978  1.00  0.00     0.202 C 
HETATM   22  C18 UNL     1      20.514   3.490  50.247  1.00  0.00     0.202 C 
HETATM   23  O3  UNL     1      21.758   2.818  50.208  1.00  0.00    -0.345 OA
HETATM   24  H16 UNL     1      27.502   1.203  52.812  1.00  0.00     0.181 HD
HETATM   25  H17 UNL     1      26.794   2.481  55.011  1.00  0.00     0.168 HD
HETATM   26  H18 UNL     1      26.582   3.633  53.178  1.00  0.00     0.168 HD
HETATM   27  H19 UNL     1      26.167   1.597  51.353  1.00  0.00     0.182 HD
ENDROOT
BRANCH   1  28
HETATM   28  O1  UNL     1      23.785   6.279  47.613  1.00  0.00    -0.349 OA
BRANCH  28  29
HETATM   29  C2  UNL     1      24.100   7.625  47.851  1.00  0.00     0.171 C 
HETATM   30  C1  UNL     1      25.271   8.071  46.986  1.00  0.00     0.034 C 
ENDBRANCH  28  29
ENDBRANCH   1  28
TORSDOF 2
ENDMDL
MODEL 6
REMARK VINA RESULT:      -8.3      1.943      2.802
REMARK  2 active torsions:
REMARK  status: ('A' for Active; 'I' for Inactive)
REMARK    1  A    between atoms: C2_2  and  O1_3 
REMARK    2  A    between atoms: O1_3  and  C3_4 
ROOT
HETATM    1  C3  UNL     1      24.140   0.319  53.324  1.00  0.00     0.101 A 
HETATM    2  C4  UNL     1      23.306  -0.520  53.886  1.00  0.00     0.018 A 
HETATM    3  C5  UNL     1      21.899  -0.873  53.674  1.00  0.00     0.073 A 
HETATM    4  C6  UNL     1      21.398  -0.049  52.561  1.00  0.00     0.006 A 
HETATM    5  C7  UNL     1      20.142  -0.170  52.160  1.00  0.00     0.041 C 
HETATM    6  C8  UNL     1      19.008   0.166  51.312  1.00  0.00     0.093 C 
HETATM    7  C9  UNL     1      18.575   0.936  50.287  1.00  0.00     0.005 C 
HETATM    8 CL1  UNL     1      19.108   2.205  49.128  1.00  0.00    -0.092 Cl
HETATM    9  C10 UNL     1      17.149   0.475  50.171  1.00  0.00    -0.011 C 
HETATM   10  C11 UNL     1      16.477   1.256  49.024  1.00  0.00     0.017 C 
HETATM   11  C12 UNL     1      17.085  -0.455  51.162  1.00  0.00     0.067 C 
HETATM   12  C13 UNL     1      15.815  -1.207  51.430  1.00  0.00    -0.002 C 
HETATM   13  C14 UNL     1      15.945  -2.079  52.448  1.00  0.00     0.099 C 
HETATM   14  N1  UNL     1      17.178  -2.216  53.145  1.00  0.00    -0.318 N 
HETATM   15  N2  UNL     1      17.284  -0.981  53.822  1.00  0.00    -0.153 NA
HETATM   16  N3  UNL     1      18.625  -0.625  53.982  1.00  0.00    -0.153 NA
HETATM   17  N4  UNL     1      19.407  -1.160  52.924  1.00  0.00    -0.309 N 
HETATM   18  C15 UNL     1      22.294   0.896  51.908  1.00  0.00     0.113 A 
HETATM   19  C16 UNL     1      23.565   1.110  52.213  1.00  0.00     0.136 A 
HETATM   20  O2  UNL     1      24.401   1.999  51.594  1.00  0.00    -0.344 OA
HETATM   21  C17 UNL     1      23.893   3.092  50.895  1.00  0.00     0.202 C 
HETATM   22  C18 UNL     1      22.373   3.040  50.774  1.00  0.00     0.202 C 
HETATM   23  O3  UNL     1      21.904   1.708  50.853  1.00  0.00    -0.345 OA
HETATM   24  H16 UNL     1      17.989  -2.868  53.327  1.00  0.00     0.181 HD
HETATM   25  H17 UNL     1      16.766  -0.983  54.715  1.00  0.00     0.168 HD
HETATM   26  H18 UNL     1      18.932  -1.009  54.921  1.00  0.00     0.168 HD
HETATM   27  H19 UNL     1      19.653  -2.101  52.485  1.00  0.00     0.182 HD
ENDROOT
BRANCH   1  28
HETATM   28  O1  UNL     1      25.449   0.409  53.780  1.00  0.00    -0.349 OA
BRANCH  28  29
HETATM   29  C2  UNL     1      26.407  -0.607  53.654  1.00  0.00     0.171 C 
HETATM   30  C1  UNL     1      26.675  -0.924  52.189  1.00  0.00     0.034 C 
ENDBRANCH  28  29
ENDBRANCH   1  28
TORSDOF 2
ENDMDL
MODEL 7
REMARK VINA RESULT:      -8.3      4.486      7.115
REMARK  2 active torsions:
REMARK  status: ('A' for Active; 'I' for Inactive)
REMARK    1  A    between atoms: C2_2  and  O1_3 
REMARK    2  A    between atoms: O1_3  and  C3_4 
ROOT
HETATM    1  C3  UNL     1      23.824   0.890  52.391  1.00  0.00     0.101 A 
HETATM    2  C4  UNL     1      24.889   1.646  52.489  1.00  0.00     0.018 A 
HETATM    3  C5  UNL     1      25.365   2.850  51.802  1.00  0.00     0.073 A 
HETATM    4  C6  UNL     1      24.355   3.214  50.794  1.00  0.00     0.006 A 
HETATM    5  C7  UNL     1      24.540   4.276  50.025  1.00  0.00     0.041 C 
HETATM    6  C8  UNL     1      24.154   5.204  48.973  1.00  0.00     0.093 C 
HETATM    7  C9  UNL     1      23.209   5.515  48.055  1.00  0.00     0.005 C 
HETATM    8 CL1  UNL     1      21.618   4.982  47.404  1.00  0.00    -0.092 Cl
HETATM    9  C10 UNL     1      23.808   6.749  47.441  1.00  0.00    -0.011 C 
HETATM   10  C11 UNL     1      22.849   7.264  46.349  1.00  0.00     0.017 C 
HETATM   11  C12 UNL     1      24.967   6.865  48.145  1.00  0.00     0.067 C 
HETATM   12  C13 UNL     1      25.923   7.988  47.871  1.00  0.00    -0.002 C 
HETATM   13  C14 UNL     1      27.012   7.932  48.662  1.00  0.00     0.099 C 
HETATM   14  N1  UNL     1      27.169   6.896  49.624  1.00  0.00    -0.318 N 
HETATM   15  N2  UNL     1      27.357   5.755  48.814  1.00  0.00    -0.153 NA
HETATM   16  N3  UNL     1      26.860   4.616  49.452  1.00  0.00    -0.153 NA
HETATM   17  N4  UNL     1      25.785   4.962  50.313  1.00  0.00    -0.309 N 
HETATM   18  C15 UNL     1      23.156   2.399  50.654  1.00  0.00     0.113 A 
HETATM   19  C16 UNL     1      22.855   1.319  51.358  1.00  0.00     0.136 A 
HETATM   20  O2  UNL     1      21.725   0.559  51.221  1.00  0.00    -0.344 OA
HETATM   21  C17 UNL     1      21.000   0.564  50.032  1.00  0.00     0.202 C 
HETATM   22  C18 UNL     1      21.513   1.614  49.051  1.00  0.00     0.202 C 
HETATM   23  O3  UNL     1      22.156   2.673  49.732  1.00  0.00    -0.345 OA
HETATM   24  H16 UNL     1      27.196   6.688  50.659  1.00  0.00     0.181 HD
HETATM   25  H17 UNL     1      28.340   5.646  48.520  1.00  0.00     0.168 HD
HETATM   26  H18 UNL     1      27.667   4.194  49.994  1.00  0.00     0.168 HD
HETATM   27  H19 UNL     1      25.579   5.588  51.152  1.00  0.00     0.182 HD
ENDROOT
BRANCH   1  28
HETATM   28  O1  UNL     1      23.675  -0.214  53.222  1.00  0.00    -0.349 OA
BRANCH  28  29
HETATM   29  C2  UNL     1      22.757  -0.296  54.278  1.00  0.00     0.171 C 
HETATM   30  C1  UNL     1      21.791  -1.455  54.072  1.00  0.00     0.034 C 
ENDBRANCH  28  29
ENDBRANCH   1  28
TORSDOF 2
ENDMDL
MODEL 8
REMARK VINA RESULT:      -8.1      3.520      6.149
REMARK  2 active torsions:
REMARK  status: ('A' for Active; 'I' for Inactive)
REMARK    1  A    between atoms: C2_2  and  O1_3 
REMARK    2  A    between atoms: O1_3  and  C3_4 
ROOT
HETATM    1  C3  UNL     1      22.646   6.678  50.302  1.00  0.00     0.101 A 
HETATM    2  C4  UNL     1      21.677   6.069  50.939  1.00  0.00     0.018 A 
HETATM    3  C5  UNL     1      21.548   4.785  51.634  1.00  0.00     0.073 A 
HETATM    4  C6  UNL     1      22.846   4.097  51.539  1.00  0.00     0.006 A 
HETATM    5  C7  UNL     1      23.005   2.903  52.090  1.00  0.00     0.041 C 
HETATM    6  C8  UNL     1      23.778   1.717  52.426  1.00  0.00     0.093 C 
HETATM    7  C9  UNL     1      24.983   1.108  52.323  1.00  0.00     0.005 C 
HETATM    8 CL1  UNL     1      26.639   1.319  51.651  1.00  0.00    -0.092 Cl
HETATM    9  C10 UNL     1      24.718  -0.168  53.071  1.00  0.00    -0.011 C 
HETATM   10  C11 UNL     1      26.008  -1.013  53.065  1.00  0.00     0.017 C 
HETATM   11  C12 UNL     1      23.416  -0.004  53.431  1.00  0.00     0.067 C 
HETATM   12  C13 UNL     1      22.698  -1.060  54.220  1.00  0.00    -0.002 C 
HETATM   13  C14 UNL     1      21.420  -0.720  54.477  1.00  0.00     0.099 C 
HETATM   14  N1  UNL     1      20.880   0.514  54.018  1.00  0.00    -0.318 N 
HETATM   15  N2  UNL     1      20.842   0.328  52.619  1.00  0.00    -0.153 NA
HETATM   16  N3  UNL     1      21.012   1.548  51.959  1.00  0.00    -0.153 NA
HETATM   17  N4  UNL     1      21.802   2.428  52.745  1.00  0.00    -0.309 N 
HETATM   18  C15 UNL     1      23.950   4.740  50.839  1.00  0.00     0.113 A 
HETATM   19  C16 UNL     1      23.920   5.925  50.249  1.00  0.00     0.136 A 
HETATM   20  O2  UNL     1      24.961   6.524  49.594  1.00  0.00    -0.344 OA
HETATM   21  C17 UNL     1      26.011   5.767  49.078  1.00  0.00     0.202 C 
HETATM   22  C18 UNL     1      25.922   4.303  49.495  1.00  0.00     0.202 C 
HETATM   23  O3  UNL     1      25.204   4.163  50.705  1.00  0.00    -0.345 OA
HETATM   24  H16 UNL     1      20.520   1.457  54.328  1.00  0.00     0.181 HD
HETATM   25  H17 UNL     1      19.990  -0.169  52.317  1.00  0.00     0.168 HD
HETATM   26  H18 UNL     1      20.042   1.942  51.794  1.00  0.00     0.168 HD
HETATM   27  H19 UNL     1      21.800   2.887  53.708  1.00  0.00     0.182 HD
ENDROOT
BRANCH   1  28
HETATM   28  O1  UNL     1      22.430   7.931  49.741  1.00  0.00    -0.349 OA
BRANCH  28  29
HETATM   29  C2  UNL     1      21.335   8.261  48.930  1.00  0.00     0.171 C 
HETATM   30  C1  UNL     1      20.875   9.689  49.191  1.00  0.00     0.034 C 
ENDBRANCH  28  29
ENDBRANCH   1  28
TORSDOF 2
ENDMDL
MODEL 9
REMARK VINA RESULT:      -8.1      5.610      8.797
REMARK  2 active torsions:
REMARK  status: ('A' for Active; 'I' for Inactive)
REMARK    1  A    between atoms: C2_2  and  O1_3 
REMARK    2  A    between atoms: O1_3  and  C3_4 
ROOT
HETATM    1  C3  UNL     1      23.981   2.427  50.657  1.00  0.00     0.101 A 
HETATM    2  C4  UNL     1      25.272   2.545  50.843  1.00  0.00     0.018 A 
HETATM    3  C5  UNL     1      26.295   3.493  50.391  1.00  0.00     0.073 A 
HETATM    4  C6  UNL     1      25.628   4.496  49.544  1.00  0.00     0.006 A 
HETATM    5  C7  UNL     1      26.332   5.477  49.001  1.00  0.00     0.041 C 
HETATM    6  C8  UNL     1      26.483   6.675  48.189  1.00  0.00     0.093 C 
HETATM    7  C9  UNL     1      25.843   7.584  47.416  1.00  0.00     0.005 C 
HETATM    8 CL1  UNL     1      24.222   8.022  46.768  1.00  0.00    -0.092 Cl
HETATM    9  C10 UNL     1      26.986   8.482  47.034  1.00  0.00    -0.011 C 
HETATM   10  C11 UNL     1      26.439   9.609  46.134  1.00  0.00     0.017 C 
HETATM   11  C12 UNL     1      28.026   7.882  47.673  1.00  0.00     0.067 C 
HETATM   12  C13 UNL     1      29.414   8.445  47.578  1.00  0.00    -0.002 C 
HETATM   13  C14 UNL     1      30.307   7.714  48.271  1.00  0.00     0.099 C 
HETATM   14  N1  UNL     1      29.908   6.551  48.987  1.00  0.00    -0.318 N 
HETATM   15  N2  UNL     1      29.564   5.657  47.949  1.00  0.00    -0.153 NA
HETATM   16  N3  UNL     1      28.556   4.786  48.368  1.00  0.00    -0.153 NA
HETATM   17  N4  UNL     1      27.739   5.411  49.347  1.00  0.00    -0.309 N 
HETATM   18  C15 UNL     1      24.193   4.400  49.314  1.00  0.00     0.113 A 
HETATM   19  C16 UNL     1      23.382   3.472  49.798  1.00  0.00     0.136 A 
HETATM   20  O2  UNL     1      22.034   3.388  49.577  1.00  0.00    -0.344 OA
HETATM   21  C17 UNL     1      21.453   3.988  48.461  1.00  0.00     0.202 C 
HETATM   22  C18 UNL     1      22.448   4.847  47.688  1.00  0.00     0.202 C 
HETATM   23  O3  UNL     1      23.488   5.303  48.532  1.00  0.00    -0.345 OA
HETATM   24  H16 UNL     1      29.785   6.142  49.953  1.00  0.00     0.181 HD
HETATM   25  H17 UNL     1      30.388   5.159  47.578  1.00  0.00     0.168 HD
HETATM   26  H18 UNL     1      29.039   3.928  48.759  1.00  0.00     0.168 HD
HETATM   27  H19 UNL     1      27.819   5.867  50.308  1.00  0.00     0.182 HD
ENDROOT
BRANCH   1  28
HETATM   28  O1  UNL     1      23.286   1.379  51.250  1.00  0.00    -0.349 OA
BRANCH  28  29
HETATM   29  C2  UNL     1      22.980   1.301  52.616  1.00  0.00     0.171 C 
HETATM   30  C1  UNL     1      23.366  -0.059  53.184  1.00  0.00     0.034 C 
ENDBRANCH  28  29
ENDBRANCH   1  28
TORSDOF 2
ENDMDL
