MODEL 1
REMARK VINA RESULT:      -8.5      0.000      0.000
REMARK  7 active torsions:
REMARK  status: ('A' for Active; 'I' for Inactive)
REMARK    1  A    between atoms: C1_2  and  C2_3 
REMARK    2  A    between atoms: C5_6  and  C6_7 
REMARK    3  A    between atoms: C6_7  and  O1_8 
REMARK    4  A    between atoms: O1_8  and  C7_9 
REMARK    5  A    between atoms: C10_12  and  N1_13 
REMARK    6  A    between atoms: N1_13  and  C11_14 
REMARK    7  A    between atoms: C13_16  and  N2_17 
ROOT
HETATM    1  C7  UNL     1      25.351   4.465  50.208  1.00  0.00     0.091 A 
HETATM    2  C8  UNL     1      26.373   3.787  49.584  1.00  0.00     0.041 A 
HETATM    3  C9  UNL     1      27.327   4.436  48.842  1.00  0.00     0.032 A 
HETATM    4  C10 UNL     1      27.311   5.827  48.677  1.00  0.00     0.035 A 
HETATM    5  C19 UNL     1      26.272   6.466  49.317  1.00  0.00     0.056 A 
HETATM    6  C20 UNL     1      25.302   5.837  50.069  1.00  0.00     0.069 A 
HETATM    7 CL1  UNL     1      24.008   6.757  50.850  1.00  0.00    -0.081 Cl
ENDROOT
BRANCH   4   8
HETATM    8  N1  UNL     1      28.307   6.480  47.904  1.00  0.00    -0.341 N 
HETATM    9  H10 UNL     1      27.943   6.901  47.007  1.00  0.00     0.167 HD
BRANCH   8  10
HETATM   10  C11 UNL     1      29.685   6.615  48.205  1.00  0.00     0.133 A 
HETATM   11  C12 UNL     1      30.532   5.641  47.721  1.00  0.00     0.100 A 
HETATM   12  C13 UNL     1      31.892   5.615  47.917  1.00  0.00     0.130 A 
HETATM   13  N3  UNL     1      32.391   6.634  48.639  1.00  0.00    -0.224 NA
HETATM   14  C18 UNL     1      31.589   7.610  49.130  1.00  0.00     0.237 A 
HETATM   15  N4  UNL     1      30.275   7.567  48.898  1.00  0.00    -0.224 NA
BRANCH  12  16
HETATM   16  N2  UNL     1      32.741   4.600  47.408  1.00  0.00    -0.366 N 
HETATM   17  C14 UNL     1      32.307   3.330  46.848  1.00  0.00     0.124 C 
HETATM   18  C15 UNL     1      33.231   2.388  47.632  1.00  0.00     0.021 C 
HETATM   19  C16 UNL     1      34.494   3.193  47.855  1.00  0.00     0.021 C 
HETATM   20  C17 UNL     1      34.189   4.580  47.326  1.00  0.00     0.124 C 
ENDBRANCH  12  16
ENDBRANCH   8  10
ENDBRANCH   4   8
BRANCH   1  21
HETATM   21  O1  UNL     1      24.365   3.877  50.963  1.00  0.00    -0.345 OA
BRANCH  21  22
HETATM   22  C6  UNL     1      23.842   2.597  50.844  1.00  0.00     0.214 C 
BRANCH  22  23
HETATM   23  C5  UNL     1      24.435   1.657  51.824  1.00  0.00    -0.037 A 
HETATM   24  C4  UNL     1      23.372   0.781  52.360  1.00  0.00     0.006 A 
HETATM   25  C3  UNL     1      23.894  -0.078  53.251  1.00  0.00    -0.015 A 
HETATM   26  C2  UNL     1      25.344   0.165  53.372  1.00  0.00     0.060 A 
HETATM   27  C21 UNL     1      25.570   1.282  52.423  1.00  0.00    -0.007 A 
BRANCH  26  28
HETATM   28  C1  UNL     1      26.160  -1.007  52.862  1.00  0.00     0.234 C 
HETATM   29  F1  UNL     1      26.777  -0.572  51.698  1.00  0.00    -0.254 F 
ENDBRANCH  26  28
ENDBRANCH  22  23
ENDBRANCH  21  22
ENDBRANCH   1  21
TORSDOF 7
ENDMDL
MODEL 2
REMARK VINA RESULT:      -8.3      1.513      1.924
REMARK  7 active torsions:
REMARK  status: ('A' for Active; 'I' for Inactive)
REMARK    1  A    between atoms: C1_2  and  C2_3 
REMARK    2  A    between atoms: C5_6  and  C6_7 
REMARK    3  A    between atoms: C6_7  and  O1_8 
REMARK    4  A    between atoms: O1_8  and  C7_9 
REMARK    5  A    between atoms: C10_12  and  N1_13 
REMARK    6  A    between atoms: N1_13  and  C11_14 
REMARK    7  A    between atoms: C13_16  and  N2_17 
ROOT
HETATM    1  C7  UNL     1      25.357   3.887  50.499  1.00  0.00     0.091 A 
HETATM    2  C8  UNL     1      26.443   3.470  49.764  1.00  0.00     0.041 A 
HETATM    3  C9  UNL     1      27.164   4.334  48.980  1.00  0.00     0.032 A 
HETATM    4  C10 UNL     1      26.832   5.691  48.883  1.00  0.00     0.035 A 
HETATM    5  C19 UNL     1      25.740   6.067  49.633  1.00  0.00     0.056 A 
HETATM    6  C20 UNL     1      25.000   5.218  50.429  1.00  0.00     0.069 A 
HETATM    7 CL1  UNL     1      23.610   5.808  51.354  1.00  0.00    -0.081 Cl
ENDROOT
BRANCH   4   8
HETATM    8  N1  UNL     1      27.591   6.569  48.065  1.00  0.00    -0.341 N 
HETATM    9  H10 UNL     1      27.045   6.979  47.258  1.00  0.00     0.167 HD
BRANCH   8  10
HETATM   10  C11 UNL     1      28.951   6.935  48.217  1.00  0.00     0.133 A 
HETATM   11  C12 UNL     1      29.896   6.052  47.740  1.00  0.00     0.100 A 
HETATM   12  C13 UNL     1      31.255   6.247  47.805  1.00  0.00     0.130 A 
HETATM   13  N3  UNL     1      31.647   7.395  48.383  1.00  0.00    -0.224 NA
HETATM   14  C18 UNL     1      30.747   8.287  48.863  1.00  0.00     0.237 A 
HETATM   15  N4  UNL     1      29.441   8.028  48.765  1.00  0.00    -0.224 NA
BRANCH  12  16
HETATM   16  N2  UNL     1      32.206   5.321  47.305  1.00  0.00    -0.366 N 
HETATM   17  C14 UNL     1      33.135   5.562  46.213  1.00  0.00     0.124 C 
HETATM   18  C15 UNL     1      32.878   4.293  45.389  1.00  0.00     0.021 C 
HETATM   19  C16 UNL     1      32.537   3.235  46.417  1.00  0.00     0.021 C 
HETATM   20  C17 UNL     1      32.474   3.965  47.743  1.00  0.00     0.124 C 
ENDBRANCH  12  16
ENDBRANCH   8  10
ENDBRANCH   4   8
BRANCH   1  21
HETATM   21  O1  UNL     1      24.593   3.076  51.302  1.00  0.00    -0.345 OA
BRANCH  21  22
HETATM   22  C6  UNL     1      24.736   1.713  51.528  1.00  0.00     0.214 C 
BRANCH  22  23
HETATM   23  C5  UNL     1      25.820   1.417  52.493  1.00  0.00    -0.037 A 
HETATM   24  C4  UNL     1      26.308   0.040  52.267  1.00  0.00     0.006 A 
HETATM   25  C3  UNL     1      27.292  -0.244  53.136  1.00  0.00    -0.015 A 
HETATM   26  C2  UNL     1      27.531   0.925  54.003  1.00  0.00     0.060 A 
HETATM   27  C21 UNL     1      26.542   1.912  53.504  1.00  0.00    -0.007 A 
BRANCH  26  28
HETATM   28  C1  UNL     1      28.902   1.531  53.775  1.00  0.00     0.234 C 
HETATM   29  F1  UNL     1      28.721   2.906  53.771  1.00  0.00    -0.254 F 
ENDBRANCH  26  28
ENDBRANCH  22  23
ENDBRANCH  21  22
ENDBRANCH   1  21
TORSDOF 7
ENDMDL
MODEL 3
REMARK VINA RESULT:      -8.1      1.649      2.203
REMARK  7 active torsions:
REMARK  status: ('A' for Active; 'I' for Inactive)
REMARK    1  A    between atoms: C1_2  and  C2_3 
REMARK    2  A    between atoms: C5_6  and  C6_7 
REMARK    3  A    between atoms: C6_7  and  O1_8 
REMARK    4  A    between atoms: O1_8  and  C7_9 
REMARK    5  A    between atoms: C10_12  and  N1_13 
REMARK    6  A    between atoms: N1_13  and  C11_14 
REMARK    7  A    between atoms: C13_16  and  N2_17 
ROOT
HETATM    1  C7  UNL     1      25.333   3.810  50.431  1.00  0.00     0.091 A 
HETATM    2  C8  UNL     1      26.427   3.415  49.696  1.00  0.00     0.041 A 
HETATM    3  C9  UNL     1      27.152   4.302  48.939  1.00  0.00     0.032 A 
HETATM    4  C10 UNL     1      26.815   5.659  48.873  1.00  0.00     0.035 A 
HETATM    5  C19 UNL     1      25.714   6.013  49.622  1.00  0.00     0.056 A 
HETATM    6  C20 UNL     1      24.971   5.141  50.391  1.00  0.00     0.069 A 
HETATM    7 CL1  UNL     1      23.571   5.703  51.317  1.00  0.00    -0.081 Cl
ENDROOT
BRANCH   4   8
HETATM    8  N1  UNL     1      27.577   6.560  48.083  1.00  0.00    -0.341 N 
HETATM    9  H10 UNL     1      27.033   6.999  47.291  1.00  0.00     0.167 HD
BRANCH   8  10
HETATM   10  C11 UNL     1      28.940   6.914  48.246  1.00  0.00     0.133 A 
HETATM   11  C12 UNL     1      29.880   6.026  47.768  1.00  0.00     0.100 A 
HETATM   12  C13 UNL     1      31.239   6.209  47.841  1.00  0.00     0.130 A 
HETATM   13  N3  UNL     1      31.638   7.350  48.429  1.00  0.00    -0.224 NA
HETATM   14  C18 UNL     1      30.743   8.246  48.910  1.00  0.00     0.237 A 
HETATM   15  N4  UNL     1      29.435   7.999  48.803  1.00  0.00    -0.224 NA
BRANCH  12  16
HETATM   16  N2  UNL     1      32.186   5.279  47.341  1.00  0.00    -0.366 N 
HETATM   17  C14 UNL     1      33.108   5.512  46.242  1.00  0.00     0.124 C 
HETATM   18  C15 UNL     1      32.844   4.238  45.427  1.00  0.00     0.021 C 
HETATM   19  C16 UNL     1      32.508   3.187  46.463  1.00  0.00     0.021 C 
HETATM   20  C17 UNL     1      32.454   3.924  47.785  1.00  0.00     0.124 C 
ENDBRANCH  12  16
ENDBRANCH   8  10
ENDBRANCH   4   8
BRANCH   1  21
HETATM   21  O1  UNL     1      24.565   2.977  51.207  1.00  0.00    -0.345 OA
BRANCH  21  22
HETATM   22  C6  UNL     1      24.974   1.870  51.940  1.00  0.00     0.214 C 
BRANCH  22  23
HETATM   23  C5  UNL     1      23.833   1.026  52.363  1.00  0.00    -0.037 A 
HETATM   24  C4  UNL     1      24.278   0.109  53.434  1.00  0.00     0.006 A 
HETATM   25  C3  UNL     1      23.252  -0.663  53.828  1.00  0.00    -0.015 A 
HETATM   26  C2  UNL     1      22.050  -0.316  53.048  1.00  0.00     0.060 A 
HETATM   27  C21 UNL     1      22.538   0.763  52.156  1.00  0.00    -0.007 A 
BRANCH  26  28
HETATM   28  C1  UNL     1      20.968   0.296  53.916  1.00  0.00     0.234 C 
HETATM   29  F1  UNL     1      21.300  -0.017  55.226  1.00  0.00    -0.254 F 
ENDBRANCH  26  28
ENDBRANCH  22  23
ENDBRANCH  21  22
ENDBRANCH   1  21
TORSDOF 7
ENDMDL
MODEL 4
REMARK VINA RESULT:      -7.9      1.465      2.047
REMARK  7 active torsions:
REMARK  status: ('A' for Active; 'I' for Inactive)
REMARK    1  A    between atoms: C1_2  and  C2_3 
REMARK    2  A    between atoms: C5_6  and  C6_7 
REMARK    3  A    between atoms: C6_7  and  O1_8 
REMARK    4  A    between atoms: O1_8  and  C7_9 
REMARK    5  A    between atoms: C10_12  and  N1_13 
REMARK    6  A    between atoms: N1_13  and  C11_14 
REMARK    7  A    between atoms: C13_16  and  N2_17 
ROOT
HETATM    1  C7  UNL     1      25.361   3.989  50.339  1.00  0.00     0.091 A 
HETATM    2  C8  UNL     1      26.483   3.597  49.644  1.00  0.00     0.041 A 
HETATM    3  C9  UNL     1      27.215   4.479  48.891  1.00  0.00     0.032 A 
HETATM    4  C10 UNL     1      26.860   5.830  48.788  1.00  0.00     0.035 A 
HETATM    5  C19 UNL     1      25.733   6.181  49.498  1.00  0.00     0.056 A 
HETATM    6  C20 UNL     1      24.981   5.313  50.261  1.00  0.00     0.069 A 
HETATM    7 CL1  UNL     1      23.546   5.870  51.135  1.00  0.00    -0.081 Cl
ENDROOT
BRANCH   4   8
HETATM    8  N1  UNL     1      27.631   6.727  48.002  1.00  0.00    -0.341 N 
HETATM    9  H10 UNL     1      27.300   6.811  47.003  1.00  0.00     0.167 HD
BRANCH   8  10
HETATM   10  C11 UNL     1      28.754   7.489  48.410  1.00  0.00     0.133 A 
HETATM   11  C12 UNL     1      30.000   6.955  48.157  1.00  0.00     0.100 A 
HETATM   12  C13 UNL     1      31.191   7.556  48.484  1.00  0.00     0.130 A 
HETATM   13  N3  UNL     1      31.089   8.750  49.093  1.00  0.00    -0.224 NA
HETATM   14  C18 UNL     1      29.881   9.305  49.358  1.00  0.00     0.237 A 
HETATM   15  N4  UNL     1      28.765   8.661  49.011  1.00  0.00    -0.224 NA
BRANCH  12  16
HETATM   16  N2  UNL     1      32.461   6.985  48.212  1.00  0.00    -0.366 N 
HETATM   17  C14 UNL     1      33.417   7.467  47.229  1.00  0.00     0.124 C 
HETATM   18  C15 UNL     1      33.726   6.143  46.518  1.00  0.00     0.021 C 
HETATM   19  C16 UNL     1      33.596   5.091  47.599  1.00  0.00     0.021 C 
HETATM   20  C17 UNL     1      33.088   5.828  48.822  1.00  0.00     0.124 C 
ENDBRANCH  12  16
ENDBRANCH   8  10
ENDBRANCH   4   8
BRANCH   1  21
HETATM   21  O1  UNL     1      24.584   3.158  51.109  1.00  0.00    -0.345 OA
BRANCH  21  22
HETATM   22  C6  UNL     1      24.794   2.763  52.424  1.00  0.00     0.214 C 
BRANCH  22  23
HETATM   23  C5  UNL     1      25.733   1.623  52.523  1.00  0.00    -0.037 A 
HETATM   24  C4  UNL     1      26.464   1.705  53.805  1.00  0.00     0.006 A 
HETATM   25  C3  UNL     1      27.320   0.676  53.909  1.00  0.00    -0.015 A 
HETATM   26  C2  UNL     1      27.222  -0.167  52.702  1.00  0.00     0.060 A 
HETATM   27  C21 UNL     1      26.188   0.530  51.899  1.00  0.00    -0.007 A 
BRANCH  26  28
HETATM   28  C1  UNL     1      26.671  -1.544  53.016  1.00  0.00     0.234 C 
HETATM   29  F1  UNL     1      26.753  -2.270  51.837  1.00  0.00    -0.254 F 
ENDBRANCH  26  28
ENDBRANCH  22  23
ENDBRANCH  21  22
ENDBRANCH   1  21
TORSDOF 7
ENDMDL
MODEL 5
REMARK VINA RESULT:      -7.8      3.913      8.207
REMARK  7 active torsions:
REMARK  status: ('A' for Active; 'I' for Inactive)
REMARK    1  A    between atoms: C1_2  and  C2_3 
REMARK    2  A    between atoms: C5_6  and  C6_7 
REMARK    3  A    between atoms: C6_7  and  O1_8 
REMARK    4  A    between atoms: O1_8  and  C7_9 
REMARK    5  A    between atoms: C10_12  and  N1_13 
REMARK    6  A    between atoms: N1_13  and  C11_14 
REMARK    7  A    between atoms: C13_16  and  N2_17 
ROOT
HETATM    1  C7  UNL     1      27.729   7.210  48.537  1.00  0.00     0.091 A 
HETATM    2  C8  UNL     1      28.359   6.024  48.234  1.00  0.00     0.041 A 
HETATM    3  C9  UNL     1      27.814   4.809  48.562  1.00  0.00     0.032 A 
HETATM    4  C10 UNL     1      26.586   4.709  49.227  1.00  0.00     0.035 A 
HETATM    5  C19 UNL     1      25.989   5.917  49.512  1.00  0.00     0.056 A 
HETATM    6  C20 UNL     1      26.516   7.151  49.192  1.00  0.00     0.069 A 
HETATM    7 CL1  UNL     1      25.665   8.646  49.607  1.00  0.00    -0.081 Cl
ENDROOT
BRANCH   4   8
HETATM    8  N1  UNL     1      26.039   3.441  49.559  1.00  0.00    -0.341 N 
HETATM    9  H10 UNL     1      25.921   2.797  48.730  1.00  0.00     0.167 HD
BRANCH   8  10
HETATM   10  C11 UNL     1      25.653   2.973  50.840  1.00  0.00     0.133 A 
HETATM   11  C12 UNL     1      26.643   2.439  51.637  1.00  0.00     0.100 A 
HETATM   12  C13 UNL     1      26.446   1.941  52.903  1.00  0.00     0.130 A 
HETATM   13  N3  UNL     1      25.182   1.998  53.357  1.00  0.00    -0.224 NA
HETATM   14  C18 UNL     1      24.184   2.517  52.601  1.00  0.00     0.237 A 
HETATM   15  N4  UNL     1      24.452   2.982  51.379  1.00  0.00    -0.224 NA
BRANCH  12  16
HETATM   16  N2  UNL     1      27.483   1.397  53.703  1.00  0.00    -0.366 N 
HETATM   17  C14 UNL     1      28.832   1.925  53.822  1.00  0.00     0.124 C 
HETATM   18  C15 UNL     1      29.623   0.630  53.594  1.00  0.00     0.021 C 
HETATM   19  C16 UNL     1      28.743  -0.459  54.169  1.00  0.00     0.021 C 
HETATM   20  C17 UNL     1      27.452   0.229  54.562  1.00  0.00     0.124 C 
ENDBRANCH  12  16
ENDBRANCH   8  10
ENDBRANCH   4   8
BRANCH   1  21
HETATM   21  O1  UNL     1      28.219   8.459  48.239  1.00  0.00    -0.345 OA
BRANCH  21  22
HETATM   22  C6  UNL     1      29.245   9.150  48.868  1.00  0.00     0.214 C 
BRANCH  22  23
HETATM   23  C5  UNL     1      30.577   8.787  48.330  1.00  0.00    -0.037 A 
HETATM   24  C4  UNL     1      31.409   8.241  49.422  1.00  0.00     0.006 A 
HETATM   25  C3  UNL     1      32.621   7.907  48.949  1.00  0.00    -0.015 A 
HETATM   26  C2  UNL     1      32.682   8.206  47.506  1.00  0.00     0.060 A 
HETATM   27  C21 UNL     1      31.334   8.758  47.228  1.00  0.00    -0.007 A 
BRANCH  26  28
HETATM   28  C1  UNL     1      32.817   6.949  46.671  1.00  0.00     0.234 C 
HETATM   29  F1  UNL     1      31.718   6.927  45.824  1.00  0.00    -0.254 F 
ENDBRANCH  26  28
ENDBRANCH  22  23
ENDBRANCH  21  22
ENDBRANCH   1  21
TORSDOF 7
ENDMDL
MODEL 6
REMARK VINA RESULT:      -7.7      3.653      8.955
REMARK  7 active torsions:
REMARK  status: ('A' for Active; 'I' for Inactive)
REMARK    1  A    between atoms: C1_2  and  C2_3 
REMARK    2  A    between atoms: C5_6  and  C6_7 
REMARK    3  A    between atoms: C6_7  and  O1_8 
REMARK    4  A    between atoms: O1_8  and  C7_9 
REMARK    5  A    between atoms: C10_12  and  N1_13 
REMARK    6  A    between atoms: N1_13  and  C11_14 
REMARK    7  A    between atoms: C13_16  and  N2_17 
ROOT
HETATM    1  C7  UNL     1      27.134   6.657  48.805  1.00  0.00     0.091 A 
HETATM    2  C8  UNL     1      27.511   5.353  48.575  1.00  0.00     0.041 A 
HETATM    3  C9  UNL     1      26.777   4.292  49.040  1.00  0.00     0.032 A 
HETATM    4  C10 UNL     1      25.601   4.478  49.778  1.00  0.00     0.035 A 
HETATM    5  C19 UNL     1      25.259   5.797  49.986  1.00  0.00     0.056 A 
HETATM    6  C20 UNL     1      25.980   6.879  49.528  1.00  0.00     0.069 A 
HETATM    7 CL1  UNL     1      25.450   8.536  49.854  1.00  0.00    -0.081 Cl
ENDROOT
BRANCH   4   8
HETATM    8  N1  UNL     1      24.855   3.367  50.251  1.00  0.00    -0.341 N 
HETATM    9  H10 UNL     1      24.014   3.133  49.657  1.00  0.00     0.167 HD
BRANCH   8  10
HETATM   10  C11 UNL     1      25.118   2.573  51.396  1.00  0.00     0.133 A 
HETATM   11  C12 UNL     1      24.136   1.685  51.783  1.00  0.00     0.100 A 
HETATM   12  C13 UNL     1      24.224   0.842  52.864  1.00  0.00     0.130 A 
HETATM   13  N3  UNL     1      25.366   0.921  53.567  1.00  0.00    -0.224 NA
HETATM   14  C18 UNL     1      26.353   1.781  53.216  1.00  0.00     0.237 A 
HETATM   15  N4  UNL     1      26.196   2.571  52.152  1.00  0.00    -0.224 NA
BRANCH  12  16
HETATM   16  N2  UNL     1      23.198  -0.062  53.240  1.00  0.00    -0.366 N 
HETATM   17  C14 UNL     1      21.941  -0.262  52.539  1.00  0.00     0.124 C 
HETATM   18  C15 UNL     1      20.977  -0.158  53.728  1.00  0.00     0.021 C 
HETATM   19  C16 UNL     1      21.759  -0.712  54.900  1.00  0.00     0.021 C 
HETATM   20  C17 UNL     1      23.155  -0.970  54.371  1.00  0.00     0.124 C 
ENDBRANCH  12  16
ENDBRANCH   8  10
ENDBRANCH   4   8
BRANCH   1  21
HETATM   21  O1  UNL     1      27.823   7.763  48.370  1.00  0.00    -0.345 OA
BRANCH  21  22
HETATM   22  C6  UNL     1      28.995   8.300  48.885  1.00  0.00     0.214 C 
BRANCH  22  23
HETATM   23  C5  UNL     1      30.196   7.565  48.427  1.00  0.00    -0.037 A 
HETATM   24  C4  UNL     1      31.349   7.945  49.271  1.00  0.00     0.006 A 
HETATM   25  C3  UNL     1      32.447   7.285  48.868  1.00  0.00    -0.015 A 
HETATM   26  C2  UNL     1      32.104   6.417  47.725  1.00  0.00     0.060 A 
HETATM   27  C21 UNL     1      30.656   6.678  47.538  1.00  0.00    -0.007 A 
BRANCH  26  28
HETATM   28  C1  UNL     1      32.238   4.947  48.070  1.00  0.00     0.234 C 
HETATM   29  F1  UNL     1      31.298   4.281  47.297  1.00  0.00    -0.254 F 
ENDBRANCH  26  28
ENDBRANCH  22  23
ENDBRANCH  21  22
ENDBRANCH   1  21
TORSDOF 7
ENDMDL
MODEL 7
REMARK VINA RESULT:      -7.6      7.397     11.844
REMARK  7 active torsions:
REMARK  status: ('A' for Active; 'I' for Inactive)
REMARK    1  A    between atoms: C1_2  and  C2_3 
REMARK    2  A    between atoms: C5_6  and  C6_7 
REMARK    3  A    between atoms: C6_7  and  O1_8 
REMARK    4  A    between atoms: O1_8  and  C7_9 
REMARK    5  A    between atoms: C10_12  and  N1_13 
REMARK    6  A    between atoms: N1_13  and  C11_14 
REMARK    7  A    between atoms: C13_16  and  N2_17 
ROOT
HETATM    1  C7  UNL     1      22.961   0.347  52.837  1.00  0.00     0.091 A 
HETATM    2  C8  UNL     1      22.847   1.055  51.662  1.00  0.00     0.041 A 
HETATM    3  C9  UNL     1      21.637   1.248  51.046  1.00  0.00     0.032 A 
HETATM    4  C10 UNL     1      20.449   0.733  51.579  1.00  0.00     0.035 A 
HETATM    5  C19 UNL     1      20.606   0.032  52.754  1.00  0.00     0.056 A 
HETATM    6  C20 UNL     1      21.811  -0.176  53.393  1.00  0.00     0.069 A 
HETATM    7 CL1  UNL     1      21.901  -1.095  54.902  1.00  0.00    -0.081 Cl
ENDROOT
BRANCH   4   8
HETATM    8  N1  UNL     1      19.206   0.944  50.925  1.00  0.00    -0.341 N 
HETATM    9  H10 UNL     1      18.849   0.097  50.404  1.00  0.00     0.167 HD
BRANCH   8  10
HETATM   10  C11 UNL     1      18.430   2.130  50.902  1.00  0.00     0.133 A 
HETATM   11  C12 UNL     1      17.302   2.156  51.694  1.00  0.00     0.100 A 
HETATM   12  C13 UNL     1      16.439   3.220  51.793  1.00  0.00     0.130 A 
HETATM   13  N3  UNL     1      16.755   4.293  51.047  1.00  0.00    -0.224 NA
HETATM   14  C18 UNL     1      17.856   4.303  50.256  1.00  0.00     0.237 A 
HETATM   15  N4  UNL     1      18.648   3.229  50.212  1.00  0.00    -0.224 NA
BRANCH  12  16
HETATM   16  N2  UNL     1      15.284   3.222  52.617  1.00  0.00    -0.366 N 
HETATM   17  C14 UNL     1      14.364   2.111  52.794  1.00  0.00     0.124 C 
HETATM   18  C15 UNL     1      13.039   2.850  52.565  1.00  0.00     0.021 C 
HETATM   19  C16 UNL     1      13.290   4.250  53.084  1.00  0.00     0.021 C 
HETATM   20  C17 UNL     1      14.760   4.290  53.448  1.00  0.00     0.124 C 
ENDBRANCH  12  16
ENDBRANCH   8  10
ENDBRANCH   4   8
BRANCH   1  21
HETATM   21  O1  UNL     1      24.139   0.116  53.504  1.00  0.00    -0.345 OA
BRANCH  21  22
HETATM   22  C6  UNL     1      25.196  -0.699  53.121  1.00  0.00     0.214 C 
BRANCH  22  23
HETATM   23  C5  UNL     1      26.490  -0.234  53.671  1.00  0.00    -0.037 A 
HETATM   24  C4  UNL     1      27.590  -0.972  53.016  1.00  0.00     0.006 A 
HETATM   25  C3  UNL     1      28.771  -0.561  53.506  1.00  0.00    -0.015 A 
HETATM   26  C2  UNL     1      28.542   0.482  54.523  1.00  0.00     0.060 A 
HETATM   27  C21 UNL     1      27.064   0.604  54.541  1.00  0.00    -0.007 A 
BRANCH  26  28
HETATM   28  C1  UNL     1      29.082   1.829  54.086  1.00  0.00     0.234 C 
HETATM   29  F1  UNL     1      27.976   2.629  53.841  1.00  0.00    -0.254 F 
ENDBRANCH  26  28
ENDBRANCH  22  23
ENDBRANCH  21  22
ENDBRANCH   1  21
TORSDOF 7
ENDMDL
MODEL 8
REMARK VINA RESULT:      -7.6      3.653      4.555
REMARK  7 active torsions:
REMARK  status: ('A' for Active; 'I' for Inactive)
REMARK    1  A    between atoms: C1_2  and  C2_3 
REMARK    2  A    between atoms: C5_6  and  C6_7 
REMARK    3  A    between atoms: C6_7  and  O1_8 
REMARK    4  A    between atoms: O1_8  and  C7_9 
REMARK    5  A    between atoms: C10_12  and  N1_13 
REMARK    6  A    between atoms: N1_13  and  C11_14 
REMARK    7  A    between atoms: C13_16  and  N2_17 
ROOT
HETATM    1  C7  UNL     1      23.580   4.715  49.772  1.00  0.00     0.091 A 
HETATM    2  C8  UNL     1      24.679   5.026  49.004  1.00  0.00     0.041 A 
HETATM    3  C9  UNL     1      25.540   6.038  49.345  1.00  0.00     0.032 A 
HETATM    4  C10 UNL     1      25.346   6.813  50.496  1.00  0.00     0.035 A 
HETATM    5  C19 UNL     1      24.236   6.469  51.235  1.00  0.00     0.056 A 
HETATM    6  C20 UNL     1      23.357   5.456  50.914  1.00  0.00     0.069 A 
HETATM    7 CL1  UNL     1      21.958   5.098  51.937  1.00  0.00    -0.081 Cl
ENDROOT
BRANCH   4   8
HETATM    8  N1  UNL     1      26.248   7.857  50.831  1.00  0.00    -0.341 N 
HETATM    9  H10 UNL     1      26.655   7.774  51.802  1.00  0.00     0.167 HD
BRANCH   8  10
HETATM   10  C11 UNL     1      26.640   8.954  50.023  1.00  0.00     0.133 A 
HETATM   11  C12 UNL     1      27.993   9.179  49.885  1.00  0.00     0.100 A 
HETATM   12  C13 UNL     1      28.547  10.194  49.142  1.00  0.00     0.130 A 
HETATM   13  N3  UNL     1      27.669  11.002  48.522  1.00  0.00    -0.224 NA
HETATM   14  C18 UNL     1      26.332  10.811  48.635  1.00  0.00     0.237 A 
HETATM   15  N4  UNL     1      25.868   9.802  49.376  1.00  0.00    -0.224 NA
BRANCH  12  16
HETATM   16  N2  UNL     1      29.944  10.403  49.016  1.00  0.00    -0.366 N 
HETATM   17  C14 UNL     1      30.609  11.695  48.968  1.00  0.00     0.124 C 
HETATM   18  C15 UNL     1      31.491  11.471  47.733  1.00  0.00     0.021 C 
HETATM   19  C16 UNL     1      31.817   9.993  47.762  1.00  0.00     0.021 C 
HETATM   20  C17 UNL     1      31.005   9.422  48.907  1.00  0.00     0.124 C 
ENDBRANCH  12  16
ENDBRANCH   8  10
ENDBRANCH   4   8
BRANCH   1  21
HETATM   21  O1  UNL     1      22.680   3.717  49.488  1.00  0.00    -0.345 OA
BRANCH  21  22
HETATM   22  C6  UNL     1      22.906   2.347  49.440  1.00  0.00     0.214 C 
BRANCH  22  23
HETATM   23  C5  UNL     1      22.843   1.722  50.781  1.00  0.00    -0.037 A 
HETATM   24  C4  UNL     1      21.664   0.834  50.848  1.00  0.00     0.006 A 
HETATM   25  C3  UNL     1      21.594   0.259  52.060  1.00  0.00    -0.015 A 
HETATM   26  C2  UNL     1      22.723   0.723  52.887  1.00  0.00     0.060 A 
HETATM   27  C21 UNL     1      23.443   1.643  51.973  1.00  0.00    -0.007 A 
BRANCH  26  28
HETATM   28  C1  UNL     1      23.685  -0.401  53.217  1.00  0.00     0.234 C 
HETATM   29  F1  UNL     1      24.924  -0.003  52.737  1.00  0.00    -0.254 F 
ENDBRANCH  26  28
ENDBRANCH  22  23
ENDBRANCH  21  22
ENDBRANCH   1  21
TORSDOF 7
ENDMDL
MODEL 9
REMARK VINA RESULT:      -7.6      3.765      8.333
REMARK  7 active torsions:
REMARK  status: ('A' for Active; 'I' for Inactive)
REMARK    1  A    between atoms: C1_2  and  C2_3 
REMARK    2  A    between atoms: C5_6  and  C6_7 
REMARK    3  A    between atoms: C6_7  and  O1_8 
REMARK    4  A    between atoms: O1_8  and  C7_9 
REMARK    5  A    between atoms: C10_12  and  N1_13 
REMARK    6  A    between atoms: N1_13  and  C11_14 
REMARK    7  A    between atoms: C13_16  and  N2_17 
ROOT
HETATM    1  C7  UNL     1      28.622   6.314  48.039  1.00  0.00     0.091 A 
HETATM    2  C8  UNL     1      28.452   5.005  48.428  1.00  0.00     0.041 A 
HETATM    3  C9  UNL     1      27.241   4.528  48.862  1.00  0.00     0.032 A 
HETATM    4  C10 UNL     1      26.110   5.350  48.934  1.00  0.00     0.035 A 
HETATM    5  C19 UNL     1      26.323   6.652  48.536  1.00  0.00     0.056 A 
HETATM    6  C20 UNL     1      27.529   7.154  48.096  1.00  0.00     0.069 A 
HETATM    7 CL1  UNL     1      27.693   8.847  47.607  1.00  0.00    -0.081 Cl
ENDROOT
BRANCH   4   8
HETATM    8  N1  UNL     1      24.866   4.838  49.387  1.00  0.00    -0.341 N 
HETATM    9  H10 UNL     1      24.103   4.864  48.658  1.00  0.00     0.167 HD
BRANCH   8  10
HETATM   10  C11 UNL     1      24.560   4.316  50.669  1.00  0.00     0.133 A 
HETATM   11  C12 UNL     1      25.035   3.056  50.964  1.00  0.00     0.100 A 
HETATM   12  C13 UNL     1      24.833   2.400  52.154  1.00  0.00     0.130 A 
HETATM   13  N3  UNL     1      24.115   3.073  53.070  1.00  0.00    -0.224 NA
HETATM   14  C18 UNL     1      23.633   4.313  52.816  1.00  0.00     0.237 A 
HETATM   15  N4  UNL     1      23.870   4.887  51.634  1.00  0.00    -0.224 NA
BRANCH  12  16
HETATM   16  N2  UNL     1      25.333   1.102  52.431  1.00  0.00    -0.366 N 
HETATM   17  C14 UNL     1      24.783   0.168  53.399  1.00  0.00     0.124 C 
HETATM   18  C15 UNL     1      26.074  -0.211  54.136  1.00  0.00     0.021 C 
HETATM   19  C16 UNL     1      27.153  -0.131  53.077  1.00  0.00     0.021 C 
HETATM   20  C17 UNL     1      26.469   0.419  51.842  1.00  0.00     0.124 C 
ENDBRANCH  12  16
ENDBRANCH   8  10
ENDBRANCH   4   8
BRANCH   1  21
HETATM   21  O1  UNL     1      29.805   6.855  47.596  1.00  0.00    -0.345 OA
BRANCH  21  22
HETATM   22  C6  UNL     1      31.055   6.789  48.196  1.00  0.00     0.214 C 
BRANCH  22  23
HETATM   23  C5  UNL     1      31.892   5.706  47.631  1.00  0.00    -0.037 A 
HETATM   24  C4  UNL     1      32.987   6.302  46.837  1.00  0.00     0.006 A 
HETATM   25  C3  UNL     1      33.755   5.331  46.317  1.00  0.00    -0.015 A 
HETATM   26  C2  UNL     1      33.226   4.017  46.728  1.00  0.00     0.060 A 
HETATM   27  C21 UNL     1      32.050   4.380  47.554  1.00  0.00    -0.007 A 
BRANCH  26  28
HETATM   28  C1  UNL     1      34.186   3.279  47.641  1.00  0.00     0.234 C 
HETATM   29  F1  UNL     1      35.383   3.183  46.948  1.00  0.00    -0.254 F 
ENDBRANCH  26  28
ENDBRANCH  22  23
ENDBRANCH  21  22
ENDBRANCH   1  21
TORSDOF 7
ENDMDL
