MODEL 1
REMARK VINA RESULT:      -8.8      0.000      0.000
REMARK  2 active torsions:
REMARK  status: ('A' for Active; 'I' for Inactive)
REMARK    1  A    between atoms: C10_14  and  C11_15 
REMARK    2  A    between atoms: C12_16  and  C13_17 
ROOT
HETATM    1  C13 UNL     1      25.564   5.622  49.205  1.00  0.00    -0.036 A 
HETATM    2  C14 UNL     1      24.364   5.951  48.628  1.00  0.00     0.013 A 
HETATM    3  C15 UNL     1      24.250   6.896  47.631  1.00  0.00     0.023 A 
HETATM    4  C16 UNL     1      25.359   7.566  47.158  1.00  0.00     0.044 A 
HETATM    5  C17 UNL     1      25.292   8.555  46.120  1.00  0.00     0.099 C 
HETATM    6  N4  UNL     1      25.242   9.363  45.294  1.00  0.00    -0.191 NA
HETATM    7  C18 UNL     1      26.580   7.257  47.716  1.00  0.00     0.023 A 
HETATM    8  C19 UNL     1      26.652   6.308  48.710  1.00  0.00     0.013 A 
ENDROOT
BRANCH   1   9
HETATM    9  C12 UNL     1      25.665   4.620  50.258  1.00  0.00     0.015 C 
HETATM   10  C11 UNL     1      26.448   3.579  50.167  1.00  0.00     0.051 C 
BRANCH  10  11
HETATM   11  C10 UNL     1      26.507   2.600  51.264  1.00  0.00     0.125 C 
HETATM   12  N3  UNL     1      27.538   2.467  52.066  1.00  0.00    -0.225 NA
HETATM   13  C9  UNL     1      27.523   1.494  53.110  1.00  0.00     0.231 C 
HETATM   14  N2  UNL     1      27.606   0.453  52.362  1.00  0.00    -0.261 NA
HETATM   15  C8  UNL     1      27.624  -0.872  52.993  1.00  0.00     0.297 C 
HETATM   16  N1  UNL     1      26.301  -1.428  52.739  1.00  0.00    -0.284 NA
HETATM   17  C7  UNL     1      25.251  -0.730  52.963  1.00  0.00     0.093 C 
HETATM   18  C6  UNL     1      24.452   0.432  53.368  1.00  0.00     0.064 C 
HETATM   19  C2  UNL     1      24.303   1.515  52.366  1.00  0.00     0.057 C 
HETATM   20  C5  UNL     1      23.002   0.008  53.637  1.00  0.00     0.082 C 
HETATM   21  C1  UNL     1      24.018   2.826  53.067  1.00  0.00     0.044 C 
HETATM   22  C3  UNL     1      23.058   1.134  51.616  1.00  0.00     0.042 C 
HETATM   23  N5  UNL     1      25.405   1.732  51.487  1.00  0.00    -0.362 N 
HETATM   24  C4  UNL     1      22.327   0.290  52.325  1.00  0.00     0.093 C 
HETATM   25  F1  UNL     1      21.141  -0.250  51.938  1.00  0.00    -0.211 F 
HETATM   26  H18 UNL     1      25.614   1.120  50.662  1.00  0.00     0.162 HD
ENDBRANCH  10  11
ENDBRANCH   1   9
TORSDOF 2
ENDMDL
MODEL 2
REMARK VINA RESULT:      -8.6      2.538      3.806
REMARK  2 active torsions:
REMARK  status: ('A' for Active; 'I' for Inactive)
REMARK    1  A    between atoms: C10_14  and  C11_15 
REMARK    2  A    between atoms: C12_16  and  C13_17 
ROOT
HETATM    1  C13 UNL     1      26.795   5.230  48.898  1.00  0.00    -0.036 A 
HETATM    2  C14 UNL     1      28.098   5.075  48.499  1.00  0.00     0.013 A 
HETATM    3  C15 UNL     1      28.880   6.129  48.078  1.00  0.00     0.023 A 
HETATM    4  C16 UNL     1      28.379   7.413  48.040  1.00  0.00     0.044 A 
HETATM    5  C17 UNL     1      29.154   8.543  47.612  1.00  0.00     0.099 C 
HETATM    6  N4  UNL     1      29.770   9.455  47.256  1.00  0.00    -0.191 NA
HETATM    7  C18 UNL     1      27.074   7.603  48.435  1.00  0.00     0.023 A 
HETATM    8  C19 UNL     1      26.324   6.525  48.848  1.00  0.00     0.013 A 
ENDROOT
BRANCH   1   9
HETATM    9  C12 UNL     1      25.984   4.104  49.340  1.00  0.00     0.015 C 
HETATM   10  C11 UNL     1      25.213   4.161  50.392  1.00  0.00     0.051 C 
BRANCH  10  11
HETATM   11  C10 UNL     1      24.416   2.990  50.790  1.00  0.00     0.125 C 
HETATM   12  N3  UNL     1      23.409   2.521  50.088  1.00  0.00    -0.225 NA
HETATM   13  C9  UNL     1      22.683   1.379  50.538  1.00  0.00     0.231 C 
HETATM   14  N2  UNL     1      22.099   1.940  51.535  1.00  0.00    -0.261 NA
HETATM   15  C8  UNL     1      21.194   1.140  52.368  1.00  0.00     0.297 C 
HETATM   16  N1  UNL     1      21.933   0.895  53.600  1.00  0.00    -0.284 NA
HETATM   17  C7  UNL     1      23.145   0.484  53.557  1.00  0.00     0.093 C 
HETATM   18  C6  UNL     1      24.414   0.050  52.959  1.00  0.00     0.064 C 
HETATM   19  C2  UNL     1      25.330   1.122  52.501  1.00  0.00     0.057 C 
HETATM   20  C5  UNL     1      25.256  -0.704  53.998  1.00  0.00     0.082 C 
HETATM   21  C1  UNL     1      26.241   0.587  51.417  1.00  0.00     0.044 C 
HETATM   22  C3  UNL     1      26.186   1.395  53.704  1.00  0.00     0.042 C 
HETATM   23  N5  UNL     1      24.724   2.313  52.000  1.00  0.00    -0.362 N 
HETATM   24  C4  UNL     1      26.147   0.375  54.545  1.00  0.00     0.093 C 
HETATM   25  F1  UNL     1      26.808   0.299  55.731  1.00  0.00    -0.211 F 
HETATM   26  H18 UNL     1      24.312   3.053  52.616  1.00  0.00     0.162 HD
ENDBRANCH  10  11
ENDBRANCH   1   9
TORSDOF 2
ENDMDL
MODEL 3
REMARK VINA RESULT:      -8.5      4.513      8.516
REMARK  2 active torsions:
REMARK  status: ('A' for Active; 'I' for Inactive)
REMARK    1  A    between atoms: C10_14  and  C11_15 
REMARK    2  A    between atoms: C12_16  and  C13_17 
ROOT
HETATM    1  C13 UNL     1      25.490   3.249  49.914  1.00  0.00    -0.036 A 
HETATM    2  C14 UNL     1      25.323   2.456  51.021  1.00  0.00     0.013 A 
HETATM    3  C15 UNL     1      24.116   1.876  51.347  1.00  0.00     0.023 A 
HETATM    4  C16 UNL     1      23.000   2.068  50.560  1.00  0.00     0.044 A 
HETATM    5  C17 UNL     1      21.723   1.483  50.858  1.00  0.00     0.099 C 
HETATM    6  N4  UNL     1      20.689   1.025  51.099  1.00  0.00    -0.191 NA
HETATM    7  C18 UNL     1      23.134   2.858  49.441  1.00  0.00     0.023 A 
HETATM    8  C19 UNL     1      24.356   3.422  49.149  1.00  0.00     0.013 A 
ENDROOT
BRANCH   1   9
HETATM    9  C12 UNL     1      26.773   3.855  49.585  1.00  0.00     0.015 C 
HETATM   10  C11 UNL     1      26.873   4.967  48.907  1.00  0.00     0.051 C 
BRANCH  10  11
HETATM   11  C10 UNL     1      28.198   5.531  48.604  1.00  0.00     0.125 C 
HETATM   12  N3  UNL     1      29.195   4.829  48.118  1.00  0.00    -0.225 NA
HETATM   13  C9  UNL     1      30.452   5.447  47.848  1.00  0.00     0.231 C 
HETATM   14  N2  UNL     1      30.805   5.637  49.068  1.00  0.00    -0.261 NA
HETATM   15  C8  UNL     1      32.095   6.281  49.341  1.00  0.00     0.297 C 
HETATM   16  N1  UNL     1      31.758   7.634  49.768  1.00  0.00    -0.284 NA
HETATM   17  C7  UNL     1      30.926   8.337  49.095  1.00  0.00     0.093 C 
HETATM   18  C6  UNL     1      29.980   8.667  48.022  1.00  0.00     0.064 C 
HETATM   19  C2  UNL     1      28.596   8.161  48.181  1.00  0.00     0.057 C 
HETATM   20  C5  UNL     1      29.785  10.187  47.941  1.00  0.00     0.082 C 
HETATM   21  C1  UNL     1      27.938   8.034  46.823  1.00  0.00     0.044 C 
HETATM   22  C3  UNL     1      27.894   9.271  48.910  1.00  0.00     0.042 C 
HETATM   23  N5  UNL     1      28.443   6.909  48.848  1.00  0.00    -0.362 N 
HETATM   24  C4  UNL     1      28.558  10.408  48.778  1.00  0.00     0.093 C 
HETATM   25  F1  UNL     1      28.195  11.604  49.313  1.00  0.00    -0.211 F 
HETATM   26  H18 UNL     1      28.507   6.799  49.888  1.00  0.00     0.162 HD
ENDBRANCH  10  11
ENDBRANCH   1   9
TORSDOF 2
ENDMDL
MODEL 4
REMARK VINA RESULT:      -8.3      5.884      9.281
REMARK  2 active torsions:
REMARK  status: ('A' for Active; 'I' for Inactive)
REMARK    1  A    between atoms: C10_14  and  C11_15 
REMARK    2  A    between atoms: C12_16  and  C13_17 
ROOT
HETATM    1  C13 UNL     1      27.260   5.334  48.651  1.00  0.00    -0.036 A 
HETATM    2  C14 UNL     1      26.997   4.096  49.183  1.00  0.00     0.013 A 
HETATM    3  C15 UNL     1      25.728   3.692  49.539  1.00  0.00     0.023 A 
HETATM    4  C16 UNL     1      24.645   4.529  49.374  1.00  0.00     0.044 A 
HETATM    5  C17 UNL     1      23.305   4.153  49.728  1.00  0.00     0.099 C 
HETATM    6  N4  UNL     1      22.226   3.861  50.023  1.00  0.00    -0.191 NA
HETATM    7  C18 UNL     1      24.875   5.778  48.843  1.00  0.00     0.023 A 
HETATM    8  C19 UNL     1      26.156   6.145  48.500  1.00  0.00     0.013 A 
ENDROOT
BRANCH   1   9
HETATM    9  C12 UNL     1      28.608   5.743  48.281  1.00  0.00     0.015 C 
HETATM   10  C11 UNL     1      28.859   6.871  47.673  1.00  0.00     0.051 C 
BRANCH  10  11
HETATM   11  C10 UNL     1      30.241   7.232  47.323  1.00  0.00     0.125 C 
HETATM   12  N3  UNL     1      30.643   8.465  47.116  1.00  0.00    -0.225 NA
HETATM   13  C9  UNL     1      32.002   8.738  46.781  1.00  0.00     0.231 C 
HETATM   14  N2  UNL     1      31.980   8.242  45.596  1.00  0.00    -0.261 NA
HETATM   15  C8  UNL     1      33.206   8.277  44.790  1.00  0.00     0.297 C 
HETATM   16  N1  UNL     1      33.701   6.906  44.798  1.00  0.00    -0.284 NA
HETATM   17  C7  UNL     1      33.786   6.254  45.897  1.00  0.00     0.093 C 
HETATM   18  C6  UNL     1      33.682   6.000  47.339  1.00  0.00     0.064 C 
HETATM   19  C2  UNL     1      32.340   5.628  47.849  1.00  0.00     0.057 C 
HETATM   20  C5  UNL     1      34.546   4.793  47.726  1.00  0.00     0.082 C 
HETATM   21  C1  UNL     1      32.234   5.985  49.317  1.00  0.00     0.044 C 
HETATM   22  C3  UNL     1      32.329   4.129  47.757  1.00  0.00     0.042 C 
HETATM   23  N5  UNL     1      31.218   6.209  47.187  1.00  0.00    -0.362 N 
HETATM   24  C4  UNL     1      33.563   3.657  47.687  1.00  0.00     0.093 C 
HETATM   25  F1  UNL     1      33.905   2.345  47.594  1.00  0.00    -0.211 F 
HETATM   26  H18 UNL     1      30.859   5.875  46.261  1.00  0.00     0.162 HD
ENDBRANCH  10  11
ENDBRANCH   1   9
TORSDOF 2
ENDMDL
MODEL 5
REMARK VINA RESULT:      -8.2      3.287      4.530
REMARK  2 active torsions:
REMARK  status: ('A' for Active; 'I' for Inactive)
REMARK    1  A    between atoms: C10_14  and  C11_15 
REMARK    2  A    between atoms: C12_16  and  C13_17 
ROOT
HETATM    1  C13 UNL     1      23.281   5.043  51.517  1.00  0.00    -0.036 A 
HETATM    2  C14 UNL     1      24.080   6.087  51.126  1.00  0.00     0.013 A 
HETATM    3  C15 UNL     1      23.576   7.246  50.576  1.00  0.00     0.023 A 
HETATM    4  C16 UNL     1      22.220   7.412  50.390  1.00  0.00     0.044 A 
HETATM    5  C17 UNL     1      21.648   8.600  49.823  1.00  0.00     0.099 C 
HETATM    6  N4  UNL     1      21.182   9.550  49.355  1.00  0.00    -0.191 NA
HETATM    7  C18 UNL     1      21.390   6.382  50.772  1.00  0.00     0.023 A 
HETATM    8  C19 UNL     1      21.931   5.240  51.317  1.00  0.00     0.013 A 
ENDROOT
BRANCH   1   9
HETATM    9  C12 UNL     1      23.831   3.825  52.097  1.00  0.00     0.015 C 
HETATM   10  C11 UNL     1      23.245   2.664  51.983  1.00  0.00     0.051 C 
BRANCH  10  11
HETATM   11  C10 UNL     1      23.849   1.468  52.591  1.00  0.00     0.125 C 
HETATM   12  N3  UNL     1      23.266   0.291  52.618  1.00  0.00    -0.225 NA
HETATM   13  C9  UNL     1      23.915  -0.825  53.225  1.00  0.00     0.231 C 
HETATM   14  N2  UNL     1      23.814  -0.429  54.443  1.00  0.00    -0.261 NA
HETATM   15  C8  UNL     1      24.363  -1.272  55.510  1.00  0.00     0.297 C 
HETATM   16  N1  UNL     1      25.584  -0.598  55.934  1.00  0.00    -0.284 NA
HETATM   17  C7  UNL     1      26.433  -0.191  55.066  1.00  0.00     0.093 C 
HETATM   18  C6  UNL     1      27.014   0.047  53.739  1.00  0.00     0.064 C 
HETATM   19  C2  UNL     1      26.500   1.221  52.994  1.00  0.00     0.057 C 
HETATM   20  C5  UNL     1      28.513   0.346  53.866  1.00  0.00     0.082 C 
HETATM   21  C1  UNL     1      26.698   1.010  51.508  1.00  0.00     0.044 C 
HETATM   22  C3  UNL     1      27.420   2.334  53.408  1.00  0.00     0.042 C 
HETATM   23  N5  UNL     1      25.130   1.562  53.198  1.00  0.00    -0.362 N 
HETATM   24  C4  UNL     1      28.549   1.848  53.898  1.00  0.00     0.093 C 
HETATM   25  F1  UNL     1      29.593   2.583  54.364  1.00  0.00    -0.211 F 
HETATM   26  H18 UNL     1      24.782   2.064  54.049  1.00  0.00     0.162 HD
ENDBRANCH  10  11
ENDBRANCH   1   9
TORSDOF 2
ENDMDL
MODEL 6
REMARK VINA RESULT:      -8.1      6.226      9.645
REMARK  2 active torsions:
REMARK  status: ('A' for Active; 'I' for Inactive)
REMARK    1  A    between atoms: C10_14  and  C11_15 
REMARK    2  A    between atoms: C12_16  and  C13_17 
ROOT
HETATM    1  C13 UNL     1      27.402   5.654  48.531  1.00  0.00    -0.036 A 
HETATM    2  C14 UNL     1      26.301   6.466  48.425  1.00  0.00     0.013 A 
HETATM    3  C15 UNL     1      25.039   6.066  48.809  1.00  0.00     0.023 A 
HETATM    4  C16 UNL     1      24.821   4.807  49.328  1.00  0.00     0.044 A 
HETATM    5  C17 UNL     1      23.527   4.345  49.743  1.00  0.00     0.099 C 
HETATM    6  N4  UNL     1      22.485   3.963  50.068  1.00  0.00    -0.191 NA
HETATM    7  C18 UNL     1      25.906   3.967  49.448  1.00  0.00     0.023 A 
HETATM    8  C19 UNL     1      27.150   4.403  49.052  1.00  0.00     0.013 A 
ENDROOT
BRANCH   1   9
HETATM    9  C12 UNL     1      28.728   6.094  48.120  1.00  0.00     0.015 C 
HETATM   10  C11 UNL     1      29.776   5.318  48.176  1.00  0.00     0.051 C 
BRANCH  10  11
HETATM   11  C10 UNL     1      31.092   5.818  47.747  1.00  0.00     0.125 C 
HETATM   12  N3  UNL     1      32.007   5.068  47.178  1.00  0.00    -0.225 NA
HETATM   13  C9  UNL     1      33.260   5.625  46.787  1.00  0.00     0.231 C 
HETATM   14  N2  UNL     1      33.733   5.805  47.968  1.00  0.00    -0.261 NA
HETATM   15  C8  UNL     1      35.071   6.390  48.114  1.00  0.00     0.297 C 
HETATM   16  N1  UNL     1      34.837   7.758  48.558  1.00  0.00    -0.284 NA
HETATM   17  C7  UNL     1      33.980   8.497  47.958  1.00  0.00     0.093 C 
HETATM   18  C6  UNL     1      32.955   8.865  46.974  1.00  0.00     0.064 C 
HETATM   19  C2  UNL     1      31.569   8.425  47.265  1.00  0.00     0.057 C 
HETATM   20  C5  UNL     1      32.824  10.392  46.897  1.00  0.00     0.082 C 
HETATM   21  C1  UNL     1      30.784   8.322  45.975  1.00  0.00     0.044 C 
HETATM   22  C3  UNL     1      30.990   9.570  48.045  1.00  0.00     0.042 C 
HETATM   23  N5  UNL     1      31.422   7.185  47.955  1.00  0.00    -0.362 N 
HETATM   24  C4  UNL     1      31.690  10.674  47.842  1.00  0.00     0.093 C 
HETATM   25  F1  UNL     1      31.434  11.888  48.397  1.00  0.00    -0.211 F 
HETATM   26  H18 UNL     1      31.576   7.077  48.986  1.00  0.00     0.162 HD
ENDBRANCH  10  11
ENDBRANCH   1   9
TORSDOF 2
ENDMDL
MODEL 7
REMARK VINA RESULT:      -8.0      5.483      9.130
REMARK  2 active torsions:
REMARK  status: ('A' for Active; 'I' for Inactive)
REMARK    1  A    between atoms: C10_14  and  C11_15 
REMARK    2  A    between atoms: C12_16  and  C13_17 
ROOT
HETATM    1  C13 UNL     1      22.147   0.738  52.914  1.00  0.00    -0.036 A 
HETATM    2  C14 UNL     1      22.421  -0.352  53.701  1.00  0.00     0.013 A 
HETATM    3  C15 UNL     1      23.702  -0.707  54.063  1.00  0.00     0.023 A 
HETATM    4  C16 UNL     1      24.789   0.032  53.644  1.00  0.00     0.044 A 
HETATM    5  C17 UNL     1      26.141  -0.295  53.997  1.00  0.00     0.099 C 
HETATM    6  N4  UNL     1      27.233  -0.562  54.267  1.00  0.00    -0.191 NA
HETATM    7  C18 UNL     1      24.547   1.133  52.853  1.00  0.00     0.023 A 
HETATM    8  C19 UNL     1      23.253   1.455  52.512  1.00  0.00     0.013 A 
ENDROOT
BRANCH   1   9
HETATM    9  C12 UNL     1      20.785   1.097  52.541  1.00  0.00     0.015 C 
HETATM   10  C11 UNL     1      20.419   2.330  52.316  1.00  0.00     0.051 C 
BRANCH  10  11
HETATM   11  C10 UNL     1      19.029   2.633  51.943  1.00  0.00     0.125 C 
HETATM   12  N3  UNL     1      18.628   3.809  51.516  1.00  0.00    -0.225 NA
HETATM   13  C9  UNL     1      17.261   4.027  51.170  1.00  0.00     0.231 C 
HETATM   14  N2  UNL     1      16.783   3.977  52.361  1.00  0.00    -0.261 NA
HETATM   15  C8  UNL     1      15.339   4.152  52.553  1.00  0.00     0.297 C 
HETATM   16  N1  UNL     1      14.834   2.817  52.849  1.00  0.00    -0.284 NA
HETATM   17  C7  UNL     1      15.173   1.820  52.120  1.00  0.00     0.093 C 
HETATM   18  C6  UNL     1      15.841   1.096  51.032  1.00  0.00     0.064 C 
HETATM   19  C2  UNL     1      17.258   0.723  51.257  1.00  0.00     0.057 C 
HETATM   20  C5  UNL     1      15.158  -0.259  50.803  1.00  0.00     0.082 C 
HETATM   21  C1  UNL     1      17.962   0.559  49.927  1.00  0.00     0.044 C 
HETATM   22  C3  UNL     1      17.170  -0.640  51.882  1.00  0.00     0.042 C 
HETATM   23  N5  UNL     1      18.040   1.618  52.047  1.00  0.00    -0.362 N 
HETATM   24  C4  UNL     1      15.995  -1.193  51.630  1.00  0.00     0.093 C 
HETATM   25  F1  UNL     1      15.591  -2.422  52.050  1.00  0.00    -0.211 F 
HETATM   26  H18 UNL     1      17.980   1.667  53.092  1.00  0.00     0.162 HD
ENDBRANCH  10  11
ENDBRANCH   1   9
TORSDOF 2
ENDMDL
MODEL 8
REMARK VINA RESULT:      -7.9      4.004      7.718
REMARK  2 active torsions:
REMARK  status: ('A' for Active; 'I' for Inactive)
REMARK    1  A    between atoms: C10_14  and  C11_15 
REMARK    2  A    between atoms: C12_16  and  C13_17 
ROOT
HETATM    1  C13 UNL     1      25.812   0.963  52.515  1.00  0.00    -0.036 A 
HETATM    2  C14 UNL     1      25.953  -0.401  52.547  1.00  0.00     0.013 A 
HETATM    3  C15 UNL     1      27.127  -1.021  52.917  1.00  0.00     0.023 A 
HETATM    4  C16 UNL     1      28.235  -0.284  53.279  1.00  0.00     0.044 A 
HETATM    5  C17 UNL     1      29.478  -0.884  53.673  1.00  0.00     0.099 C 
HETATM    6  N4  UNL     1      30.486  -1.361  53.979  1.00  0.00    -0.191 NA
HETATM    7  C18 UNL     1      28.127   1.088  53.257  1.00  0.00     0.023 A 
HETATM    8  C19 UNL     1      26.937   1.670  52.881  1.00  0.00     0.013 A 
ENDROOT
BRANCH   1   9
HETATM    9  C12 UNL     1      24.563   1.601  52.121  1.00  0.00     0.015 C 
HETATM   10  C11 UNL     1      23.405   1.007  52.227  1.00  0.00     0.051 C 
BRANCH  10  11
HETATM   11  C10 UNL     1      22.177   1.702  51.812  1.00  0.00     0.125 C 
HETATM   12  N3  UNL     1      21.246   2.099  52.650  1.00  0.00    -0.225 NA
HETATM   13  C9  UNL     1      20.081   2.769  52.173  1.00  0.00     0.231 C 
HETATM   14  N2  UNL     1      19.535   1.758  51.599  1.00  0.00    -0.261 NA
HETATM   15  C8  UNL     1      18.247   1.937  50.921  1.00  0.00     0.297 C 
HETATM   16  N1  UNL     1      18.564   1.920  49.499  1.00  0.00    -0.284 NA
HETATM   17  C7  UNL     1      19.527   2.629  49.041  1.00  0.00     0.093 C 
HETATM   18  C6  UNL     1      20.654   3.570  49.065  1.00  0.00     0.064 C 
HETATM   19  C2  UNL     1      21.968   3.017  49.471  1.00  0.00     0.057 C 
HETATM   20  C5  UNL     1      20.924   4.105  47.653  1.00  0.00     0.082 C 
HETATM   21  C1  UNL     1      22.840   4.124  50.025  1.00  0.00     0.044 C 
HETATM   22  C3  UNL     1      22.584   2.577  48.174  1.00  0.00     0.042 C 
HETATM   23  N5  UNL     1      21.952   1.964  50.434  1.00  0.00    -0.362 N 
HETATM   24  C4  UNL     1      22.001   3.184  47.153  1.00  0.00     0.093 C 
HETATM   25  F1  UNL     1      22.319   3.011  45.842  1.00  0.00    -0.211 F 
HETATM   26  H18 UNL     1      21.709   0.972  50.199  1.00  0.00     0.162 HD
ENDBRANCH  10  11
ENDBRANCH   1   9
TORSDOF 2
ENDMDL
MODEL 9
REMARK VINA RESULT:      -7.8      3.671      7.818
REMARK  2 active torsions:
REMARK  status: ('A' for Active; 'I' for Inactive)
REMARK    1  A    between atoms: C10_14  and  C11_15 
REMARK    2  A    between atoms: C12_16  and  C13_17 
ROOT
HETATM    1  C13 UNL     1      26.108   1.405  52.138  1.00  0.00    -0.036 A 
HETATM    2  C14 UNL     1      26.103   0.033  52.162  1.00  0.00     0.013 A 
HETATM    3  C15 UNL     1      27.158  -0.707  52.650  1.00  0.00     0.023 A 
HETATM    4  C16 UNL     1      28.288  -0.092  53.146  1.00  0.00     0.044 A 
HETATM    5  C17 UNL     1      29.411  -0.820  53.666  1.00  0.00     0.099 C 
HETATM    6  N4  UNL     1      30.323  -1.401  54.075  1.00  0.00    -0.191 NA
HETATM    7  C18 UNL     1      28.324   1.284  53.136  1.00  0.00     0.023 A 
HETATM    8  C19 UNL     1      27.251   1.989  52.639  1.00  0.00     0.013 A 
ENDROOT
BRANCH   1   9
HETATM    9  C12 UNL     1      24.983   2.172  51.618  1.00  0.00     0.015 C 
HETATM   10  C11 UNL     1      23.864   1.613  51.243  1.00  0.00     0.051 C 
BRANCH  10  11
HETATM   11  C10 UNL     1      22.762   2.439  50.725  1.00  0.00     0.125 C 
HETATM   12  N3  UNL     1      21.573   1.966  50.431  1.00  0.00    -0.225 NA
HETATM   13  C9  UNL     1      20.552   2.830  49.934  1.00  0.00     0.231 C 
HETATM   14  N2  UNL     1      21.069   3.042  48.777  1.00  0.00    -0.261 NA
HETATM   15  C8  UNL     1      20.364   3.919  47.836  1.00  0.00     0.297 C 
HETATM   16  N1  UNL     1      21.125   5.161  47.834  1.00  0.00    -0.284 NA
HETATM   17  C7  UNL     1      21.473   5.710  48.938  1.00  0.00     0.093 C 
HETATM   18  C6  UNL     1      21.593   5.885  50.390  1.00  0.00     0.064 C 
HETATM   19  C2  UNL     1      22.663   5.109  51.063  1.00  0.00     0.057 C 
HETATM   20  C5  UNL     1      21.962   7.338  50.717  1.00  0.00     0.082 C 
HETATM   21  C1  UNL     1      22.306   4.904  52.520  1.00  0.00     0.044 C 
HETATM   22  C3  UNL     1      23.848   6.031  51.024  1.00  0.00     0.042 C 
HETATM   23  N5  UNL     1      22.969   3.829  50.514  1.00  0.00    -0.362 N 
HETATM   24  C4  UNL     1      23.459   7.281  50.830  1.00  0.00     0.093 C 
HETATM   25  F1  UNL     1      24.280   8.361  50.744  1.00  0.00    -0.211 F 
HETATM   26  H18 UNL     1      23.543   3.696  49.647  1.00  0.00     0.162 HD
ENDBRANCH  10  11
ENDBRANCH   1   9
TORSDOF 2
ENDMDL
