MODEL 1
REMARK VINA RESULT:      -8.0      0.000      0.000
REMARK  9 active torsions:
REMARK  status: ('A' for Active; 'I' for Inactive)
REMARK    1  A    between atoms: C2_2  and  C3_3 
REMARK       I    between atoms: C3_3  and  N1_5 
REMARK    2  A    between atoms: N1_5  and  C4_6 
REMARK    3  A    between atoms: C6_8  and  N2_9 
REMARK    4  A    between atoms: N2_9  and  N3_10 
REMARK    5  A    between atoms: C13_19  and  O2_20 
REMARK    6  A    between atoms: C16_23  and  N6_24 
REMARK    7  A    between atoms: N6_24  and  C18_26 
REMARK    8  A    between atoms: C18_26  and  C19_27 
REMARK    9  A    between atoms: C19_27  and  N7_28 
ROOT
HETATM    1  C4  UNL     1      25.048   3.158  51.173  1.00  0.00     0.064 A 
HETATM    2  C5  UNL     1      25.707   2.614  52.258  1.00  0.00     0.066 A 
HETATM    3  C6  UNL     1      25.154   1.505  52.851  1.00  0.00     0.087 A 
HETATM    4  C13 UNL     1      23.975   0.984  52.350  1.00  0.00     0.098 A 
HETATM    5  C15 UNL     1      23.337   1.568  51.242  1.00  0.00     0.070 A 
HETATM    6  C16 UNL     1      23.882   2.685  50.630  1.00  0.00     0.059 A 
ENDROOT
BRANCH   3   7
HETATM    7  N2  UNL     1      25.690   0.794  53.994  1.00  0.00    -0.260 N 
HETATM    8  H6  UNL     1      25.058   0.373  54.700  1.00  0.00     0.191 HD
BRANCH   7   9
HETATM    9  N3  UNL     1      27.114   0.781  53.976  1.00  0.00    -0.100 N 
HETATM   10  N4  UNL     1      27.760   1.867  54.417  1.00  0.00    -0.145 NA
HETATM   11  C7  UNL     1      29.098   1.680  54.325  1.00  0.00     0.174 A 
HETATM   12  C8  UNL     1      29.266   0.421  53.803  1.00  0.00     0.079 A 
HETATM   13  C9  UNL     1      30.194  -0.523  53.393  1.00  0.00     0.035 A 
HETATM   14  N5  UNL     1      28.037  -0.085  53.609  1.00  0.00    -0.222 N 
HETATM   15  C10 UNL     1      29.434  -1.599  52.951  1.00  0.00     0.029 A 
HETATM   16  C11 UNL     1      28.070  -1.320  53.089  1.00  0.00     0.034 A 
HETATM   17  C12 UNL     1      26.964  -2.223  52.720  1.00  0.00     0.070 C 
ENDBRANCH   7   9
ENDBRANCH   3   7
BRANCH   4  18
HETATM   18  O2  UNL     1      23.448  -0.135  52.986  1.00  0.00    -0.354 OA
HETATM   19  C14 UNL     1      22.078  -0.502  52.918  1.00  0.00     0.210 C 
ENDBRANCH   4  18
BRANCH   1  20
HETATM   20  N1  UNL     1      25.701   4.309  50.657  1.00  0.00    -0.322 N 
HETATM   21  C3  UNL     1      26.621   4.095  49.594  1.00  0.00     0.244 C 
HETATM   22  O1  UNL     1      26.692   2.854  49.244  1.00  0.00    -0.268 OA
HETATM   23  H4  UNL     1      25.739   5.379  50.746  1.00  0.00     0.169 HD
BRANCH  21  24
HETATM   24  C2  UNL     1      27.551   4.757  48.714  1.00  0.00     0.064 C 
HETATM   25  C1  UNL     1      27.284   6.015  48.480  1.00  0.00     0.017 C 
ENDBRANCH  21  24
ENDBRANCH   1  20
BRANCH   6  26
HETATM   26  N6  UNL     1      23.226   3.234  49.505  1.00  0.00    -0.382 N 
HETATM   27  C17 UNL     1      23.001   2.569  48.250  1.00  0.00     0.150 C 
BRANCH  26  28
HETATM   28  C18 UNL     1      22.681   4.571  49.463  1.00  0.00     0.152 C 
BRANCH  28  29
HETATM   29  C19 UNL     1      21.161   4.588  49.599  1.00  0.00     0.291 C 
BRANCH  29  30
HETATM   30  N7  UNL     1      20.799   5.035  50.948  1.00  0.00     0.081 N 
HETATM   31  C20 UNL     1      20.423   3.908  51.763  1.00  0.00     0.309 C 
HETATM   32  C21 UNL     1      21.873   5.817  51.469  1.00  0.00     0.309 C 
ENDBRANCH  29  30
ENDBRANCH  28  29
ENDBRANCH  26  28
ENDBRANCH   6  26
TORSDOF 9
ENDMDL
MODEL 2
REMARK VINA RESULT:      -7.9      0.876      1.920
REMARK  9 active torsions:
REMARK  status: ('A' for Active; 'I' for Inactive)
REMARK    1  A    between atoms: C2_2  and  C3_3 
REMARK       I    between atoms: C3_3  and  N1_5 
REMARK    2  A    between atoms: N1_5  and  C4_6 
REMARK    3  A    between atoms: C6_8  and  N2_9 
REMARK    4  A    between atoms: N2_9  and  N3_10 
REMARK    5  A    between atoms: C13_19  and  O2_20 
REMARK    6  A    between atoms: C16_23  and  N6_24 
REMARK    7  A    between atoms: N6_24  and  C18_26 
REMARK    8  A    between atoms: C18_26  and  C19_27 
REMARK    9  A    between atoms: C19_27  and  N7_28 
ROOT
HETATM    1  C4  UNL     1      24.891   3.085  51.529  1.00  0.00     0.064 A 
HETATM    2  C5  UNL     1      25.655   2.521  52.531  1.00  0.00     0.066 A 
HETATM    3  C6  UNL     1      25.123   1.458  53.220  1.00  0.00     0.087 A 
HETATM    4  C13 UNL     1      23.860   1.001  52.892  1.00  0.00     0.098 A 
HETATM    5  C15 UNL     1      23.115   1.603  51.862  1.00  0.00     0.070 A 
HETATM    6  C16 UNL     1      23.638   2.673  51.156  1.00  0.00     0.059 A 
ENDROOT
BRANCH   3   7
HETATM    7  N2  UNL     1      25.764   0.736  54.300  1.00  0.00    -0.260 N 
HETATM    8  H6  UNL     1      25.515   0.930  55.288  1.00  0.00     0.191 HD
BRANCH   7   9
HETATM    9  N3  UNL     1      26.714  -0.202  53.805  1.00  0.00    -0.100 N 
HETATM   10  N4  UNL     1      26.262  -1.374  53.343  1.00  0.00    -0.145 NA
HETATM   11  C7  UNL     1      27.298  -2.137  52.920  1.00  0.00     0.174 A 
HETATM   12  C8  UNL     1      28.428  -1.387  53.137  1.00  0.00     0.079 A 
HETATM   13  C9  UNL     1      29.810  -1.362  53.032  1.00  0.00     0.035 A 
HETATM   14  N5  UNL     1      28.026  -0.225  53.674  1.00  0.00    -0.222 N 
HETATM   15  C10 UNL     1      30.181  -0.122  53.536  1.00  0.00     0.029 A 
HETATM   16  C11 UNL     1      29.051   0.596  53.942  1.00  0.00     0.034 A 
HETATM   17  C12 UNL     1      29.054   1.947  54.533  1.00  0.00     0.070 C 
ENDBRANCH   7   9
ENDBRANCH   3   7
BRANCH   4  18
HETATM   18  O2  UNL     1      23.358  -0.073  53.620  1.00  0.00    -0.354 OA
HETATM   19  C14 UNL     1      22.325  -0.926  53.147  1.00  0.00     0.210 C 
ENDBRANCH   4  18
BRANCH   1  20
HETATM   20  N1  UNL     1      25.535   4.184  50.901  1.00  0.00    -0.322 N 
HETATM   21  C3  UNL     1      26.436   3.875  49.845  1.00  0.00     0.244 C 
HETATM   22  O1  UNL     1      26.500   2.608  49.605  1.00  0.00    -0.268 OA
HETATM   23  H4  UNL     1      25.575   5.257  50.895  1.00  0.00     0.169 HD
BRANCH  21  24
HETATM   24  C2  UNL     1      27.351   4.456  48.894  1.00  0.00     0.064 C 
HETATM   25  C1  UNL     1      27.142   5.719  48.633  1.00  0.00     0.017 C 
ENDBRANCH  21  24
ENDBRANCH   1  20
BRANCH   6  26
HETATM   26  N6  UNL     1      22.871   3.241  50.112  1.00  0.00    -0.382 N 
HETATM   27  C17 UNL     1      23.065   3.022  48.705  1.00  0.00     0.150 C 
BRANCH  26  28
HETATM   28  C18 UNL     1      21.762   4.141  50.327  1.00  0.00     0.152 C 
BRANCH  28  29
HETATM   29  C19 UNL     1      22.049   5.179  51.408  1.00  0.00     0.291 C 
BRANCH  29  30
HETATM   30  N7  UNL     1      21.835   6.522  50.860  1.00  0.00     0.081 N 
HETATM   31  C20 UNL     1      23.094   7.207  50.713  1.00  0.00     0.309 C 
HETATM   32  C21 UNL     1      21.074   6.405  49.659  1.00  0.00     0.309 C 
ENDBRANCH  29  30
ENDBRANCH  28  29
ENDBRANCH  26  28
ENDBRANCH   6  26
TORSDOF 9
ENDMDL
MODEL 3
REMARK VINA RESULT:      -7.8      1.095      1.933
REMARK  9 active torsions:
REMARK  status: ('A' for Active; 'I' for Inactive)
REMARK    1  A    between atoms: C2_2  and  C3_3 
REMARK       I    between atoms: C3_3  and  N1_5 
REMARK    2  A    between atoms: N1_5  and  C4_6 
REMARK    3  A    between atoms: C6_8  and  N2_9 
REMARK    4  A    between atoms: N2_9  and  N3_10 
REMARK    5  A    between atoms: C13_19  and  O2_20 
REMARK    6  A    between atoms: C16_23  and  N6_24 
REMARK    7  A    between atoms: N6_24  and  C18_26 
REMARK    8  A    between atoms: C18_26  and  C19_27 
REMARK    9  A    between atoms: C19_27  and  N7_28 
ROOT
HETATM    1  C4  UNL     1      24.975   2.877  50.339  1.00  0.00     0.064 A 
HETATM    2  C5  UNL     1      25.707   2.457  51.431  1.00  0.00     0.066 A 
HETATM    3  C6  UNL     1      25.029   1.851  52.462  1.00  0.00     0.087 A 
HETATM    4  C13 UNL     1      23.659   1.690  52.369  1.00  0.00     0.098 A 
HETATM    5  C15 UNL     1      22.951   2.130  51.237  1.00  0.00     0.070 A 
HETATM    6  C16 UNL     1      23.619   2.740  50.188  1.00  0.00     0.059 A 
ENDROOT
BRANCH   3   7
HETATM    7  N2  UNL     1      25.615   1.347  53.686  1.00  0.00    -0.260 N 
HETATM    8  H6  UNL     1      25.386   1.779  54.601  1.00  0.00     0.191 HD
BRANCH   7   9
HETATM    9  N3  UNL     1      26.486   0.250  53.432  1.00  0.00    -0.100 N 
HETATM   10  N4  UNL     1      25.940  -0.922  53.083  1.00  0.00    -0.145 NA
HETATM   11  C7  UNL     1      26.910  -1.845  52.884  1.00  0.00     0.174 A 
HETATM   12  C8  UNL     1      28.098  -1.198  53.124  1.00  0.00     0.079 A 
HETATM   13  C9  UNL     1      29.476  -1.338  53.172  1.00  0.00     0.035 A 
HETATM   14  N5  UNL     1      27.792   0.067  53.452  1.00  0.00    -0.222 N 
HETATM   15  C10 UNL     1      29.947  -0.084  53.544  1.00  0.00     0.029 A 
HETATM   16  C11 UNL     1      28.879   0.803  53.720  1.00  0.00     0.034 A 
HETATM   17  C12 UNL     1      28.991   2.218  54.121  1.00  0.00     0.070 C 
ENDBRANCH   7   9
ENDBRANCH   3   7
BRANCH   4  18
HETATM   18  O2  UNL     1      23.013   1.078  53.438  1.00  0.00    -0.354 OA
HETATM   19  C14 UNL     1      22.317  -0.156  53.330  1.00  0.00     0.210 C 
ENDBRANCH   4  18
BRANCH   1  20
HETATM   20  N1  UNL     1      25.778   3.503  49.349  1.00  0.00    -0.322 N 
HETATM   21  C3  UNL     1      25.935   4.912  49.454  1.00  0.00     0.244 C 
HETATM   22  O1  UNL     1      25.324   5.401  50.481  1.00  0.00    -0.268 OA
HETATM   23  H4  UNL     1      26.399   3.293  48.498  1.00  0.00     0.169 HD
BRANCH  21  24
HETATM   24  C2  UNL     1      26.538   6.062  48.828  1.00  0.00     0.064 C 
HETATM   25  C1  UNL     1      27.749   5.869  48.377  1.00  0.00     0.017 C 
ENDBRANCH  21  24
ENDBRANCH   1  20
BRANCH   6  26
HETATM   26  N6  UNL     1      22.880   3.151  49.056  1.00  0.00    -0.382 N 
HETATM   27  C17 UNL     1      22.629   2.365  47.879  1.00  0.00     0.150 C 
BRANCH  26  28
HETATM   28  C18 UNL     1      22.262   4.450  48.926  1.00  0.00     0.152 C 
BRANCH  28  29
HETATM   29  C19 UNL     1      20.790   4.442  49.327  1.00  0.00     0.291 C 
BRANCH  29  30
HETATM   30  N7  UNL     1      20.517   5.591  50.197  1.00  0.00     0.081 N 
HETATM   31  C20 UNL     1      21.676   5.897  50.996  1.00  0.00     0.309 C 
HETATM   32  C21 UNL     1      20.045   6.668  49.389  1.00  0.00     0.309 C 
ENDBRANCH  29  30
ENDBRANCH  28  29
ENDBRANCH  26  28
ENDBRANCH   6  26
TORSDOF 9
ENDMDL
MODEL 4
REMARK VINA RESULT:      -7.6      1.999      7.001
REMARK  9 active torsions:
REMARK  status: ('A' for Active; 'I' for Inactive)
REMARK    1  A    between atoms: C2_2  and  C3_3 
REMARK       I    between atoms: C3_3  and  N1_5 
REMARK    2  A    between atoms: N1_5  and  C4_6 
REMARK    3  A    between atoms: C6_8  and  N2_9 
REMARK    4  A    between atoms: N2_9  and  N3_10 
REMARK    5  A    between atoms: C13_19  and  O2_20 
REMARK    6  A    between atoms: C16_23  and  N6_24 
REMARK    7  A    between atoms: N6_24  and  C18_26 
REMARK    8  A    between atoms: C18_26  and  C19_27 
REMARK    9  A    between atoms: C19_27  and  N7_28 
ROOT
HETATM    1  C4  UNL     1      23.963   2.389  52.469  1.00  0.00     0.064 A 
HETATM    2  C5  UNL     1      22.609   2.650  52.395  1.00  0.00     0.066 A 
HETATM    3  C6  UNL     1      21.743   1.623  52.687  1.00  0.00     0.087 A 
HETATM    4  C13 UNL     1      22.252   0.384  53.034  1.00  0.00     0.098 A 
HETATM    5  C15 UNL     1      23.639   0.162  53.099  1.00  0.00     0.070 A 
HETATM    6  C16 UNL     1      24.525   1.187  52.811  1.00  0.00     0.059 A 
ENDROOT
BRANCH   3   7
HETATM    7  N2  UNL     1      20.297   1.696  52.665  1.00  0.00    -0.260 N 
HETATM    8  H6  UNL     1      19.729   1.164  53.350  1.00  0.00     0.191 HD
BRANCH   7   9
HETATM    9  N3  UNL     1      19.836   2.551  51.624  1.00  0.00    -0.100 N 
HETATM   10  N4  UNL     1      19.085   3.607  51.961  1.00  0.00    -0.145 NA
HETATM   11  C7  UNL     1      18.737   4.302  50.853  1.00  0.00     0.174 A 
HETATM   12  C8  UNL     1      19.305   3.632  49.796  1.00  0.00     0.079 A 
HETATM   13  C9  UNL     1      19.458   3.607  48.419  1.00  0.00     0.035 A 
HETATM   14  N5  UNL     1      19.960   2.580  50.312  1.00  0.00    -0.222 N 
HETATM   15  C10 UNL     1      20.238   2.485  48.170  1.00  0.00     0.029 A 
HETATM   16  C11 UNL     1      20.554   1.836  49.368  1.00  0.00     0.034 A 
HETATM   17  C12 UNL     1      21.360   0.607  49.498  1.00  0.00     0.070 C 
ENDBRANCH   7   9
ENDBRANCH   3   7
BRANCH   4  18
HETATM   18  O2  UNL     1      21.340  -0.627  53.314  1.00  0.00    -0.354 OA
HETATM   19  C14 UNL     1      21.497  -1.550  54.383  1.00  0.00     0.210 C 
ENDBRANCH   4  18
BRANCH   1  20
HETATM   20  N1  UNL     1      24.756   3.517  52.130  1.00  0.00    -0.322 N 
HETATM   21  C3  UNL     1      24.995   3.734  50.745  1.00  0.00     0.244 C 
HETATM   22  O1  UNL     1      24.410   2.856  50.000  1.00  0.00    -0.268 OA
HETATM   23  H4  UNL     1      25.257   4.366  52.557  1.00  0.00     0.169 HD
BRANCH  21  24
HETATM   24  C2  UNL     1      25.672   4.592  49.805  1.00  0.00     0.064 C 
HETATM   25  C1  UNL     1      26.792   4.112  49.333  1.00  0.00     0.017 C 
ENDBRANCH  21  24
ENDBRANCH   1  20
BRANCH   6  26
HETATM   26  N6  UNL     1      25.913   0.935  52.907  1.00  0.00    -0.382 N 
HETATM   27  C17 UNL     1      26.718   0.253  51.930  1.00  0.00     0.150 C 
BRANCH  26  28
HETATM   28  C18 UNL     1      26.729   1.339  54.028  1.00  0.00     0.152 C 
BRANCH  28  29
HETATM   29  C19 UNL     1      27.570   0.193  54.584  1.00  0.00     0.291 C 
BRANCH  29  30
HETATM   30  N7  UNL     1      28.980   0.596  54.612  1.00  0.00     0.081 N 
HETATM   31  C20 UNL     1      29.775  -0.319  53.832  1.00  0.00     0.309 C 
HETATM   32  C21 UNL     1      29.069   1.961  54.207  1.00  0.00     0.309 C 
ENDBRANCH  29  30
ENDBRANCH  28  29
ENDBRANCH  26  28
ENDBRANCH   6  26
TORSDOF 9
ENDMDL
MODEL 5
REMARK VINA RESULT:      -7.1      1.665      7.274
REMARK  9 active torsions:
REMARK  status: ('A' for Active; 'I' for Inactive)
REMARK    1  A    between atoms: C2_2  and  C3_3 
REMARK       I    between atoms: C3_3  and  N1_5 
REMARK    2  A    between atoms: N1_5  and  C4_6 
REMARK    3  A    between atoms: C6_8  and  N2_9 
REMARK    4  A    between atoms: N2_9  and  N3_10 
REMARK    5  A    between atoms: C13_19  and  O2_20 
REMARK    6  A    between atoms: C16_23  and  N6_24 
REMARK    7  A    between atoms: N6_24  and  C18_26 
REMARK    8  A    between atoms: C18_26  and  C19_27 
REMARK    9  A    between atoms: C19_27  and  N7_28 
ROOT
HETATM    1  C4  UNL     1      24.458   2.801  52.145  1.00  0.00     0.064 A 
HETATM    2  C5  UNL     1      23.256   3.455  51.964  1.00  0.00     0.066 A 
HETATM    3  C6  UNL     1      22.107   2.794  52.326  1.00  0.00     0.087 A 
HETATM    4  C13 UNL     1      22.196   1.516  52.847  1.00  0.00     0.098 A 
HETATM    5  C15 UNL     1      23.442   0.886  53.017  1.00  0.00     0.070 A 
HETATM    6  C16 UNL     1      24.609   1.540  52.660  1.00  0.00     0.059 A 
ENDROOT
BRANCH   3   7
HETATM    7  N2  UNL     1      20.757   3.307  52.213  1.00  0.00    -0.260 N 
HETATM    8  H6  UNL     1      20.209   3.549  53.060  1.00  0.00     0.191 HD
BRANCH   7   9
HETATM    9  N3  UNL     1      20.352   3.407  50.852  1.00  0.00    -0.100 N 
HETATM   10  N4  UNL     1      19.759   2.346  50.291  1.00  0.00    -0.145 NA
HETATM   11  C7  UNL     1      19.447   2.617  49.002  1.00  0.00     0.174 A 
HETATM   12  C8  UNL     1      19.872   3.903  48.775  1.00  0.00     0.079 A 
HETATM   13  C9  UNL     1      19.973   4.916  47.834  1.00  0.00     0.035 A 
HETATM   14  N5  UNL     1      20.413   4.341  49.924  1.00  0.00    -0.222 N 
HETATM   15  C10 UNL     1      20.600   5.960  48.503  1.00  0.00     0.029 A 
HETATM   16  C11 UNL     1      20.878   5.594  49.825  1.00  0.00     0.034 A 
HETATM   17  C12 UNL     1      21.543   6.441  50.833  1.00  0.00     0.070 C 
ENDBRANCH   7   9
ENDBRANCH   3   7
BRANCH   4  18
HETATM   18  O2  UNL     1      21.008   0.882  53.194  1.00  0.00    -0.354 OA
HETATM   19  C14 UNL     1      20.947  -0.440  53.711  1.00  0.00     0.210 C 
ENDBRANCH   4  18
BRANCH   1  20
HETATM   20  N1  UNL     1      25.571   3.574  51.719  1.00  0.00    -0.322 N 
HETATM   21  C3  UNL     1      25.873   3.543  50.330  1.00  0.00     0.244 C 
HETATM   22  O1  UNL     1      25.043   2.816  49.660  1.00  0.00    -0.268 OA
HETATM   23  H4  UNL     1      26.314   4.265  52.073  1.00  0.00     0.169 HD
BRANCH  21  24
HETATM   24  C2  UNL     1      26.792   4.030  49.332  1.00  0.00     0.064 C 
HETATM   25  C1  UNL     1      26.592   5.265  48.958  1.00  0.00     0.017 C 
ENDBRANCH  21  24
ENDBRANCH   1  20
BRANCH   6  26
HETATM   26  N6  UNL     1      25.846   0.886  52.864  1.00  0.00    -0.382 N 
HETATM   27  C17 UNL     1      26.450  -0.075  51.981  1.00  0.00     0.150 C 
BRANCH  26  28
HETATM   28  C18 UNL     1      26.690   1.101  54.016  1.00  0.00     0.152 C 
BRANCH  28  29
HETATM   29  C19 UNL     1      27.486  -0.142  54.400  1.00  0.00     0.291 C 
BRANCH  29  30
HETATM   30  N7  UNL     1      28.898   0.217  54.564  1.00  0.00     0.081 N 
HETATM   31  C20 UNL     1      29.734  -0.701  53.832  1.00  0.00     0.309 C 
HETATM   32  C21 UNL     1      29.061   1.588  54.208  1.00  0.00     0.309 C 
ENDBRANCH  29  30
ENDBRANCH  28  29
ENDBRANCH  26  28
ENDBRANCH   6  26
TORSDOF 9
ENDMDL
MODEL 6
REMARK VINA RESULT:      -7.1      1.615      7.870
REMARK  9 active torsions:
REMARK  status: ('A' for Active; 'I' for Inactive)
REMARK    1  A    between atoms: C2_2  and  C3_3 
REMARK       I    between atoms: C3_3  and  N1_5 
REMARK    2  A    between atoms: N1_5  and  C4_6 
REMARK    3  A    between atoms: C6_8  and  N2_9 
REMARK    4  A    between atoms: N2_9  and  N3_10 
REMARK    5  A    between atoms: C13_19  and  O2_20 
REMARK    6  A    between atoms: C16_23  and  N6_24 
REMARK    7  A    between atoms: N6_24  and  C18_26 
REMARK    8  A    between atoms: C18_26  and  C19_27 
REMARK    9  A    between atoms: C19_27  and  N7_28 
ROOT
HETATM    1  C4  UNL     1      24.399   2.665  52.074  1.00  0.00     0.064 A 
HETATM    2  C5  UNL     1      23.659   3.627  51.415  1.00  0.00     0.066 A 
HETATM    3  C6  UNL     1      24.249   4.274  50.357  1.00  0.00     0.087 A 
HETATM    4  C13 UNL     1      25.544   3.945  49.997  1.00  0.00     0.098 A 
HETATM    5  C15 UNL     1      26.262   2.958  50.694  1.00  0.00     0.070 A 
HETATM    6  C16 UNL     1      25.681   2.294  51.762  1.00  0.00     0.059 A 
ENDROOT
BRANCH   3   7
HETATM    7  N2  UNL     1      23.641   5.308  49.544  1.00  0.00    -0.260 N 
HETATM    8  H6  UNL     1      24.224   6.034  49.088  1.00  0.00     0.191 HD
BRANCH   7   9
HETATM    9  N3  UNL     1      22.226   5.162  49.492  1.00  0.00    -0.100 N 
HETATM   10  N4  UNL     1      21.473   6.101  50.079  1.00  0.00    -0.145 NA
HETATM   11  C7  UNL     1      20.161   5.801  49.934  1.00  0.00     0.174 A 
HETATM   12  C8  UNL     1      20.121   4.625  49.226  1.00  0.00     0.079 A 
HETATM   13  C9  UNL     1      19.293   3.658  48.679  1.00  0.00     0.035 A 
HETATM   14  N5  UNL     1      21.394   4.276  48.981  1.00  0.00    -0.222 N 
HETATM   15  C10 UNL     1      20.158   2.734  48.104  1.00  0.00     0.029 A 
HETATM   16  C11 UNL     1      21.486   3.128  48.297  1.00  0.00     0.034 A 
HETATM   17  C12 UNL     1      22.679   2.394  47.832  1.00  0.00     0.070 C 
ENDBRANCH   7   9
ENDBRANCH   3   7
BRANCH   4  18
HETATM   18  O2  UNL     1      26.103   4.630  48.924  1.00  0.00    -0.354 OA
HETATM   19  C14 UNL     1      27.503   4.773  48.730  1.00  0.00     0.210 C 
ENDBRANCH   4  18
BRANCH   1  20
HETATM   20  N1  UNL     1      23.693   2.079  53.159  1.00  0.00    -0.322 N 
HETATM   21  C3  UNL     1      22.808   1.013  52.841  1.00  0.00     0.244 C 
HETATM   22  O1  UNL     1      22.813   0.726  51.582  1.00  0.00    -0.268 OA
HETATM   23  H4  UNL     1      23.594   2.112  54.228  1.00  0.00     0.169 HD
BRANCH  21  24
HETATM   24  C2  UNL     1      21.860   0.085  53.405  1.00  0.00     0.064 C 
HETATM   25  C1  UNL     1      22.387  -1.001  53.906  1.00  0.00     0.017 C 
ENDBRANCH  21  24
ENDBRANCH   1  20
BRANCH   6  26
HETATM   26  N6  UNL     1      26.423   1.291  52.427  1.00  0.00    -0.382 N 
HETATM   27  C17 UNL     1      26.581  -0.071  51.994  1.00  0.00     0.150 C 
BRANCH  26  28
HETATM   28  C18 UNL     1      27.140   1.506  53.662  1.00  0.00     0.152 C 
BRANCH  28  29
HETATM   29  C19 UNL     1      27.561   0.201  54.330  1.00  0.00     0.291 C 
BRANCH  29  30
HETATM   30  N7  UNL     1      28.998   0.245  54.621  1.00  0.00     0.081 N 
HETATM   31  C20 UNL     1      29.697  -0.733  53.827  1.00  0.00     0.309 C 
HETATM   32  C21 UNL     1      29.453   1.587  54.452  1.00  0.00     0.309 C 
ENDBRANCH  29  30
ENDBRANCH  28  29
ENDBRANCH  26  28
ENDBRANCH   6  26
TORSDOF 9
ENDMDL
MODEL 7
REMARK VINA RESULT:      -7.0      1.779      8.117
REMARK  9 active torsions:
REMARK  status: ('A' for Active; 'I' for Inactive)
REMARK    1  A    between atoms: C2_2  and  C3_3 
REMARK       I    between atoms: C3_3  and  N1_5 
REMARK    2  A    between atoms: N1_5  and  C4_6 
REMARK    3  A    between atoms: C6_8  and  N2_9 
REMARK    4  A    between atoms: N2_9  and  N3_10 
REMARK    5  A    between atoms: C13_19  and  O2_20 
REMARK    6  A    between atoms: C16_23  and  N6_24 
REMARK    7  A    between atoms: N6_24  and  C18_26 
REMARK    8  A    between atoms: C18_26  and  C19_27 
REMARK    9  A    between atoms: C19_27  and  N7_28 
ROOT
HETATM    1  C4  UNL     1      24.556   2.842  51.841  1.00  0.00     0.064 A 
HETATM    2  C5  UNL     1      24.080   3.788  50.955  1.00  0.00     0.066 A 
HETATM    3  C6  UNL     1      24.889   4.145  49.903  1.00  0.00     0.087 A 
HETATM    4  C13 UNL     1      26.133   3.555  49.775  1.00  0.00     0.098 A 
HETATM    5  C15 UNL     1      26.580   2.593  50.699  1.00  0.00     0.070 A 
HETATM    6  C16 UNL     1      25.775   2.220  51.763  1.00  0.00     0.059 A 
ENDROOT
BRANCH   3   7
HETATM    7  N2  UNL     1      24.572   5.114  48.875  1.00  0.00    -0.260 N 
HETATM    8  H6  UNL     1      25.320   5.532  48.292  1.00  0.00     0.191 HD
BRANCH   7   9
HETATM    9  N3  UNL     1      23.172   5.368  48.816  1.00  0.00    -0.100 N 
HETATM   10  N4  UNL     1      22.418   4.575  48.044  1.00  0.00    -0.145 NA
HETATM   11  C7  UNL     1      21.123   4.962  48.106  1.00  0.00     0.174 A 
HETATM   12  C8  UNL     1      21.094   6.042  48.955  1.00  0.00     0.079 A 
HETATM   13  C9  UNL     1      20.285   6.999  49.547  1.00  0.00     0.035 A 
HETATM   14  N5  UNL     1      22.357   6.250  49.360  1.00  0.00    -0.222 N 
HETATM   15  C10 UNL     1      21.150   7.769  50.314  1.00  0.00     0.029 A 
HETATM   16  C11 UNL     1      22.460   7.294  50.195  1.00  0.00     0.034 A 
HETATM   17  C12 UNL     1      23.648   7.863  50.859  1.00  0.00     0.070 C 
ENDBRANCH   7   9
ENDBRANCH   3   7
BRANCH   4  18
HETATM   18  O2  UNL     1      26.921   3.950  48.699  1.00  0.00    -0.354 OA
HETATM   19  C14 UNL     1      27.882   4.993  48.775  1.00  0.00     0.210 C 
ENDBRANCH   4  18
BRANCH   1  20
HETATM   20  N1  UNL     1      23.643   2.568  52.893  1.00  0.00    -0.322 N 
HETATM   21  C3  UNL     1      22.701   1.528  52.664  1.00  0.00     0.244 C 
HETATM   22  O1  UNL     1      22.854   0.968  51.511  1.00  0.00    -0.268 OA
HETATM   23  H4  UNL     1      23.396   2.847  53.901  1.00  0.00     0.169 HD
BRANCH  21  24
HETATM   24  C2  UNL     1      21.586   0.824  53.246  1.00  0.00     0.064 C 
HETATM   25  C1  UNL     1      21.876  -0.353  53.736  1.00  0.00     0.017 C 
ENDBRANCH  21  24
ENDBRANCH   1  20
BRANCH   6  26
HETATM   26  N6  UNL     1      26.246   1.235  52.661  1.00  0.00    -0.382 N 
HETATM   27  C17 UNL     1      26.092  -0.187  52.513  1.00  0.00     0.150 C 
BRANCH  26  28
HETATM   28  C18 UNL     1      26.963   1.533  53.878  1.00  0.00     0.152 C 
BRANCH  28  29
HETATM   29  C19 UNL     1      27.460   0.277  54.588  1.00  0.00     0.291 C 
BRANCH  29  30
HETATM   30  N7  UNL     1      28.922   0.324  54.692  1.00  0.00     0.081 N 
HETATM   31  C20 UNL     1      29.514  -0.686  53.851  1.00  0.00     0.309 C 
HETATM   32  C21 UNL     1      29.353   1.656  54.420  1.00  0.00     0.309 C 
ENDBRANCH  29  30
ENDBRANCH  28  29
ENDBRANCH  26  28
ENDBRANCH   6  26
TORSDOF 9
ENDMDL
MODEL 8
REMARK VINA RESULT:      -6.7      4.044      6.948
REMARK  9 active torsions:
REMARK  status: ('A' for Active; 'I' for Inactive)
REMARK    1  A    between atoms: C2_2  and  C3_3 
REMARK       I    between atoms: C3_3  and  N1_5 
REMARK    2  A    between atoms: N1_5  and  C4_6 
REMARK    3  A    between atoms: C6_8  and  N2_9 
REMARK    4  A    between atoms: N2_9  and  N3_10 
REMARK    5  A    between atoms: C13_19  and  O2_20 
REMARK    6  A    between atoms: C16_23  and  N6_24 
REMARK    7  A    between atoms: N6_24  and  C18_26 
REMARK    8  A    between atoms: C18_26  and  C19_27 
REMARK    9  A    between atoms: C19_27  and  N7_28 
ROOT
HETATM    1  C4  UNL     1      25.049   7.152  50.040  1.00  0.00     0.064 A 
HETATM    2  C5  UNL     1      24.370   6.326  50.914  1.00  0.00     0.066 A 
HETATM    3  C6  UNL     1      23.032   6.565  51.112  1.00  0.00     0.087 A 
HETATM    4  C13 UNL     1      22.423   7.610  50.440  1.00  0.00     0.098 A 
HETATM    5  C15 UNL     1      23.151   8.427  49.557  1.00  0.00     0.070 A 
HETATM    6  C16 UNL     1      24.500   8.198  49.345  1.00  0.00     0.059 A 
ENDROOT
BRANCH   3   7
HETATM    7  N2  UNL     1      22.152   5.815  51.984  1.00  0.00    -0.260 N 
HETATM    8  H6  UNL     1      21.843   6.209  52.892  1.00  0.00     0.191 HD
BRANCH   7   9
HETATM    9  N3  UNL     1      21.820   4.549  51.422  1.00  0.00    -0.100 N 
HETATM   10  N4  UNL     1      20.777   4.485  50.585  1.00  0.00    -0.145 NA
HETATM   11  C7  UNL     1      20.606   3.213  50.153  1.00  0.00     0.174 A 
HETATM   12  C8  UNL     1      21.593   2.475  50.760  1.00  0.00     0.079 A 
HETATM   13  C9  UNL     1      22.135   1.208  50.906  1.00  0.00     0.035 A 
HETATM   14  N5  UNL     1      22.303   3.326  51.518  1.00  0.00    -0.222 N 
HETATM   15  C10 UNL     1      23.195   1.375  51.788  1.00  0.00     0.029 A 
HETATM   16  C11 UNL     1      23.300   2.716  52.174  1.00  0.00     0.034 A 
HETATM   17  C12 UNL     1      24.301   3.270  53.105  1.00  0.00     0.070 C 
ENDBRANCH   7   9
ENDBRANCH   3   7
BRANCH   4  18
HETATM   18  O2  UNL     1      21.068   7.819  50.675  1.00  0.00    -0.354 OA
HETATM   19  C14 UNL     1      20.115   8.015  49.641  1.00  0.00     0.210 C 
ENDBRANCH   4  18
BRANCH   1  20
HETATM   20  N1  UNL     1      26.426   6.822  49.931  1.00  0.00    -0.322 N 
HETATM   21  C3  UNL     1      26.755   5.744  49.064  1.00  0.00     0.244 C 
HETATM   22  O1  UNL     1      25.717   5.246  48.480  1.00  0.00    -0.268 OA
HETATM   23  H4  UNL     1      27.404   7.128  50.254  1.00  0.00     0.169 HD
BRANCH  21  24
HETATM   24  C2  UNL     1      27.850   4.952  48.562  1.00  0.00     0.064 C 
HETATM   25  C1  UNL     1      28.935   5.627  48.288  1.00  0.00     0.017 C 
ENDBRANCH  21  24
ENDBRANCH   1  20
BRANCH   6  26
HETATM   26  N6  UNL     1      25.196   9.025  48.434  1.00  0.00    -0.382 N 
HETATM   27  C17 UNL     1      25.296   8.822  47.014  1.00  0.00     0.150 C 
BRANCH  26  28
HETATM   28  C18 UNL     1      25.920  10.215  48.817  1.00  0.00     0.152 C 
BRANCH  28  29
HETATM   29  C19 UNL     1      27.280  10.320  48.134  1.00  0.00     0.291 C 
BRANCH  29  30
HETATM   30  N7  UNL     1      28.322  10.503  49.150  1.00  0.00     0.081 N 
HETATM   31  C20 UNL     1      29.041   9.271  49.354  1.00  0.00     0.309 C 
HETATM   32  C21 UNL     1      29.133  11.613  48.771  1.00  0.00     0.309 C 
ENDBRANCH  29  30
ENDBRANCH  28  29
ENDBRANCH  26  28
ENDBRANCH   6  26
TORSDOF 9
ENDMDL
MODEL 9
REMARK VINA RESULT:      -6.7      3.174      8.757
REMARK  9 active torsions:
REMARK  status: ('A' for Active; 'I' for Inactive)
REMARK    1  A    between atoms: C2_2  and  C3_3 
REMARK       I    between atoms: C3_3  and  N1_5 
REMARK    2  A    between atoms: N1_5  and  C4_6 
REMARK    3  A    between atoms: C6_8  and  N2_9 
REMARK    4  A    between atoms: N2_9  and  N3_10 
REMARK    5  A    between atoms: C13_19  and  O2_20 
REMARK    6  A    between atoms: C16_23  and  N6_24 
REMARK    7  A    between atoms: N6_24  and  C18_26 
REMARK    8  A    between atoms: C18_26  and  C19_27 
REMARK    9  A    between atoms: C19_27  and  N7_28 
ROOT
HETATM    1  C4  UNL     1      21.761   1.094  52.300  1.00  0.00     0.064 A 
HETATM    2  C5  UNL     1      20.560   0.854  51.663  1.00  0.00     0.066 A 
HETATM    3  C6  UNL     1      20.463   1.187  50.333  1.00  0.00     0.087 A 
HETATM    4  C13 UNL     1      21.555   1.744  49.692  1.00  0.00     0.098 A 
HETATM    5  C15 UNL     1      22.761   1.971  50.378  1.00  0.00     0.070 A 
HETATM    6  C16 UNL     1      22.877   1.638  51.717  1.00  0.00     0.059 A 
ENDROOT
BRANCH   3   7
HETATM    7  N2  UNL     1      19.294   1.015  49.495  1.00  0.00    -0.260 N 
HETATM    8  H6  UNL     1      19.393   0.772  48.492  1.00  0.00     0.191 HD
BRANCH   7   9
HETATM    9  N3  UNL     1      18.093   1.225  50.230  1.00  0.00    -0.100 N 
HETATM   10  N4  UNL     1      17.295   0.172  50.448  1.00  0.00    -0.145 NA
HETATM   11  C7  UNL     1      16.205   0.554  51.155  1.00  0.00     0.174 A 
HETATM   12  C8  UNL     1      16.354   1.903  51.373  1.00  0.00     0.079 A 
HETATM   13  C9  UNL     1      15.781   3.030  51.941  1.00  0.00     0.035 A 
HETATM   14  N5  UNL     1      17.511   2.264  50.796  1.00  0.00    -0.222 N 
HETATM   15  C10 UNL     1      16.671   4.059  51.659  1.00  0.00     0.029 A 
HETATM   16  C11 UNL     1      17.764   3.573  50.935  1.00  0.00     0.034 A 
HETATM   17  C12 UNL     1      18.906   4.373  50.454  1.00  0.00     0.070 C 
ENDBRANCH   7   9
ENDBRANCH   3   7
BRANCH   4  18
HETATM   18  O2  UNL     1      21.410   2.072  48.348  1.00  0.00    -0.354 OA
HETATM   19  C14 UNL     1      22.503   2.195  47.450  1.00  0.00     0.210 C 
ENDBRANCH   4  18
BRANCH   1  20
HETATM   20  N1  UNL     1      21.737   0.728  53.672  1.00  0.00    -0.322 N 
HETATM   21  C3  UNL     1      22.141  -0.599  53.983  1.00  0.00     0.244 C 
HETATM   22  O1  UNL     1      22.501  -1.265  52.937  1.00  0.00    -0.268 OA
HETATM   23  H4  UNL     1      21.549   1.118  54.655  1.00  0.00     0.169 HD
BRANCH  21  24
HETATM   24  C2  UNL     1      22.310  -1.537  55.066  1.00  0.00     0.064 C 
HETATM   25  C1  UNL     1      23.466  -1.472  55.671  1.00  0.00     0.017 C 
ENDBRANCH  21  24
ENDBRANCH   1  20
BRANCH   6  26
HETATM   26  N6  UNL     1      24.111   1.859  52.371  1.00  0.00    -0.382 N 
HETATM   27  C17 UNL     1      24.491   3.050  53.080  1.00  0.00     0.150 C 
BRANCH  26  28
HETATM   28  C18 UNL     1      25.183   0.892  52.413  1.00  0.00     0.152 C 
BRANCH  28  29
HETATM   29  C19 UNL     1      25.788   0.748  53.806  1.00  0.00     0.291 C 
BRANCH  29  30
HETATM   30  N7  UNL     1      26.639  -0.446  53.845  1.00  0.00     0.081 N 
HETATM   31  C20 UNL     1      26.487  -1.206  52.631  1.00  0.00     0.309 C 
HETATM   32  C21 UNL     1      27.976  -0.039  54.132  1.00  0.00     0.309 C 
ENDBRANCH  29  30
ENDBRANCH  28  29
ENDBRANCH  26  28
ENDBRANCH   6  26
TORSDOF 9
ENDMDL
