MODEL 1
REMARK VINA RESULT:      -7.4      0.000      0.000
REMARK  9 active torsions:
REMARK  status: ('A' for Active; 'I' for Inactive)
REMARK    1  A    between atoms: C2_2  and  C3_3 
REMARK    2  A    between atoms: C3_3  and  C4_4 
REMARK    3  A    between atoms: C4_4  and  C5_5 
REMARK    4  A    between atoms: C5_5  and  C6_6 
REMARK    5  A    between atoms: C6_6  and  C7_7 
REMARK    6  A    between atoms: C7_7  and  C8_8 
REMARK    7  A    between atoms: C7_7  and  N1_10 
REMARK    8  A    between atoms: C8_8  and  O1_9 
REMARK    9  A    between atoms: N1_10  and  C9_11 
ROOT
HETATM    1  C9  UNL     1      24.138   2.681  52.851  1.00  0.00     0.139 A 
HETATM    2  N2  UNL     1      24.251   3.962  52.526  1.00  0.00    -0.224 NA
HETATM    3  C10 UNL     1      23.290   4.768  52.124  1.00  0.00     0.236 A 
HETATM    4  N3  UNL     1      22.076   4.217  52.041  1.00  0.00    -0.234 NA
HETATM    5  C11 UNL     1      21.932   2.954  52.355  1.00  0.00     0.114 A 
HETATM    6  S1  UNL     1      20.414   1.865  52.361  1.00  0.00    -0.073 SA
HETATM    7  C12 UNL     1      21.226   0.378  52.919  1.00  0.00    -0.008 A 
HETATM    8  C13 UNL     1      22.645   0.769  53.083  1.00  0.00    -0.028 A 
HETATM    9  C14 UNL     1      22.922   2.058  52.787  1.00  0.00     0.053 A 
HETATM   10  C15 UNL     1      23.211  -0.501  53.531  1.00  0.00     0.041 C 
HETATM   11  C16 UNL     1      22.532  -0.964  54.816  1.00  0.00     0.005 C 
HETATM   12  C17 UNL     1      21.147  -1.504  54.524  1.00  0.00     0.005 C 
HETATM   13  C18 UNL     1      20.679  -0.951  53.173  1.00  0.00     0.047 C 
ENDROOT
BRANCH   1  14
HETATM   14  N1  UNL     1      25.355   2.047  53.274  1.00  0.00    -0.367 N 
HETATM   15  H12 UNL     1      25.714   1.657  54.153  1.00  0.00     0.161 HD
BRANCH  14  16
HETATM   16  C7  UNL     1      26.443   1.826  52.350  1.00  0.00     0.110 C 
BRANCH  16  17
HETATM   17  C6  UNL     1      26.419   0.441  51.724  1.00  0.00     0.054 C 
BRANCH  17  18
HETATM   18  C5  UNL     1      26.738  -0.546  52.778  1.00  0.00    -0.024 C 
BRANCH  18  19
HETATM   19  C4  UNL     1      26.871  -1.863  52.593  1.00  0.00     0.004 C 
BRANCH  19  20
HETATM   20  C3  UNL     1      28.198  -2.310  52.951  1.00  0.00     0.050 C 
BRANCH  20  21
HETATM   21  C2  UNL     1      29.095  -1.437  53.332  1.00  0.00    -0.155 C 
HETATM   22  C1  UNL     1      30.163  -0.744  53.697  1.00  0.00     0.096 C 
ENDBRANCH  20  21
ENDBRANCH  19  20
ENDBRANCH  18  19
ENDBRANCH  17  18
ENDBRANCH  16  17
BRANCH  16  23
HETATM   23  C8  UNL     1      27.776   2.126  52.946  1.00  0.00     0.189 C 
BRANCH  23  24
HETATM   24  O1  UNL     1      27.643   2.793  54.136  1.00  0.00    -0.399 OA
HETATM   25  H11 UNL     1      26.981   2.309  54.691  1.00  0.00     0.209 HD
ENDBRANCH  23  24
ENDBRANCH  16  23
ENDBRANCH  14  16
ENDBRANCH   1  14
TORSDOF 9
ENDMDL
MODEL 2
REMARK VINA RESULT:      -7.3      3.389      5.918
REMARK  9 active torsions:
REMARK  status: ('A' for Active; 'I' for Inactive)
REMARK    1  A    between atoms: C2_2  and  C3_3 
REMARK    2  A    between atoms: C3_3  and  C4_4 
REMARK    3  A    between atoms: C4_4  and  C5_5 
REMARK    4  A    between atoms: C5_5  and  C6_6 
REMARK    5  A    between atoms: C6_6  and  C7_7 
REMARK    6  A    between atoms: C7_7  and  C8_8 
REMARK    7  A    between atoms: C7_7  and  N1_10 
REMARK    8  A    between atoms: C8_8  and  O1_9 
REMARK    9  A    between atoms: N1_10  and  C9_11 
ROOT
HETATM    1  C9  UNL     1      24.331   2.601  52.435  1.00  0.00     0.139 A 
HETATM    2  N2  UNL     1      23.010   2.490  52.472  1.00  0.00    -0.224 NA
HETATM    3  C10 UNL     1      22.310   1.436  52.841  1.00  0.00     0.236 A 
HETATM    4  N3  UNL     1      23.028   0.373  53.215  1.00  0.00    -0.234 NA
HETATM    5  C11 UNL     1      24.334   0.451  53.188  1.00  0.00     0.114 A 
HETATM    6  S1  UNL     1      25.640  -0.808  53.634  1.00  0.00    -0.073 SA
HETATM    7  C12 UNL     1      27.053   0.219  53.276  1.00  0.00    -0.008 A 
HETATM    8  C13 UNL     1      26.472   1.505  52.823  1.00  0.00    -0.028 A 
HETATM    9  C14 UNL     1      25.121   1.548  52.805  1.00  0.00     0.053 A 
HETATM   10  C15 UNL     1      27.694   2.258  52.556  1.00  0.00     0.041 C 
HETATM   11  C16 UNL     1      28.544   2.362  53.818  1.00  0.00     0.005 C 
HETATM   12  C17 UNL     1      29.234   1.044  54.107  1.00  0.00     0.005 C 
HETATM   13  C18 UNL     1      28.478  -0.075  53.380  1.00  0.00     0.047 C 
ENDROOT
BRANCH   1  14
HETATM   14  N1  UNL     1      24.826   3.879  52.006  1.00  0.00    -0.367 N 
HETATM   15  H12 UNL     1      25.565   4.522  52.313  1.00  0.00     0.161 HD
BRANCH  14  16
HETATM   16  C7  UNL     1      24.249   4.561  50.872  1.00  0.00     0.110 C 
BRANCH  16  17
HETATM   17  C6  UNL     1      24.883   4.159  49.550  1.00  0.00     0.054 C 
BRANCH  17  18
HETATM   18  C5  UNL     1      26.341   4.033  49.759  1.00  0.00    -0.024 C 
BRANCH  18  19
HETATM   19  C4  UNL     1      27.283   4.373  48.874  1.00  0.00     0.004 C 
BRANCH  19  20
HETATM   20  C3  UNL     1      27.235   5.786  48.575  1.00  0.00     0.050 C 
BRANCH  20  21
HETATM   21  C2  UNL     1      28.277   6.372  48.043  1.00  0.00    -0.155 C 
HETATM   22  C1  UNL     1      29.218   7.178  47.573  1.00  0.00     0.096 C 
ENDBRANCH  20  21
ENDBRANCH  19  20
ENDBRANCH  18  19
ENDBRANCH  17  18
ENDBRANCH  16  17
BRANCH  16  23
HETATM   23  C8  UNL     1      24.236   6.043  51.035  1.00  0.00     0.189 C 
BRANCH  23  24
HETATM   24  O1  UNL     1      24.420   6.394  52.347  1.00  0.00    -0.399 OA
HETATM   25  H11 UNL     1      24.951   5.683  52.788  1.00  0.00     0.209 HD
ENDBRANCH  23  24
ENDBRANCH  16  23
ENDBRANCH  14  16
ENDBRANCH   1  14
TORSDOF 9
ENDMDL
MODEL 3
REMARK VINA RESULT:      -7.0      2.815      6.193
REMARK  9 active torsions:
REMARK  status: ('A' for Active; 'I' for Inactive)
REMARK    1  A    between atoms: C2_2  and  C3_3 
REMARK    2  A    between atoms: C3_3  and  C4_4 
REMARK    3  A    between atoms: C4_4  and  C5_5 
REMARK    4  A    between atoms: C5_5  and  C6_6 
REMARK    5  A    between atoms: C6_6  and  C7_7 
REMARK    6  A    between atoms: C7_7  and  C8_8 
REMARK    7  A    between atoms: C7_7  and  N1_10 
REMARK    8  A    between atoms: C8_8  and  O1_9 
REMARK    9  A    between atoms: N1_10  and  C9_11 
ROOT
HETATM    1  C9  UNL     1      24.229   0.335  53.216  1.00  0.00     0.139 A 
HETATM    2  N2  UNL     1      24.976  -0.725  53.493  1.00  0.00    -0.224 NA
HETATM    3  C10 UNL     1      26.199  -0.969  53.067  1.00  0.00     0.236 A 
HETATM    4  N3  UNL     1      26.726  -0.036  52.271  1.00  0.00    -0.234 NA
HETATM    5  C11 UNL     1      26.013   1.022  51.978  1.00  0.00     0.114 A 
HETATM    6  S1  UNL     1      26.413   2.507  50.917  1.00  0.00    -0.073 SA
HETATM    7  C12 UNL     1      24.858   3.351  51.143  1.00  0.00    -0.008 A 
HETATM    8  C13 UNL     1      24.077   2.459  52.032  1.00  0.00    -0.028 A 
HETATM    9  C14 UNL     1      24.711   1.326  52.406  1.00  0.00     0.053 A 
HETATM   10  C15 UNL     1      22.843   3.230  52.148  1.00  0.00     0.041 C 
HETATM   11  C16 UNL     1      23.127   4.610  52.733  1.00  0.00     0.005 C 
HETATM   12  C17 UNL     1      23.774   5.506  51.696  1.00  0.00     0.005 C 
HETATM   13  C18 UNL     1      24.395   4.626  50.605  1.00  0.00     0.047 C 
ENDROOT
BRANCH   1  14
HETATM   14  N1  UNL     1      22.932   0.349  53.834  1.00  0.00    -0.367 N 
HETATM   15  H12 UNL     1      22.505   0.828  54.635  1.00  0.00     0.161 HD
BRANCH  14  16
HETATM   16  C7  UNL     1      21.850  -0.456  53.318  1.00  0.00     0.110 C 
BRANCH  16  17
HETATM   17  C6  UNL     1      20.591   0.350  53.038  1.00  0.00     0.054 C 
BRANCH  17  18
HETATM   18  C5  UNL     1      20.394   0.398  51.573  1.00  0.00    -0.024 C 
BRANCH  18  19
HETATM   19  C4  UNL     1      21.356   0.263  50.656  1.00  0.00     0.004 C 
BRANCH  19  20
HETATM   20  C3  UNL     1      21.035   0.990  49.449  1.00  0.00     0.050 C 
BRANCH  20  21
HETATM   21  C2  UNL     1      21.954   1.719  48.867  1.00  0.00    -0.155 C 
HETATM   22  C1  UNL     1      22.706   2.501  48.108  1.00  0.00     0.096 C 
ENDBRANCH  20  21
ENDBRANCH  19  20
ENDBRANCH  18  19
ENDBRANCH  17  18
ENDBRANCH  16  17
BRANCH  16  23
HETATM   23  C8  UNL     1      21.553  -1.641  54.173  1.00  0.00     0.189 C 
BRANCH  23  24
HETATM   24  O1  UNL     1      22.339  -1.645  55.296  1.00  0.00    -0.399 OA
HETATM   25  H11 UNL     1      21.747  -1.686  56.089  1.00  0.00     0.209 HD
ENDBRANCH  23  24
ENDBRANCH  16  23
ENDBRANCH  14  16
ENDBRANCH   1  14
TORSDOF 9
ENDMDL
MODEL 4
REMARK VINA RESULT:      -6.8      2.269      3.757
REMARK  9 active torsions:
REMARK  status: ('A' for Active; 'I' for Inactive)
REMARK    1  A    between atoms: C2_2  and  C3_3 
REMARK    2  A    between atoms: C3_3  and  C4_4 
REMARK    3  A    between atoms: C4_4  and  C5_5 
REMARK    4  A    between atoms: C5_5  and  C6_6 
REMARK    5  A    between atoms: C6_6  and  C7_7 
REMARK    6  A    between atoms: C7_7  and  C8_8 
REMARK    7  A    between atoms: C7_7  and  N1_10 
REMARK    8  A    between atoms: C8_8  and  O1_9 
REMARK    9  A    between atoms: N1_10  and  C9_11 
ROOT
HETATM    1  C9  UNL     1      23.625   0.039  53.332  1.00  0.00     0.139 A 
HETATM    2  N2  UNL     1      24.184  -0.638  54.326  1.00  0.00    -0.224 NA
HETATM    3  C10 UNL     1      23.570  -1.361  55.240  1.00  0.00     0.236 A 
HETATM    4  N3  UNL     1      22.238  -1.403  55.138  1.00  0.00    -0.234 NA
HETATM    5  C11 UNL     1      21.657  -0.744  54.168  1.00  0.00     0.114 A 
HETATM    6  S1  UNL     1      19.852  -0.576  53.718  1.00  0.00    -0.073 SA
HETATM    7  C12 UNL     1      20.085   0.481  52.301  1.00  0.00    -0.008 A 
HETATM    8  C13 UNL     1      21.553   0.672  52.219  1.00  0.00    -0.028 A 
HETATM    9  C14 UNL     1      22.267   0.036  53.174  1.00  0.00     0.053 A 
HETATM   10  C15 UNL     1      21.632   1.540  51.048  1.00  0.00     0.041 C 
HETATM   11  C16 UNL     1      21.017   0.855  49.831  1.00  0.00     0.005 C 
HETATM   12  C17 UNL     1      19.504   0.858  49.925  1.00  0.00     0.005 C 
HETATM   13  C18 UNL     1      19.104   1.062  51.392  1.00  0.00     0.047 C 
ENDROOT
BRANCH   1  14
HETATM   14  N1  UNL     1      24.544   0.729  52.469  1.00  0.00    -0.367 N 
HETATM   15  H12 UNL     1      24.464   1.334  51.644  1.00  0.00     0.161 HD
BRANCH  14  16
HETATM   16  C7  UNL     1      25.970   0.657  52.686  1.00  0.00     0.110 C 
BRANCH  16  17
HETATM   17  C6  UNL     1      26.683   1.967  52.392  1.00  0.00     0.054 C 
BRANCH  17  18
HETATM   18  C5  UNL     1      27.486   2.329  53.580  1.00  0.00    -0.024 C 
BRANCH  18  19
HETATM   19  C4  UNL     1      28.810   2.180  53.695  1.00  0.00     0.004 C 
BRANCH  19  20
HETATM   20  C3  UNL     1      29.138   1.107  54.606  1.00  0.00     0.050 C 
BRANCH  20  21
HETATM   21  C2  UNL     1      29.441  -0.075  54.133  1.00  0.00    -0.155 C 
HETATM   22  C1  UNL     1      29.950  -1.157  53.563  1.00  0.00     0.096 C 
ENDBRANCH  20  21
ENDBRANCH  19  20
ENDBRANCH  18  19
ENDBRANCH  17  18
ENDBRANCH  16  17
BRANCH  16  23
HETATM   23  C8  UNL     1      26.607  -0.479  51.959  1.00  0.00     0.189 C 
BRANCH  23  24
HETATM   24  O1  UNL     1      26.571  -1.624  52.711  1.00  0.00    -0.399 OA
HETATM   25  H11 UNL     1      26.894  -2.374  52.151  1.00  0.00     0.209 HD
ENDBRANCH  23  24
ENDBRANCH  16  23
ENDBRANCH  14  16
ENDBRANCH   1  14
TORSDOF 9
ENDMDL
MODEL 5
REMARK VINA RESULT:      -6.7      2.510      4.780
REMARK  9 active torsions:
REMARK  status: ('A' for Active; 'I' for Inactive)
REMARK    1  A    between atoms: C2_2  and  C3_3 
REMARK    2  A    between atoms: C3_3  and  C4_4 
REMARK    3  A    between atoms: C4_4  and  C5_5 
REMARK    4  A    between atoms: C5_5  and  C6_6 
REMARK    5  A    between atoms: C6_6  and  C7_7 
REMARK    6  A    between atoms: C7_7  and  C8_8 
REMARK    7  A    between atoms: C7_7  and  N1_10 
REMARK    8  A    between atoms: C8_8  and  O1_9 
REMARK    9  A    between atoms: N1_10  and  C9_11 
ROOT
HETATM    1  C9  UNL     1      23.637  -0.262  53.583  1.00  0.00     0.139 A 
HETATM    2  N2  UNL     1      23.887  -1.012  54.648  1.00  0.00    -0.224 NA
HETATM    3  C10 UNL     1      23.005  -1.600  55.431  1.00  0.00     0.236 A 
HETATM    4  N3  UNL     1      21.725  -1.406  55.101  1.00  0.00    -0.234 NA
HETATM    5  C11 UNL     1      21.447  -0.669  54.055  1.00  0.00     0.114 A 
HETATM    6  S1  UNL     1      19.805  -0.189  53.304  1.00  0.00    -0.073 SA
HETATM    7  C12 UNL     1      20.464   0.787  51.965  1.00  0.00    -0.008 A 
HETATM    8  C13 UNL     1      21.933   0.712  52.140  1.00  0.00    -0.028 A 
HETATM    9  C14 UNL     1      22.348  -0.025  53.193  1.00  0.00     0.053 A 
HETATM   10  C15 UNL     1      22.367   1.535  51.014  1.00  0.00     0.041 C 
HETATM   11  C16 UNL     1      21.858   0.951  49.699  1.00  0.00     0.005 C 
HETATM   12  C17 UNL     1      20.378   1.225  49.531  1.00  0.00     0.005 C 
HETATM   13  C18 UNL     1      19.773   1.520  50.909  1.00  0.00     0.047 C 
ENDROOT
BRANCH   1  14
HETATM   14  N1  UNL     1      24.798   0.240  52.902  1.00  0.00    -0.367 N 
HETATM   15  H12 UNL     1      25.248   0.073  51.995  1.00  0.00     0.161 HD
BRANCH  14  16
HETATM   16  C7  UNL     1      25.649   1.236  53.510  1.00  0.00     0.110 C 
BRANCH  16  17
HETATM   17  C6  UNL     1      25.805   2.486  52.658  1.00  0.00     0.054 C 
BRANCH  17  18
HETATM   18  C5  UNL     1      26.160   2.064  51.286  1.00  0.00    -0.024 C 
BRANCH  18  19
HETATM   19  C4  UNL     1      26.422   2.887  50.265  1.00  0.00     0.004 C 
BRANCH  19  20
HETATM   20  C3  UNL     1      25.552   4.040  50.286  1.00  0.00     0.050 C 
BRANCH  20  21
HETATM   21  C2  UNL     1      24.471   4.050  49.548  1.00  0.00    -0.155 C 
HETATM   22  C1  UNL     1      23.484   4.256  48.689  1.00  0.00     0.096 C 
ENDBRANCH  20  21
ENDBRANCH  19  20
ENDBRANCH  18  19
ENDBRANCH  17  18
ENDBRANCH  16  17
BRANCH  16  23
HETATM   23  C8  UNL     1      26.975   0.692  53.918  1.00  0.00     0.189 C 
BRANCH  23  24
HETATM   24  O1  UNL     1      26.843  -0.207  54.944  1.00  0.00    -0.399 OA
HETATM   25  H11 UNL     1      27.027  -1.113  54.590  1.00  0.00     0.209 HD
ENDBRANCH  23  24
ENDBRANCH  16  23
ENDBRANCH  14  16
ENDBRANCH   1  14
TORSDOF 9
ENDMDL
MODEL 6
REMARK VINA RESULT:      -6.7      2.240      5.530
REMARK  9 active torsions:
REMARK  status: ('A' for Active; 'I' for Inactive)
REMARK    1  A    between atoms: C2_2  and  C3_3 
REMARK    2  A    between atoms: C3_3  and  C4_4 
REMARK    3  A    between atoms: C4_4  and  C5_5 
REMARK    4  A    between atoms: C5_5  and  C6_6 
REMARK    5  A    between atoms: C6_6  and  C7_7 
REMARK    6  A    between atoms: C7_7  and  C8_8 
REMARK    7  A    between atoms: C7_7  and  N1_10 
REMARK    8  A    between atoms: C8_8  and  O1_9 
REMARK    9  A    between atoms: N1_10  and  C9_11 
ROOT
HETATM    1  C9  UNL     1      25.064   0.645  52.456  1.00  0.00     0.139 A 
HETATM    2  N2  UNL     1      26.331   0.297  52.639  1.00  0.00    -0.224 NA
HETATM    3  C10 UNL     1      26.809  -0.507  53.567  1.00  0.00     0.236 A 
HETATM    4  N3  UNL     1      25.903  -1.017  54.406  1.00  0.00    -0.234 NA
HETATM    5  C11 UNL     1      24.644  -0.691  54.253  1.00  0.00     0.114 A 
HETATM    6  S1  UNL     1      23.127  -1.201  55.216  1.00  0.00    -0.073 SA
HETATM    7  C12 UNL     1      21.948  -0.263  54.262  1.00  0.00    -0.008 A 
HETATM    8  C13 UNL     1      22.764   0.416  53.227  1.00  0.00    -0.028 A 
HETATM    9  C14 UNL     1      24.089   0.157  53.283  1.00  0.00     0.053 A 
HETATM   10  C15 UNL     1      21.719   1.147  52.516  1.00  0.00     0.041 C 
HETATM   11  C16 UNL     1      20.674   0.183  51.962  1.00  0.00     0.005 C 
HETATM   12  C17 UNL     1      19.779  -0.330  53.072  1.00  0.00     0.005 C 
HETATM   13  C18 UNL     1      20.502  -0.144  54.412  1.00  0.00     0.047 C 
ENDROOT
BRANCH   1  14
HETATM   14  N1  UNL     1      24.825   1.528  51.349  1.00  0.00    -0.367 N 
HETATM   15  H12 UNL     1      24.432   1.433  50.405  1.00  0.00     0.161 HD
BRANCH  14  16
HETATM   16  C7  UNL     1      25.163   2.929  51.424  1.00  0.00     0.110 C 
BRANCH  16  17
HETATM   17  C6  UNL     1      24.021   3.840  51.000  1.00  0.00     0.054 C 
BRANCH  17  18
HETATM   18  C5  UNL     1      23.496   4.512  52.208  1.00  0.00    -0.024 C 
BRANCH  18  19
HETATM   19  C4  UNL     1      22.217   4.836  52.421  1.00  0.00     0.004 C 
BRANCH  19  20
HETATM   20  C3  UNL     1      21.412   4.586  51.248  1.00  0.00     0.050 C 
BRANCH  20  21
HETATM   21  C2  UNL     1      20.201   4.106  51.382  1.00  0.00    -0.155 C 
HETATM   22  C1  UNL     1      18.918   3.783  51.337  1.00  0.00     0.096 C 
ENDBRANCH  20  21
ENDBRANCH  19  20
ENDBRANCH  18  19
ENDBRANCH  17  18
ENDBRANCH  16  17
BRANCH  16  23
HETATM   23  C8  UNL     1      26.418   3.261  50.692  1.00  0.00     0.189 C 
BRANCH  23  24
HETATM   24  O1  UNL     1      27.518   3.047  51.481  1.00  0.00    -0.399 OA
HETATM   25  H11 UNL     1      28.323   3.067  50.905  1.00  0.00     0.209 HD
ENDBRANCH  23  24
ENDBRANCH  16  23
ENDBRANCH  14  16
ENDBRANCH   1  14
TORSDOF 9
ENDMDL
MODEL 7
REMARK VINA RESULT:      -6.6      2.605      5.292
REMARK  9 active torsions:
REMARK  status: ('A' for Active; 'I' for Inactive)
REMARK    1  A    between atoms: C2_2  and  C3_3 
REMARK    2  A    between atoms: C3_3  and  C4_4 
REMARK    3  A    between atoms: C4_4  and  C5_5 
REMARK    4  A    between atoms: C5_5  and  C6_6 
REMARK    5  A    between atoms: C6_6  and  C7_7 
REMARK    6  A    between atoms: C7_7  and  C8_8 
REMARK    7  A    between atoms: C7_7  and  N1_10 
REMARK    8  A    between atoms: C8_8  and  O1_9 
REMARK    9  A    between atoms: N1_10  and  C9_11 
ROOT
HETATM    1  C9  UNL     1      22.879   3.690  52.265  1.00  0.00     0.139 A 
HETATM    2  N2  UNL     1      21.643   4.160  52.160  1.00  0.00    -0.224 NA
HETATM    3  C10 UNL     1      20.520   3.487  52.307  1.00  0.00     0.236 A 
HETATM    4  N3  UNL     1      20.662   2.190  52.592  1.00  0.00    -0.234 NA
HETATM    5  C11 UNL     1      21.870   1.695  52.702  1.00  0.00     0.114 A 
HETATM    6  S1  UNL     1      22.446  -0.039  53.086  1.00  0.00    -0.073 SA
HETATM    7  C12 UNL     1      24.195   0.300  53.014  1.00  0.00    -0.008 A 
HETATM    8  C13 UNL     1      24.280   1.744  52.695  1.00  0.00    -0.028 A 
HETATM    9  C14 UNL     1      23.091   2.371  52.555  1.00  0.00     0.053 A 
HETATM   10  C15 UNL     1      25.730   1.912  52.655  1.00  0.00     0.041 C 
HETATM   11  C16 UNL     1      26.350   1.526  53.995  1.00  0.00     0.005 C 
HETATM   12  C17 UNL     1      26.372   0.020  54.158  1.00  0.00     0.005 C 
HETATM   13  C18 UNL     1      25.333  -0.592  53.210  1.00  0.00     0.047 C 
ENDROOT
BRANCH   1  14
HETATM   14  N1  UNL     1      23.921   4.659  52.072  1.00  0.00    -0.367 N 
HETATM   15  H12 UNL     1      24.624   5.112  52.667  1.00  0.00     0.161 HD
BRANCH  14  16
HETATM   16  C7  UNL     1      24.175   5.233  50.771  1.00  0.00     0.110 C 
BRANCH  16  17
HETATM   17  C6  UNL     1      24.965   4.310  49.857  1.00  0.00     0.054 C 
BRANCH  17  18
HETATM   18  C5  UNL     1      24.009   3.605  48.978  1.00  0.00    -0.024 C 
BRANCH  18  19
HETATM   19  C4  UNL     1      22.973   4.168  48.348  1.00  0.00     0.004 C 
BRANCH  19  20
HETATM   20  C3  UNL     1      21.737   3.488  48.661  1.00  0.00     0.050 C 
BRANCH  20  21
HETATM   21  C2  UNL     1      21.745   2.197  48.879  1.00  0.00    -0.155 C 
HETATM   22  C1  UNL     1      21.510   0.922  49.152  1.00  0.00     0.096 C 
ENDBRANCH  20  21
ENDBRANCH  19  20
ENDBRANCH  18  19
ENDBRANCH  17  18
ENDBRANCH  16  17
BRANCH  16  23
HETATM   23  C8  UNL     1      24.803   6.583  50.849  1.00  0.00     0.189 C 
BRANCH  23  24
HETATM   24  O1  UNL     1      24.161   7.370  51.769  1.00  0.00    -0.399 OA
HETATM   25  H11 UNL     1      23.632   6.783  52.366  1.00  0.00     0.209 HD
ENDBRANCH  23  24
ENDBRANCH  16  23
ENDBRANCH  14  16
ENDBRANCH   1  14
TORSDOF 9
ENDMDL
MODEL 8
REMARK VINA RESULT:      -6.5      2.433      3.807
REMARK  9 active torsions:
REMARK  status: ('A' for Active; 'I' for Inactive)
REMARK    1  A    between atoms: C2_2  and  C3_3 
REMARK    2  A    between atoms: C3_3  and  C4_4 
REMARK    3  A    between atoms: C4_4  and  C5_5 
REMARK    4  A    between atoms: C5_5  and  C6_6 
REMARK    5  A    between atoms: C6_6  and  C7_7 
REMARK    6  A    between atoms: C7_7  and  C8_8 
REMARK    7  A    between atoms: C7_7  and  N1_10 
REMARK    8  A    between atoms: C8_8  and  O1_9 
REMARK    9  A    between atoms: N1_10  and  C9_11 
ROOT
HETATM    1  C9  UNL     1      25.098   3.032  50.877  1.00  0.00     0.139 A 
HETATM    2  N2  UNL     1      25.982   3.975  50.582  1.00  0.00    -0.224 NA
HETATM    3  C10 UNL     1      25.908   4.859  49.608  1.00  0.00     0.236 A 
HETATM    4  N3  UNL     1      24.814   4.781  48.845  1.00  0.00    -0.234 NA
HETATM    5  C11 UNL     1      23.922   3.859  49.110  1.00  0.00     0.114 A 
HETATM    6  S1  UNL     1      22.300   3.457  48.276  1.00  0.00    -0.073 SA
HETATM    7  C12 UNL     1      21.850   2.097  49.338  1.00  0.00    -0.008 A 
HETATM    8  C13 UNL     1      22.968   1.996  50.305  1.00  0.00    -0.028 A 
HETATM    9  C14 UNL     1      23.958   2.900  50.133  1.00  0.00     0.053 A 
HETATM   10  C15 UNL     1      22.508   0.869  51.111  1.00  0.00     0.041 C 
HETATM   11  C16 UNL     1      21.155   1.181  51.744  1.00  0.00     0.005 C 
HETATM   12  C17 UNL     1      20.050   1.095  50.710  1.00  0.00     0.005 C 
HETATM   13  C18 UNL     1      20.670   1.238  49.315  1.00  0.00     0.047 C 
ENDROOT
BRANCH   1  14
HETATM   14  N1  UNL     1      25.430   2.214  52.010  1.00  0.00    -0.367 N 
HETATM   15  H12 UNL     1      25.054   2.081  52.956  1.00  0.00     0.161 HD
BRANCH  14  16
HETATM   16  C7  UNL     1      26.540   1.293  51.966  1.00  0.00     0.110 C 
BRANCH  16  17
HETATM   17  C6  UNL     1      26.127  -0.149  52.216  1.00  0.00     0.054 C 
BRANCH  17  18
HETATM   18  C5  UNL     1      26.235  -0.414  53.667  1.00  0.00    -0.024 C 
BRANCH  18  19
HETATM   19  C4  UNL     1      25.216  -0.719  54.477  1.00  0.00     0.004 C 
BRANCH  19  20
HETATM   20  C3  UNL     1      23.947  -0.398  53.865  1.00  0.00     0.050 C 
BRANCH  20  21
HETATM   21  C2  UNL     1      22.852  -0.957  54.314  1.00  0.00    -0.155 C 
HETATM   22  C1  UNL     1      21.638  -1.303  54.716  1.00  0.00     0.096 C 
ENDBRANCH  20  21
ENDBRANCH  19  20
ENDBRANCH  18  19
ENDBRANCH  17  18
ENDBRANCH  16  17
BRANCH  16  23
HETATM   23  C8  UNL     1      27.660   1.696  52.864  1.00  0.00     0.189 C 
BRANCH  23  24
HETATM   24  O1  UNL     1      28.245   2.856  52.427  1.00  0.00    -0.399 OA
HETATM   25  H11 UNL     1      28.619   2.695  51.524  1.00  0.00     0.209 HD
ENDBRANCH  23  24
ENDBRANCH  16  23
ENDBRANCH  14  16
ENDBRANCH   1  14
TORSDOF 9
ENDMDL
MODEL 9
REMARK VINA RESULT:      -6.5      2.428      4.272
REMARK  9 active torsions:
REMARK  status: ('A' for Active; 'I' for Inactive)
REMARK    1  A    between atoms: C2_2  and  C3_3 
REMARK    2  A    between atoms: C3_3  and  C4_4 
REMARK    3  A    between atoms: C4_4  and  C5_5 
REMARK    4  A    between atoms: C5_5  and  C6_6 
REMARK    5  A    between atoms: C6_6  and  C7_7 
REMARK    6  A    between atoms: C7_7  and  C8_8 
REMARK    7  A    between atoms: C7_7  and  N1_10 
REMARK    8  A    between atoms: C8_8  and  O1_9 
REMARK    9  A    between atoms: N1_10  and  C9_11 
ROOT
HETATM    1  C9  UNL     1      21.990   0.467  52.658  1.00  0.00     0.139 A 
HETATM    2  N2  UNL     1      20.820  -0.143  52.797  1.00  0.00    -0.224 NA
HETATM    3  C10 UNL     1      19.626   0.367  52.575  1.00  0.00     0.236 A 
HETATM    4  N3  UNL     1      19.612   1.638  52.167  1.00  0.00    -0.234 NA
HETATM    5  C11 UNL     1      20.751   2.268  52.020  1.00  0.00     0.114 A 
HETATM    6  S1  UNL     1      21.115   4.017  51.475  1.00  0.00    -0.073 SA
HETATM    7  C12 UNL     1      22.891   3.909  51.596  1.00  0.00    -0.008 A 
HETATM    8  C13 UNL     1      23.148   2.523  52.054  1.00  0.00    -0.028 A 
HETATM    9  C14 UNL     1      22.043   1.769  52.243  1.00  0.00     0.053 A 
HETATM   10  C15 UNL     1      24.606   2.543  52.123  1.00  0.00     0.041 C 
HETATM   11  C16 UNL     1      25.201   2.875  50.758  1.00  0.00     0.005 C 
HETATM   12  C17 UNL     1      25.040   4.350  50.450  1.00  0.00     0.005 C 
HETATM   13  C18 UNL     1      23.913   4.914  51.324  1.00  0.00     0.047 C 
ENDROOT
BRANCH   1  14
HETATM   14  N1  UNL     1      23.140  -0.341  52.954  1.00  0.00    -0.367 N 
HETATM   15  H12 UNL     1      23.763  -0.957  52.420  1.00  0.00     0.161 HD
BRANCH  14  16
HETATM   16  C7  UNL     1      23.683  -0.406  54.291  1.00  0.00     0.110 C 
BRANCH  16  17
HETATM   17  C6  UNL     1      25.202  -0.347  54.320  1.00  0.00     0.054 C 
BRANCH  17  18
HETATM   18  C5  UNL     1      25.710  -0.984  53.086  1.00  0.00    -0.024 C 
BRANCH  18  19
HETATM   19  C4  UNL     1      26.682  -0.499  52.307  1.00  0.00     0.004 C 
BRANCH  19  20
HETATM   20  C3  UNL     1      27.663   0.225  53.083  1.00  0.00     0.050 C 
BRANCH  20  21
HETATM   21  C2  UNL     1      28.760  -0.378  53.465  1.00  0.00    -0.155 C 
HETATM   22  C1  UNL     1      29.870  -1.084  53.620  1.00  0.00     0.096 C 
ENDBRANCH  20  21
ENDBRANCH  19  20
ENDBRANCH  18  19
ENDBRANCH  17  18
ENDBRANCH  16  17
BRANCH  16  23
HETATM   23  C8  UNL     1      23.173  -1.575  55.063  1.00  0.00     0.189 C 
BRANCH  23  24
HETATM   24  O1  UNL     1      21.854  -1.407  55.394  1.00  0.00    -0.399 OA
HETATM   25  H11 UNL     1      21.578  -2.167  55.967  1.00  0.00     0.209 HD
ENDBRANCH  23  24
ENDBRANCH  16  23
ENDBRANCH  14  16
ENDBRANCH   1  14
TORSDOF 9
ENDMDL
