MODEL 1
REMARK VINA RESULT:      -7.2      0.000      0.000
REMARK  5 active torsions:
REMARK  status: ('A' for Active; 'I' for Inactive)
REMARK    1  A    between atoms: C2_2  and  C3_3 
REMARK    2  A    between atoms: C3_3  and  C4_4 
REMARK    3  A    between atoms: C6_6  and  N1_7 
REMARK    4  A    between atoms: C15_18  and  O3_19 
REMARK    5  A    between atoms: O3_19  and  O4_20 
ROOT
HETATM    1  C4  UNL     1      24.796   0.580  53.621  1.00  0.00     0.017 C 
HETATM    2  C5  UNL     1      23.796  -0.425  54.085  1.00  0.00    -0.001 C 
HETATM    3  C6  UNL     1      22.537  -0.832  54.076  1.00  0.00     0.006 C 
HETATM    4  C7  UNL     1      21.708  -0.049  53.075  1.00  0.00     0.260 C 
HETATM    5  O1  UNL     1      20.725   0.614  53.687  1.00  0.00    -0.235 OA
HETATM    6  O2  UNL     1      20.066   1.445  53.045  1.00  0.00    -0.236 OA
HETATM    7  C8  UNL     1      20.580   2.574  52.591  1.00  0.00     0.249 C 
HETATM    8  C9  UNL     1      21.611   2.555  51.566  1.00  0.00    -0.023 A 
HETATM    9  C10 UNL     1      20.963   2.320  50.339  1.00  0.00     0.010 A 
HETATM   10  C11 UNL     1      21.557   2.269  49.071  1.00  0.00     0.001 A 
HETATM   11  C12 UNL     1      22.909   2.460  48.949  1.00  0.00     0.001 A 
HETATM   12  C13 UNL     1      23.584   2.695  50.156  1.00  0.00     0.010 A 
HETATM   13  C14 UNL     1      22.996   2.742  51.397  1.00  0.00    -0.017 A 
HETATM   14  C15 UNL     1      23.841   2.926  52.611  1.00  0.00     0.108 C 
HETATM   15  C16 UNL     1      24.190   1.699  52.927  1.00  0.00     0.126 C 
ENDROOT
BRANCH   1  16
HETATM   16  C3  UNL     1      25.660  -0.146  52.564  1.00  0.00     0.009 C 
BRANCH  16  17
HETATM   17  C2  UNL     1      26.769   0.713  52.051  1.00  0.00    -0.004 C 
HETATM   18  C1  UNL     1      27.828   0.825  53.142  1.00  0.00     0.005 C 
ENDBRANCH  16  17
ENDBRANCH   1  16
BRANCH   3  19
HETATM   19  N1  UNL     1      21.806  -1.917  54.675  1.00  0.00    -0.305 NA
HETATM   20  H10 UNL     1      21.687  -2.835  54.156  1.00  0.00     0.124 HD
HETATM   21  H11 UNL     1      21.785  -2.740  54.035  1.00  0.00     0.124 HD
ENDBRANCH   3  19
BRANCH  14  22
HETATM   22  O3  UNL     1      23.621   4.261  52.493  1.00  0.00    -0.232 OA
BRANCH  22  23
HETATM   23  O4  UNL     1      23.908   5.191  53.392  1.00  0.00    -0.250 OA
HETATM   24  H20 UNL     1      24.647   4.805  53.961  1.00  0.00     0.253 HD
ENDBRANCH  22  23
ENDBRANCH  14  22
TORSDOF 5
ENDMDL
MODEL 2
REMARK VINA RESULT:      -7.1      2.482      3.381
REMARK  5 active torsions:
REMARK  status: ('A' for Active; 'I' for Inactive)
REMARK    1  A    between atoms: C2_2  and  C3_3 
REMARK    2  A    between atoms: C3_3  and  C4_4 
REMARK    3  A    between atoms: C6_6  and  N1_7 
REMARK    4  A    between atoms: C15_18  and  O3_19 
REMARK    5  A    between atoms: O3_19  and  O4_20 
ROOT
HETATM    1  C4  UNL     1      26.416   2.874  51.462  1.00  0.00     0.017 C 
HETATM    2  C5  UNL     1      26.967   1.576  51.950  1.00  0.00    -0.001 C 
HETATM    3  C6  UNL     1      26.716   0.361  52.409  1.00  0.00     0.006 C 
HETATM    4  C7  UNL     1      25.239   0.023  52.308  1.00  0.00     0.260 C 
HETATM    5  O1  UNL     1      24.720  -0.206  53.515  1.00  0.00    -0.235 OA
HETATM    6  O2  UNL     1      23.491  -0.317  53.633  1.00  0.00    -0.236 OA
HETATM    7  C8  UNL     1      22.656   0.687  53.435  1.00  0.00     0.249 C 
HETATM    8  C9  UNL     1      22.508   1.273  52.113  1.00  0.00    -0.023 A 
HETATM    9  C10 UNL     1      21.685   0.404  51.371  1.00  0.00     0.010 A 
HETATM   10  C11 UNL     1      21.234   0.590  50.059  1.00  0.00     0.001 A 
HETATM   11  C12 UNL     1      21.597   1.718  49.371  1.00  0.00     0.001 A 
HETATM   12  C13 UNL     1      22.419   2.605  50.084  1.00  0.00     0.010 A 
HETATM   13  C14 UNL     1      22.861   2.416  51.370  1.00  0.00    -0.017 A 
HETATM   14  C15 UNL     1      23.794   3.402  51.987  1.00  0.00     0.108 C 
HETATM   15  C16 UNL     1      24.979   2.971  51.618  1.00  0.00     0.126 C 
ENDROOT
BRANCH   1  16
HETATM   16  C3  UNL     1      26.671   2.889  49.936  1.00  0.00     0.009 C 
BRANCH  16  17
HETATM   17  C2  UNL     1      26.296   4.194  49.312  1.00  0.00    -0.004 C 
HETATM   18  C1  UNL     1      27.549   4.803  48.693  1.00  0.00     0.005 C 
ENDBRANCH  16  17
ENDBRANCH   1  16
BRANCH   3  19
HETATM   19  N1  UNL     1      27.513  -0.756  52.843  1.00  0.00    -0.305 NA
HETATM   20  H10 UNL     1      27.151  -1.748  52.733  1.00  0.00     0.124 HD
HETATM   21  H11 UNL     1      27.012  -1.653  52.663  1.00  0.00     0.124 HD
ENDBRANCH   3  19
BRANCH  14  22
HETATM   22  O3  UNL     1      22.701   4.035  52.490  1.00  0.00    -0.232 OA
BRANCH  22  23
HETATM   23  O4  UNL     1      22.551   5.342  52.649  1.00  0.00    -0.250 OA
HETATM   24  H20 UNL     1      22.676   5.515  53.635  1.00  0.00     0.253 HD
ENDBRANCH  22  23
ENDBRANCH  14  22
TORSDOF 5
ENDMDL
MODEL 3
REMARK VINA RESULT:      -6.8     10.405     12.809
REMARK  5 active torsions:
REMARK  status: ('A' for Active; 'I' for Inactive)
REMARK    1  A    between atoms: C2_2  and  C3_3 
REMARK    2  A    between atoms: C3_3  and  C4_4 
REMARK    3  A    between atoms: C6_6  and  N1_7 
REMARK    4  A    between atoms: C15_18  and  O3_19 
REMARK    5  A    between atoms: O3_19  and  O4_20 
ROOT
HETATM    1  C4  UNL     1      31.194   8.499  47.833  1.00  0.00     0.017 C 
HETATM    2  C5  UNL     1      32.402   9.249  47.381  1.00  0.00    -0.001 C 
HETATM    3  C6  UNL     1      33.698   9.221  47.118  1.00  0.00     0.006 C 
HETATM    4  C7  UNL     1      34.241   7.804  47.151  1.00  0.00     0.260 C 
HETATM    5  O1  UNL     1      35.173   7.673  48.097  1.00  0.00    -0.235 OA
HETATM    6  O2  UNL     1      35.589   6.541  48.382  1.00  0.00    -0.236 OA
HETATM    7  C8  UNL     1      34.837   5.622  48.959  1.00  0.00     0.249 C 
HETATM    8  C9  UNL     1      33.693   5.059  48.260  1.00  0.00    -0.023 A 
HETATM    9  C10 UNL     1      34.198   4.114  47.347  1.00  0.00     0.010 A 
HETATM   10  C11 UNL     1      33.455   3.290  46.493  1.00  0.00     0.001 A 
HETATM   11  C12 UNL     1      32.086   3.365  46.501  1.00  0.00     0.001 A 
HETATM   12  C13 UNL     1      31.552   4.299  47.401  1.00  0.00     0.010 A 
HETATM   13  C14 UNL     1      32.287   5.107  48.235  1.00  0.00    -0.017 A 
HETATM   14  C15 UNL     1      31.596   6.114  49.091  1.00  0.00     0.108 C 
HETATM   15  C16 UNL     1      31.504   7.166  48.308  1.00  0.00     0.126 C 
ENDROOT
BRANCH   1  16
HETATM   16  C3  UNL     1      30.329   8.298  46.567  1.00  0.00     0.009 C 
BRANCH  16  17
HETATM   17  C2  UNL     1      29.178   7.375  46.807  1.00  0.00    -0.004 C 
HETATM   18  C1  UNL     1      27.895   8.199  46.791  1.00  0.00     0.005 C 
ENDBRANCH  16  17
ENDBRANCH   1  16
BRANCH   3  19
HETATM   19  N1  UNL     1      34.676  10.179  46.673  1.00  0.00    -0.305 NA
HETATM   20  H10 UNL     1      35.710   9.999  46.823  1.00  0.00     0.124 HD
HETATM   21  H11 UNL     1      35.639   9.848  46.897  1.00  0.00     0.124 HD
ENDBRANCH   3  19
BRANCH  14  22
HETATM   22  O3  UNL     1      31.571   5.176  50.074  1.00  0.00    -0.232 OA
BRANCH  22  23
HETATM   23  O4  UNL     1      31.558   5.402  51.380  1.00  0.00    -0.250 OA
HETATM   24  H20 UNL     1      32.358   5.989  51.565  1.00  0.00     0.253 HD
ENDBRANCH  22  23
ENDBRANCH  14  22
TORSDOF 5
ENDMDL
MODEL 4
REMARK VINA RESULT:      -6.8      2.758      4.469
REMARK  5 active torsions:
REMARK  status: ('A' for Active; 'I' for Inactive)
REMARK    1  A    between atoms: C2_2  and  C3_3 
REMARK    2  A    between atoms: C3_3  and  C4_4 
REMARK    3  A    between atoms: C6_6  and  N1_7 
REMARK    4  A    between atoms: C15_18  and  O3_19 
REMARK    5  A    between atoms: O3_19  and  O4_20 
ROOT
HETATM    1  C4  UNL     1      24.642   3.011  50.193  1.00  0.00     0.017 C 
HETATM    2  C5  UNL     1      24.551   4.327  50.891  1.00  0.00    -0.001 C 
HETATM    3  C6  UNL     1      23.879   5.101  51.727  1.00  0.00     0.006 C 
HETATM    4  C7  UNL     1      22.760   4.339  52.412  1.00  0.00     0.260 C 
HETATM    5  O1  UNL     1      21.572   4.871  52.116  1.00  0.00    -0.235 OA
HETATM    6  O2  UNL     1      20.541   4.265  52.443  1.00  0.00    -0.236 OA
HETATM    7  C8  UNL     1      20.187   3.110  51.911  1.00  0.00     0.249 C 
HETATM    8  C9  UNL     1      20.992   1.919  52.128  1.00  0.00    -0.023 A 
HETATM    9  C10 UNL     1      20.688   1.451  53.421  1.00  0.00     0.010 A 
HETATM   10  C11 UNL     1      21.192   0.299  54.037  1.00  0.00     0.001 A 
HETATM   11  C12 UNL     1      22.079  -0.498  53.361  1.00  0.00     0.001 A 
HETATM   12  C13 UNL     1      22.403  -0.057  52.070  1.00  0.00     0.010 A 
HETATM   13  C14 UNL     1      21.907   1.075  51.471  1.00  0.00    -0.017 A 
HETATM   14  C15 UNL     1      22.392   1.473  50.118  1.00  0.00     0.108 C 
HETATM   15  C16 UNL     1      23.461   2.192  50.377  1.00  0.00     0.126 C 
ENDROOT
BRANCH   1  16
HETATM   16  C3  UNL     1      25.791   2.246  50.889  1.00  0.00     0.009 C 
BRANCH  16  17
HETATM   17  C2  UNL     1      25.427   1.808  52.270  1.00  0.00    -0.004 C 
HETATM   18  C1  UNL     1      26.033   0.429  52.508  1.00  0.00     0.005 C 
ENDBRANCH  16  17
ENDBRANCH   1  16
BRANCH   3  19
HETATM   19  N1  UNL     1      24.040   6.435  52.243  1.00  0.00    -0.305 NA
HETATM   20  H10 UNL     1      23.193   7.049  52.416  1.00  0.00     0.124 HD
HETATM   21  H11 UNL     1      23.113   6.898  52.353  1.00  0.00     0.124 HD
ENDBRANCH   3  19
BRANCH  14  22
HETATM   22  O3  UNL     1      21.344   0.779  49.601  1.00  0.00    -0.232 OA
BRANCH  22  23
HETATM   23  O4  UNL     1      20.445   1.234  48.741  1.00  0.00    -0.250 OA
HETATM   24  H20 UNL     1      19.549   1.120  49.193  1.00  0.00     0.253 HD
ENDBRANCH  22  23
ENDBRANCH  14  22
TORSDOF 5
ENDMDL
MODEL 5
REMARK VINA RESULT:      -6.7      2.485      4.510
REMARK  5 active torsions:
REMARK  status: ('A' for Active; 'I' for Inactive)
REMARK    1  A    between atoms: C2_2  and  C3_3 
REMARK    2  A    between atoms: C3_3  and  C4_4 
REMARK    3  A    between atoms: C6_6  and  N1_7 
REMARK    4  A    between atoms: C15_18  and  O3_19 
REMARK    5  A    between atoms: O3_19  and  O4_20 
ROOT
HETATM    1  C4  UNL     1      22.757  -0.540  53.243  1.00  0.00     0.017 C 
HETATM    2  C5  UNL     1      24.084  -0.623  53.920  1.00  0.00    -0.001 C 
HETATM    3  C6  UNL     1      25.283  -0.090  54.091  1.00  0.00     0.006 C 
HETATM    4  C7  UNL     1      25.383   1.275  53.436  1.00  0.00     0.260 C 
HETATM    5  O1  UNL     1      26.320   1.279  52.486  1.00  0.00    -0.235 OA
HETATM    6  O2  UNL     1      26.409   2.257  51.729  1.00  0.00    -0.236 OA
HETATM    7  C8  UNL     1      25.476   2.571  50.848  1.00  0.00     0.249 C 
HETATM    8  C9  UNL     1      24.157   2.993  51.290  1.00  0.00    -0.023 A 
HETATM    9  C10 UNL     1      24.272   4.337  51.692  1.00  0.00     0.010 A 
HETATM   10  C11 UNL     1      23.240   5.170  52.145  1.00  0.00     0.001 A 
HETATM   11  C12 UNL     1      21.962   4.681  52.227  1.00  0.00     0.001 A 
HETATM   12  C13 UNL     1      21.816   3.343  51.834  1.00  0.00     0.010 A 
HETATM   13  C14 UNL     1      22.831   2.530  51.392  1.00  0.00    -0.017 A 
HETATM   14  C15 UNL     1      22.553   1.100  51.075  1.00  0.00     0.108 C 
HETATM   15  C16 UNL     1      22.702   0.497  52.233  1.00  0.00     0.126 C 
ENDROOT
BRANCH   1  16
HETATM   16  C3  UNL     1      21.755  -0.107  54.339  1.00  0.00     0.009 C 
BRANCH  16  17
HETATM   17  C2  UNL     1      20.481   0.422  53.765  1.00  0.00    -0.004 C 
HETATM   18  C1  UNL     1      19.551  -0.757  53.502  1.00  0.00     0.005 C 
ENDBRANCH  16  17
ENDBRANCH   1  16
BRANCH   3  19
HETATM   19  N1  UNL     1      26.453  -0.425  54.859  1.00  0.00    -0.305 NA
HETATM   20  H10 UNL     1      27.302  -0.849  54.385  1.00  0.00     0.124 HD
HETATM   21  H11 UNL     1      27.191  -0.829  54.243  1.00  0.00     0.124 HD
ENDBRANCH   3  19
BRANCH  14  22
HETATM   22  O3  UNL     1      22.345   1.485  49.788  1.00  0.00    -0.232 OA
BRANCH  22  23
HETATM   23  O4  UNL     1      21.469   0.965  48.941  1.00  0.00    -0.250 OA
HETATM   24  H20 UNL     1      22.012   0.605  48.170  1.00  0.00     0.253 HD
ENDBRANCH  22  23
ENDBRANCH  14  22
TORSDOF 5
ENDMDL
MODEL 6
REMARK VINA RESULT:      -6.6      2.917      4.425
REMARK  5 active torsions:
REMARK  status: ('A' for Active; 'I' for Inactive)
REMARK    1  A    between atoms: C2_2  and  C3_3 
REMARK    2  A    between atoms: C3_3  and  C4_4 
REMARK    3  A    between atoms: C6_6  and  N1_7 
REMARK    4  A    between atoms: C15_18  and  O3_19 
REMARK    5  A    between atoms: O3_19  and  O4_20 
ROOT
HETATM    1  C4  UNL     1      24.193   1.858  51.642  1.00  0.00     0.017 C 
HETATM    2  C5  UNL     1      24.218   3.150  52.389  1.00  0.00    -0.001 C 
HETATM    3  C6  UNL     1      23.571   4.252  52.733  1.00  0.00     0.006 C 
HETATM    4  C7  UNL     1      22.110   4.188  52.326  1.00  0.00     0.260 C 
HETATM    5  O1  UNL     1      21.815   5.159  51.459  1.00  0.00    -0.235 OA
HETATM    6  O2  UNL     1      20.716   5.143  50.886  1.00  0.00    -0.236 OA
HETATM    7  C8  UNL     1      20.377   4.219  50.006  1.00  0.00     0.249 C 
HETATM    8  C9  UNL     1      20.217   2.833  50.417  1.00  0.00    -0.023 A 
HETATM    9  C10 UNL     1      18.962   2.736  51.047  1.00  0.00     0.010 A 
HETATM   10  C11 UNL     1      18.366   1.577  51.559  1.00  0.00     0.001 A 
HETATM   11  C12 UNL     1      19.025   0.379  51.466  1.00  0.00     0.001 A 
HETATM   12  C13 UNL     1      20.281   0.443  50.843  1.00  0.00     0.010 A 
HETATM   13  C14 UNL     1      20.862   1.584  50.344  1.00  0.00    -0.017 A 
HETATM   14  C15 UNL     1      22.237   1.527  49.772  1.00  0.00     0.108 C 
HETATM   15  C16 UNL     1      23.010   1.705  50.820  1.00  0.00     0.126 C 
ENDROOT
BRANCH   1  16
HETATM   16  C3  UNL     1      24.096   0.754  52.721  1.00  0.00     0.009 C 
BRANCH  16  17
HETATM   17  C2  UNL     1      22.749   0.707  53.366  1.00  0.00    -0.004 C 
HETATM   18  C1  UNL     1      22.413  -0.751  53.661  1.00  0.00     0.005 C 
ENDBRANCH  16  17
ENDBRANCH   1  16
BRANCH   3  19
HETATM   19  N1  UNL     1      23.879   5.420  53.515  1.00  0.00    -0.305 NA
HETATM   20  H10 UNL     1      23.484   5.529  54.494  1.00  0.00     0.124 HD
HETATM   21  H11 UNL     1      23.413   5.368  54.446  1.00  0.00     0.124 HD
ENDBRANCH   3  19
BRANCH  14  22
HETATM   22  O3  UNL     1      21.662   1.328  48.557  1.00  0.00    -0.232 OA
BRANCH  22  23
HETATM   23  O4  UNL     1      22.282   1.298  47.386  1.00  0.00    -0.250 OA
HETATM   24  H20 UNL     1      23.105   0.732  47.526  1.00  0.00     0.253 HD
ENDBRANCH  22  23
ENDBRANCH  14  22
TORSDOF 5
ENDMDL
MODEL 7
REMARK VINA RESULT:      -6.5     10.636     12.672
REMARK  5 active torsions:
REMARK  status: ('A' for Active; 'I' for Inactive)
REMARK    1  A    between atoms: C2_2  and  C3_3 
REMARK    2  A    between atoms: C3_3  and  C4_4 
REMARK    3  A    between atoms: C6_6  and  N1_7 
REMARK    4  A    between atoms: C15_18  and  O3_19 
REMARK    5  A    between atoms: O3_19  and  O4_20 
ROOT
HETATM    1  C4  UNL     1      34.818   3.724  46.253  1.00  0.00     0.017 C 
HETATM    2  C5  UNL     1      33.516   2.994  46.220  1.00  0.00    -0.001 C 
HETATM    3  C6  UNL     1      32.228   2.997  46.522  1.00  0.00     0.006 C 
HETATM    4  C7  UNL     1      31.776   4.360  47.012  1.00  0.00     0.260 C 
HETATM    5  O1  UNL     1      31.323   4.288  48.265  1.00  0.00    -0.235 OA
HETATM    6  O2  UNL     1      31.084   5.336  48.882  1.00  0.00    -0.236 OA
HETATM    7  C8  UNL     1      32.026   6.188  49.244  1.00  0.00     0.249 C 
HETATM    8  C9  UNL     1      32.788   6.916  48.241  1.00  0.00    -0.023 A 
HETATM    9  C10 UNL     1      31.968   7.967  47.790  1.00  0.00     0.010 A 
HETATM   10  C11 UNL     1      32.307   8.956  46.857  1.00  0.00     0.001 A 
HETATM   11  C12 UNL     1      33.554   8.951  46.289  1.00  0.00     0.001 A 
HETATM   12  C13 UNL     1      34.395   7.913  46.719  1.00  0.00     0.010 A 
HETATM   13  C14 UNL     1      34.056   6.945  47.632  1.00  0.00    -0.017 A 
HETATM   14  C15 UNL     1      35.020   5.851  47.946  1.00  0.00     0.108 C 
HETATM   15  C16 UNL     1      34.759   4.945  47.031  1.00  0.00     0.126 C 
ENDROOT
BRANCH   1  16
HETATM   16  C3  UNL     1      35.085   4.170  44.797  1.00  0.00     0.009 C 
BRANCH  16  17
HETATM   17  C2  UNL     1      34.051   5.127  44.298  1.00  0.00    -0.004 C 
HETATM   18  C1  UNL     1      34.723   6.087  43.322  1.00  0.00     0.005 C 
ENDBRANCH  16  17
ENDBRANCH   1  16
BRANCH   3  19
HETATM   19  N1  UNL     1      31.136   2.073  46.365  1.00  0.00    -0.305 NA
HETATM   20  H10 UNL     1      30.274   2.153  46.977  1.00  0.00     0.124 HD
HETATM   21  H11 UNL     1      30.373   2.292  47.041  1.00  0.00     0.124 HD
ENDBRANCH   3  19
BRANCH  14  22
HETATM   22  O3  UNL     1      35.468   6.618  48.974  1.00  0.00    -0.232 OA
BRANCH  22  23
HETATM   23  O4  UNL     1      36.720   6.994  49.190  1.00  0.00    -0.250 OA
HETATM   24  H20 UNL     1      36.837   6.999  50.193  1.00  0.00     0.253 HD
ENDBRANCH  22  23
ENDBRANCH  14  22
TORSDOF 5
ENDMDL
MODEL 8
REMARK VINA RESULT:      -6.5      8.755     10.349
REMARK  5 active torsions:
REMARK  status: ('A' for Active; 'I' for Inactive)
REMARK    1  A    between atoms: C2_2  and  C3_3 
REMARK    2  A    between atoms: C3_3  and  C4_4 
REMARK    3  A    between atoms: C6_6  and  N1_7 
REMARK    4  A    between atoms: C15_18  and  O3_19 
REMARK    5  A    between atoms: O3_19  and  O4_20 
ROOT
HETATM    1  C4  UNL     1      31.794   8.314  49.347  1.00  0.00     0.017 C 
HETATM    2  C5  UNL     1      32.029   6.866  49.074  1.00  0.00    -0.001 C 
HETATM    3  C6  UNL     1      31.537   5.721  48.628  1.00  0.00     0.006 C 
HETATM    4  C7  UNL     1      30.179   5.915  47.980  1.00  0.00     0.260 C 
HETATM    5  O1  UNL     1      29.239   5.225  48.629  1.00  0.00    -0.235 OA
HETATM    6  O2  UNL     1      28.047   5.413  48.344  1.00  0.00    -0.236 OA
HETATM    7  C8  UNL     1      27.420   6.550  48.590  1.00  0.00     0.249 C 
HETATM    8  C9  UNL     1      27.809   7.770  47.902  1.00  0.00    -0.023 A 
HETATM    9  C10 UNL     1      27.251   7.706  46.611  1.00  0.00     0.010 A 
HETATM   10  C11 UNL     1      27.325   8.687  45.614  1.00  0.00     0.001 A 
HETATM   11  C12 UNL     1      27.998   9.855  45.862  1.00  0.00     0.001 A 
HETATM   12  C13 UNL     1      28.567   9.949  47.141  1.00  0.00     0.010 A 
HETATM   13  C14 UNL     1      28.493   8.982  48.114  1.00  0.00    -0.017 A 
HETATM   14  C15 UNL     1      29.208   9.175  49.408  1.00  0.00     0.108 C 
HETATM   15  C16 UNL     1      30.411   8.704  49.165  1.00  0.00     0.126 C 
ENDROOT
BRANCH   1  16
HETATM   16  C3  UNL     1      32.588   9.079  48.263  1.00  0.00     0.009 C 
BRANCH  16  17
HETATM   17  C2  UNL     1      32.022   8.874  46.895  1.00  0.00    -0.004 C 
HETATM   18  C1  UNL     1      32.133  10.190  46.132  1.00  0.00     0.005 C 
ENDBRANCH  16  17
ENDBRANCH   1  16
BRANCH   3  19
HETATM   19  N1  UNL     1      32.035   4.378  48.485  1.00  0.00    -0.305 NA
HETATM   20  H10 UNL     1      31.683   3.757  47.700  1.00  0.00     0.124 HD
HETATM   21  H11 UNL     1      31.588   3.909  47.668  1.00  0.00     0.124 HD
ENDBRANCH   3  19
BRANCH  14  22
HETATM   22  O3  UNL     1      28.059   9.710  49.898  1.00  0.00    -0.232 OA
BRANCH  22  23
HETATM   23  O4  UNL     1      27.635   9.657  51.152  1.00  0.00    -0.250 OA
HETATM   24  H20 UNL     1      28.222   8.976  51.612  1.00  0.00     0.253 HD
ENDBRANCH  22  23
ENDBRANCH  14  22
TORSDOF 5
ENDMDL
MODEL 9
REMARK VINA RESULT:      -6.3      2.300      4.709
REMARK  5 active torsions:
REMARK  status: ('A' for Active; 'I' for Inactive)
REMARK    1  A    between atoms: C2_2  and  C3_3 
REMARK    2  A    between atoms: C3_3  and  C4_4 
REMARK    3  A    between atoms: C6_6  and  N1_7 
REMARK    4  A    between atoms: C15_18  and  O3_19 
REMARK    5  A    between atoms: O3_19  and  O4_20 
ROOT
HETATM    1  C4  UNL     1      19.837   0.247  51.493  1.00  0.00     0.017 C 
HETATM    2  C5  UNL     1      20.148  -0.516  52.737  1.00  0.00    -0.001 C 
HETATM    3  C6  UNL     1      20.999  -0.737  53.725  1.00  0.00     0.006 C 
HETATM    4  C7  UNL     1      22.121   0.285  53.730  1.00  0.00     0.260 C 
HETATM    5  O1  UNL     1      23.304  -0.307  53.554  1.00  0.00    -0.235 OA
HETATM    6  O2  UNL     1      24.306   0.394  53.351  1.00  0.00    -0.236 OA
HETATM    7  C8  UNL     1      24.472   1.111  52.254  1.00  0.00     0.249 C 
HETATM    8  C9  UNL     1      23.591   2.232  51.966  1.00  0.00    -0.023 A 
HETATM    9  C10 UNL     1      24.021   3.305  52.769  1.00  0.00     0.010 A 
HETATM   10  C11 UNL     1      23.496   4.603  52.788  1.00  0.00     0.001 A 
HETATM   11  C12 UNL     1      22.452   4.924  51.959  1.00  0.00     0.001 A 
HETATM   12  C13 UNL     1      22.000   3.873  51.146  1.00  0.00     0.010 A 
HETATM   13  C14 UNL     1      22.518   2.601  51.134  1.00  0.00    -0.017 A 
HETATM   14  C15 UNL     1      21.895   1.555  50.274  1.00  0.00     0.108 C 
HETATM   15  C16 UNL     1      20.946   1.059  51.036  1.00  0.00     0.126 C 
ENDROOT
BRANCH   1  16
HETATM   16  C3  UNL     1      18.723   1.247  51.883  1.00  0.00     0.009 C 
BRANCH  16  17
HETATM   17  C2  UNL     1      18.390   2.188  50.771  1.00  0.00    -0.004 C 
HETATM   18  C1  UNL     1      18.253   3.589  51.358  1.00  0.00     0.005 C 
ENDBRANCH  16  17
ENDBRANCH   1  16
BRANCH   3  19
HETATM   19  N1  UNL     1      21.040  -1.613  54.866  1.00  0.00    -0.305 NA
HETATM   20  H10 UNL     1      21.473  -2.578  54.786  1.00  0.00     0.124 HD
HETATM   21  H11 UNL     1      21.496  -2.516  54.616  1.00  0.00     0.124 HD
ENDBRANCH   3  19
BRANCH  14  22
HETATM   22  O3  UNL     1      22.791   1.894  49.310  1.00  0.00    -0.232 OA
BRANCH  22  23
HETATM   23  O4  UNL     1      22.528   2.117  48.031  1.00  0.00    -0.250 OA
HETATM   24  H20 UNL     1      21.551   1.894  47.908  1.00  0.00     0.253 HD
ENDBRANCH  22  23
ENDBRANCH  14  22
TORSDOF 5
ENDMDL
