MODEL 1
REMARK VINA RESULT:      -8.9      0.000      0.000
REMARK  5 active torsions:
REMARK  status: ('A' for Active; 'I' for Inactive)
REMARK    1  A    between atoms: O1_2  and  C2_3 
REMARK    2  A    between atoms: C5_6  and  C6_7 
REMARK    3  A    between atoms: N2_9  and  C7_10 
REMARK    4  A    between atoms: C8_12  and  O2_13 
REMARK    5  A    between atoms: O2_13  and  C9_14 
ROOT
HETATM    1  C6  UNL     1      25.370   4.304  49.498  1.00  0.00     0.066 C 
HETATM    2  N1  UNL     1      25.552   3.247  50.218  1.00  0.00    -0.174 NA
HETATM    3  N2  UNL     1      24.370   2.577  50.456  1.00  0.00    -0.246 N 
HETATM    4  C16 UNL     1      23.464   3.010  49.427  1.00  0.00     0.159 C 
HETATM    5  C17 UNL     1      23.924   4.433  49.172  1.00  0.00     0.084 C 
ENDROOT
BRANCH   3   6
HETATM    6  C7  UNL     1      23.979   1.643  51.448  1.00  0.00     0.191 A 
HETATM    7  N3  UNL     1      24.520   1.043  52.330  1.00  0.00    -0.198 NA
HETATM    8  C8  UNL     1      23.869   0.194  53.140  1.00  0.00     0.178 A 
HETATM    9  C15 UNL     1      22.422   0.008  52.914  1.00  0.00     0.111 A 
HETATM   10  S1  UNL     1      22.181   1.162  51.463  1.00  0.00    -0.058 SA
BRANCH   8  11
HETATM   11  O2  UNL     1      24.610  -0.442  54.127  1.00  0.00    -0.291 OA
BRANCH  11  12
HETATM   12  C9  UNL     1      25.988  -0.502  53.991  1.00  0.00     0.078 A 
HETATM   13  C10 UNL     1      26.737   0.265  54.890  1.00  0.00     0.040 A 
HETATM   14  C11 UNL     1      28.126   0.216  54.766  1.00  0.00     0.045 A 
HETATM   15  C12 UNL     1      28.758  -0.547  53.807  1.00  0.00     0.116 A 
HETATM   16  F1  UNL     1      30.104  -0.519  53.780  1.00  0.00    -0.206 F 
HETATM   17  C13 UNL     1      27.968  -1.283  52.947  1.00  0.00     0.045 A 
HETATM   18  C14 UNL     1      26.586  -1.288  53.005  1.00  0.00     0.040 A 
ENDBRANCH  11  12
ENDBRANCH   8  11
ENDBRANCH   3   6
BRANCH   1  19
HETATM   19  C5  UNL     1      26.420   5.224  49.076  1.00  0.00    -0.010 A 
HETATM   20  C4  UNL     1      27.651   4.760  48.688  1.00  0.00     0.016 A 
HETATM   21  C3  UNL     1      28.676   5.606  48.278  1.00  0.00     0.037 A 
HETATM   22  C2  UNL     1      28.426   6.981  48.267  1.00  0.00     0.068 A 
HETATM   23  C19 UNL     1      27.188   7.449  48.657  1.00  0.00     0.037 A 
HETATM   24  C18 UNL     1      26.190   6.584  49.058  1.00  0.00     0.016 A 
BRANCH  22  25
HETATM   25  O1  UNL     1      29.510   7.736  47.844  1.00  0.00    -0.356 OA
HETATM   26  C1  UNL     1      30.621   7.845  48.709  1.00  0.00     0.210 C 
ENDBRANCH  22  25
ENDBRANCH   1  19
TORSDOF 5
ENDMDL
MODEL 2
REMARK VINA RESULT:      -8.9      0.467      1.048
REMARK  5 active torsions:
REMARK  status: ('A' for Active; 'I' for Inactive)
REMARK    1  A    between atoms: O1_2  and  C2_3 
REMARK    2  A    between atoms: C5_6  and  C6_7 
REMARK    3  A    between atoms: N2_9  and  C7_10 
REMARK    4  A    between atoms: C8_12  and  O2_13 
REMARK    5  A    between atoms: O2_13  and  C9_14 
ROOT
HETATM    1  C6  UNL     1      25.623   4.522  49.400  1.00  0.00     0.066 C 
HETATM    2  N1  UNL     1      25.780   3.489  50.159  1.00  0.00    -0.174 NA
HETATM    3  N2  UNL     1      24.584   2.852  50.414  1.00  0.00    -0.246 N 
HETATM    4  C16 UNL     1      23.692   3.264  49.364  1.00  0.00     0.159 C 
HETATM    5  C17 UNL     1      24.183   4.667  49.060  1.00  0.00     0.084 C 
ENDROOT
BRANCH   3   6
HETATM    6  C7  UNL     1      24.168   1.962  51.437  1.00  0.00     0.191 A 
HETATM    7  N3  UNL     1      24.651   1.041  52.028  1.00  0.00    -0.198 NA
HETATM    8  C8  UNL     1      23.994   0.363  52.983  1.00  0.00     0.178 A 
HETATM    9  C15 UNL     1      22.618   0.793  53.302  1.00  0.00     0.111 A 
HETATM   10  S1  UNL     1      22.447   2.213  52.098  1.00  0.00    -0.058 SA
BRANCH   8  11
HETATM   11  O2  UNL     1      24.663  -0.688  53.594  1.00  0.00    -0.291 OA
BRANCH  11  12
HETATM   12  C9  UNL     1      26.040  -0.611  53.732  1.00  0.00     0.078 A 
HETATM   13  C10 UNL     1      26.799  -1.384  52.848  1.00  0.00     0.040 A 
HETATM   14  C11 UNL     1      28.187  -1.319  52.973  1.00  0.00     0.045 A 
HETATM   15  C12 UNL     1      28.808  -0.533  53.921  1.00  0.00     0.116 A 
HETATM   16  F1  UNL     1      30.155  -0.546  53.952  1.00  0.00    -0.206 F 
HETATM   17  C13 UNL     1      28.009   0.209  54.767  1.00  0.00     0.045 A 
HETATM   18  C14 UNL     1      26.627   0.198  54.706  1.00  0.00     0.040 A 
ENDBRANCH  11  12
ENDBRANCH   8  11
ENDBRANCH   3   6
BRANCH   1  19
HETATM   19  C5  UNL     1      26.694   5.405  48.951  1.00  0.00    -0.010 A 
HETATM   20  C4  UNL     1      27.913   4.901  48.573  1.00  0.00     0.016 A 
HETATM   21  C3  UNL     1      28.957   5.711  48.139  1.00  0.00     0.037 A 
HETATM   22  C2  UNL     1      28.739   7.091  48.091  1.00  0.00     0.068 A 
HETATM   23  C19 UNL     1      27.514   7.598  48.470  1.00  0.00     0.037 A 
HETATM   24  C18 UNL     1      26.497   6.769  48.896  1.00  0.00     0.016 A 
BRANCH  22  25
HETATM   25  O1  UNL     1      29.840   7.808  47.645  1.00  0.00    -0.356 OA
HETATM   26  C1  UNL     1      30.479   8.677  48.556  1.00  0.00     0.210 C 
ENDBRANCH  22  25
ENDBRANCH   1  19
TORSDOF 5
ENDMDL
MODEL 3
REMARK VINA RESULT:      -8.2      1.422      2.023
REMARK  5 active torsions:
REMARK  status: ('A' for Active; 'I' for Inactive)
REMARK    1  A    between atoms: O1_2  and  C2_3 
REMARK    2  A    between atoms: C5_6  and  C6_7 
REMARK    3  A    between atoms: N2_9  and  C7_10 
REMARK    4  A    between atoms: C8_12  and  O2_13 
REMARK    5  A    between atoms: O2_13  and  C9_14 
ROOT
HETATM    1  C6  UNL     1      26.793   5.359  48.875  1.00  0.00     0.066 C 
HETATM    2  N1  UNL     1      26.743   4.181  49.401  1.00  0.00    -0.174 NA
HETATM    3  N2  UNL     1      25.483   3.881  49.872  1.00  0.00    -0.246 N 
HETATM    4  C16 UNL     1      24.586   4.763  49.175  1.00  0.00     0.159 C 
HETATM    5  C17 UNL     1      25.450   5.993  48.962  1.00  0.00     0.084 C 
ENDROOT
BRANCH   3   6
HETATM    6  C7  UNL     1      25.012   2.943  50.825  1.00  0.00     0.191 A 
HETATM    7  N3  UNL     1      25.425   2.461  51.839  1.00  0.00    -0.198 NA
HETATM    8  C8  UNL     1      24.731   1.564  52.556  1.00  0.00     0.178 A 
HETATM    9  C15 UNL     1      23.399   1.170  52.052  1.00  0.00     0.111 A 
HETATM   10  S1  UNL     1      23.327   2.220  50.507  1.00  0.00    -0.058 SA
BRANCH   8  11
HETATM   11  O2  UNL     1      25.320   1.078  53.715  1.00  0.00    -0.291 OA
BRANCH  11  12
HETATM   12  C9  UNL     1      26.551   0.447  53.622  1.00  0.00     0.078 A 
HETATM   13  C10 UNL     1      27.651   1.153  54.118  1.00  0.00     0.040 A 
HETATM   14  C11 UNL     1      28.899   0.532  54.032  1.00  0.00     0.045 A 
HETATM   15  C12 UNL     1      29.065  -0.723  53.486  1.00  0.00     0.116 A 
HETATM   16  F1  UNL     1      30.314  -1.226  53.454  1.00  0.00    -0.206 F 
HETATM   17  C13 UNL     1      27.942  -1.373  53.012  1.00  0.00     0.045 A 
HETATM   18  C14 UNL     1      26.673  -0.825  53.061  1.00  0.00     0.040 A 
ENDBRANCH  11  12
ENDBRANCH   8  11
ENDBRANCH   3   6
BRANCH   1  19
HETATM   19  C5  UNL     1      27.982   5.969  48.289  1.00  0.00    -0.010 A 
HETATM   20  C4  UNL     1      27.935   7.226  47.743  1.00  0.00     0.016 A 
HETATM   21  C3  UNL     1      29.046   7.840  47.177  1.00  0.00     0.037 A 
HETATM   22  C2  UNL     1      30.253   7.135  47.173  1.00  0.00     0.068 A 
HETATM   23  C19 UNL     1      30.302   5.870  47.722  1.00  0.00     0.037 A 
HETATM   24  C18 UNL     1      29.181   5.288  48.278  1.00  0.00     0.016 A 
BRANCH  22  25
HETATM   25  O1  UNL     1      31.298   7.833  46.587  1.00  0.00    -0.356 OA
HETATM   26  C1  UNL     1      32.039   7.191  45.569  1.00  0.00     0.210 C 
ENDBRANCH  22  25
ENDBRANCH   1  19
TORSDOF 5
ENDMDL
MODEL 4
REMARK VINA RESULT:      -8.1      6.306      8.832
REMARK  5 active torsions:
REMARK  status: ('A' for Active; 'I' for Inactive)
REMARK    1  A    between atoms: O1_2  and  C2_3 
REMARK    2  A    between atoms: C5_6  and  C6_7 
REMARK    3  A    between atoms: N2_9  and  C7_10 
REMARK    4  A    between atoms: C8_12  and  O2_13 
REMARK    5  A    between atoms: O2_13  and  C9_14 
ROOT
HETATM    1  C6  UNL     1      23.839  -0.476  53.984  1.00  0.00     0.066 C 
HETATM    2  N1  UNL     1      22.987   0.128  53.225  1.00  0.00    -0.174 NA
HETATM    3  N2  UNL     1      21.687  -0.178  53.566  1.00  0.00    -0.246 N 
HETATM    4  C16 UNL     1      21.741  -0.650  54.923  1.00  0.00     0.159 C 
HETATM    5  C17 UNL     1      23.108  -1.306  54.978  1.00  0.00     0.084 C 
ENDROOT
BRANCH   3   6
HETATM    6  C7  UNL     1      20.463  -0.100  52.853  1.00  0.00     0.191 A 
HETATM    7  N3  UNL     1      19.313  -0.333  53.085  1.00  0.00    -0.198 NA
HETATM    8  C8  UNL     1      18.337  -0.157  52.181  1.00  0.00     0.178 A 
HETATM    9  C15 UNL     1      18.723   0.350  50.849  1.00  0.00     0.111 A 
HETATM   10  S1  UNL     1      20.569   0.513  51.100  1.00  0.00    -0.058 SA
BRANCH   8  11
HETATM   11  O2  UNL     1      17.041  -0.465  52.571  1.00  0.00    -0.291 OA
BRANCH  11  12
HETATM   12  C9  UNL     1      16.702  -1.794  52.765  1.00  0.00     0.078 A 
HETATM   13  C10 UNL     1      15.507  -2.225  52.179  1.00  0.00     0.040 A 
HETATM   14  C11 UNL     1      15.151  -3.561  52.365  1.00  0.00     0.045 A 
HETATM   15  C12 UNL     1      15.927  -4.440  53.090  1.00  0.00     0.116 A 
HETATM   16  F1  UNL     1      15.486  -5.708  53.205  1.00  0.00    -0.206 F 
HETATM   17  C13 UNL     1      17.096  -3.960  53.645  1.00  0.00     0.045 A 
HETATM   18  C14 UNL     1      17.518  -2.650  53.507  1.00  0.00     0.040 A 
ENDBRANCH  11  12
ENDBRANCH   8  11
ENDBRANCH   3   6
BRANCH   1  19
HETATM   19  C5  UNL     1      25.290  -0.361  53.878  1.00  0.00    -0.010 A 
HETATM   20  C4  UNL     1      25.983  -1.038  52.908  1.00  0.00     0.016 A 
HETATM   21  C3  UNL     1      27.364  -0.952  52.775  1.00  0.00     0.037 A 
HETATM   22  C2  UNL     1      28.059  -0.139  53.675  1.00  0.00     0.068 A 
HETATM   23  C19 UNL     1      27.363   0.543  54.651  1.00  0.00     0.037 A 
HETATM   24  C18 UNL     1      25.991   0.438  54.757  1.00  0.00     0.016 A 
BRANCH  22  25
HETATM   25  O1  UNL     1      29.429  -0.122  53.458  1.00  0.00    -0.356 OA
HETATM   26  C1  UNL     1      30.142  -1.331  53.619  1.00  0.00     0.210 C 
ENDBRANCH  22  25
ENDBRANCH   1  19
TORSDOF 5
ENDMDL
MODEL 5
REMARK VINA RESULT:      -7.9      6.166      9.260
REMARK  5 active torsions:
REMARK  status: ('A' for Active; 'I' for Inactive)
REMARK    1  A    between atoms: O1_2  and  C2_3 
REMARK    2  A    between atoms: C5_6  and  C6_7 
REMARK    3  A    between atoms: N2_9  and  C7_10 
REMARK    4  A    between atoms: C8_12  and  O2_13 
REMARK    5  A    between atoms: O2_13  and  C9_14 
ROOT
HETATM    1  C6  UNL     1      22.630  -0.244  53.299  1.00  0.00     0.066 C 
HETATM    2  N1  UNL     1      21.506   0.317  52.999  1.00  0.00    -0.174 NA
HETATM    3  N2  UNL     1      20.429  -0.475  53.339  1.00  0.00    -0.246 N 
HETATM    4  C16 UNL     1      20.919  -1.392  54.333  1.00  0.00     0.159 C 
HETATM    5  C17 UNL     1      22.367  -1.571  53.917  1.00  0.00     0.084 C 
ENDROOT
BRANCH   3   6
HETATM    6  C7  UNL     1      19.082  -0.504  52.898  1.00  0.00     0.191 A 
HETATM    7  N3  UNL     1      18.369   0.208  52.252  1.00  0.00    -0.198 NA
HETATM    8  C8  UNL     1      17.088  -0.091  51.987  1.00  0.00     0.178 A 
HETATM    9  C15 UNL     1      16.556  -1.359  52.526  1.00  0.00     0.111 A 
HETATM   10  S1  UNL     1      18.083  -1.990  53.402  1.00  0.00    -0.058 SA
BRANCH   8  11
HETATM   11  O2  UNL     1      16.364   0.817  51.227  1.00  0.00    -0.291 OA
BRANCH  11  12
HETATM   12  C9  UNL     1      15.741   1.876  51.869  1.00  0.00     0.078 A 
HETATM   13  C10 UNL     1      14.534   1.589  52.515  1.00  0.00     0.040 A 
HETATM   14  C11 UNL     1      13.893   2.644  53.167  1.00  0.00     0.045 A 
HETATM   15  C12 UNL     1      14.407   3.923  53.186  1.00  0.00     0.116 A 
HETATM   16  F1  UNL     1      13.703   4.864  53.845  1.00  0.00    -0.206 F 
HETATM   17  C13 UNL     1      15.601   4.148  52.531  1.00  0.00     0.045 A 
HETATM   18  C14 UNL     1      16.296   3.156  51.863  1.00  0.00     0.040 A 
ENDBRANCH  11  12
ENDBRANCH   8  11
ENDBRANCH   3   6
BRANCH   1  19
HETATM   19  C5  UNL     1      23.948   0.337  53.066  1.00  0.00    -0.010 A 
HETATM   20  C4  UNL     1      24.099   1.684  52.858  1.00  0.00     0.016 A 
HETATM   21  C3  UNL     1      25.338   2.274  52.634  1.00  0.00     0.037 A 
HETATM   22  C2  UNL     1      26.465   1.447  52.622  1.00  0.00     0.068 A 
HETATM   23  C19 UNL     1      26.314   0.092  52.831  1.00  0.00     0.037 A 
HETATM   24  C18 UNL     1      25.070  -0.464  53.052  1.00  0.00     0.016 A 
BRANCH  22  25
HETATM   25  O1  UNL     1      27.649   2.131  52.390  1.00  0.00    -0.356 OA
HETATM   26  C1  UNL     1      28.506   2.367  53.488  1.00  0.00     0.210 C 
ENDBRANCH  22  25
ENDBRANCH   1  19
TORSDOF 5
ENDMDL
MODEL 6
REMARK VINA RESULT:      -7.8      2.785      3.786
REMARK  5 active torsions:
REMARK  status: ('A' for Active; 'I' for Inactive)
REMARK    1  A    between atoms: O1_2  and  C2_3 
REMARK    2  A    between atoms: C5_6  and  C6_7 
REMARK    3  A    between atoms: N2_9  and  C7_10 
REMARK    4  A    between atoms: C8_12  and  O2_13 
REMARK    5  A    between atoms: O2_13  and  C9_14 
ROOT
HETATM    1  C6  UNL     1      26.721   5.988  48.574  1.00  0.00     0.066 C 
HETATM    2  N1  UNL     1      26.314   4.871  49.079  1.00  0.00    -0.174 NA
HETATM    3  N2  UNL     1      24.962   4.891  49.348  1.00  0.00    -0.246 N 
HETATM    4  C16 UNL     1      24.417   5.939  48.527  1.00  0.00     0.159 C 
HETATM    5  C17 UNL     1      25.570   6.922  48.458  1.00  0.00     0.084 C 
ENDROOT
BRANCH   3   6
HETATM    6  C7  UNL     1      24.142   4.120  50.211  1.00  0.00     0.191 A 
HETATM    7  N3  UNL     1      23.786   2.980  50.273  1.00  0.00    -0.198 NA
HETATM    8  C8  UNL     1      22.979   2.519  51.241  1.00  0.00     0.178 A 
HETATM    9  C15 UNL     1      22.524   3.481  52.265  1.00  0.00     0.111 A 
HETATM   10  S1  UNL     1      23.381   5.024  51.649  1.00  0.00    -0.058 SA
BRANCH   8  11
HETATM   11  O2  UNL     1      22.636   1.175  51.201  1.00  0.00    -0.291 OA
BRANCH  11  12
HETATM   12  C9  UNL     1      22.690   0.440  52.375  1.00  0.00     0.078 A 
HETATM   13  C10 UNL     1      23.962   0.206  52.906  1.00  0.00     0.040 A 
HETATM   14  C11 UNL     1      24.034  -0.533  54.088  1.00  0.00     0.045 A 
HETATM   15  C12 UNL     1      22.913  -1.023  54.724  1.00  0.00     0.116 A 
HETATM   16  F1  UNL     1      23.100  -1.724  55.859  1.00  0.00    -0.206 F 
HETATM   17  C13 UNL     1      21.683  -0.762  54.154  1.00  0.00     0.045 A 
HETATM   18  C14 UNL     1      21.529  -0.038  52.985  1.00  0.00     0.040 A 
ENDBRANCH  11  12
ENDBRANCH   8  11
ENDBRANCH   3   6
BRANCH   1  19
HETATM   19  C5  UNL     1      28.096   6.281  48.183  1.00  0.00    -0.010 A 
HETATM   20  C4  UNL     1      28.454   7.531  47.748  1.00  0.00     0.016 A 
HETATM   21  C3  UNL     1      29.753   7.849  47.368  1.00  0.00     0.037 A 
HETATM   22  C2  UNL     1      30.721   6.843  47.438  1.00  0.00     0.068 A 
HETATM   23  C19 UNL     1      30.362   5.585  47.875  1.00  0.00     0.037 A 
HETATM   24  C18 UNL     1      29.064   5.300  48.247  1.00  0.00     0.016 A 
BRANCH  22  25
HETATM   25  O1  UNL     1      31.982   7.261  47.037  1.00  0.00    -0.356 OA
HETATM   26  C1  UNL     1      32.731   8.061  47.929  1.00  0.00     0.210 C 
ENDBRANCH  22  25
ENDBRANCH   1  19
TORSDOF 5
ENDMDL
MODEL 7
REMARK VINA RESULT:      -7.7      1.974      2.718
REMARK  5 active torsions:
REMARK  status: ('A' for Active; 'I' for Inactive)
REMARK    1  A    between atoms: O1_2  and  C2_3 
REMARK    2  A    between atoms: C5_6  and  C6_7 
REMARK    3  A    between atoms: N2_9  and  C7_10 
REMARK    4  A    between atoms: C8_12  and  O2_13 
REMARK    5  A    between atoms: O2_13  and  C9_14 
ROOT
HETATM    1  C6  UNL     1      25.662   4.962  49.367  1.00  0.00     0.066 C 
HETATM    2  N1  UNL     1      24.931   4.599  50.367  1.00  0.00    -0.174 NA
HETATM    3  N2  UNL     1      25.392   3.436  50.946  1.00  0.00    -0.246 N 
HETATM    4  C16 UNL     1      26.770   3.324  50.552  1.00  0.00     0.159 C 
HETATM    5  C17 UNL     1      26.766   3.982  49.184  1.00  0.00     0.084 C 
ENDROOT
BRANCH   3   6
HETATM    6  C7  UNL     1      24.772   2.461  51.769  1.00  0.00     0.191 A 
HETATM    7  N3  UNL     1      25.129   1.507  52.395  1.00  0.00    -0.198 NA
HETATM    8  C8  UNL     1      24.285   0.744  53.107  1.00  0.00     0.178 A 
HETATM    9  C15 UNL     1      22.857   1.119  53.102  1.00  0.00     0.111 A 
HETATM   10  S1  UNL     1      22.932   2.624  51.995  1.00  0.00    -0.058 SA
BRANCH   8  11
HETATM   11  O2  UNL     1      24.823  -0.337  53.791  1.00  0.00    -0.291 OA
BRANCH  11  12
HETATM   12  C9  UNL     1      26.199  -0.506  53.794  1.00  0.00     0.078 A 
HETATM   13  C10 UNL     1      26.912   0.210  54.761  1.00  0.00     0.040 A 
HETATM   14  C11 UNL     1      28.299   0.051  54.778  1.00  0.00     0.045 A 
HETATM   15  C12 UNL     1      28.961  -0.769  53.890  1.00  0.00     0.116 A 
HETATM   16  F1  UNL     1      30.301  -0.846  53.997  1.00  0.00    -0.206 F 
HETATM   17  C13 UNL     1      28.205  -1.451  52.957  1.00  0.00     0.045 A 
HETATM   18  C14 UNL     1      26.828  -1.347  52.875  1.00  0.00     0.040 A 
ENDBRANCH  11  12
ENDBRANCH   8  11
ENDBRANCH   3   6
BRANCH   1  19
HETATM   19  C5  UNL     1      25.437   6.148  48.548  1.00  0.00    -0.010 A 
HETATM   20  C4  UNL     1      24.172   6.508  48.159  1.00  0.00     0.016 A 
HETATM   21  C3  UNL     1      23.918   7.631  47.379  1.00  0.00     0.037 A 
HETATM   22  C2  UNL     1      25.007   8.414  46.984  1.00  0.00     0.068 A 
HETATM   23  C19 UNL     1      26.279   8.053  47.375  1.00  0.00     0.037 A 
HETATM   24  C18 UNL     1      26.500   6.933  48.150  1.00  0.00     0.016 A 
BRANCH  22  25
HETATM   25  O1  UNL     1      24.647   9.508  46.211  1.00  0.00    -0.356 OA
HETATM   26  C1  UNL     1      23.277   9.697  45.923  1.00  0.00     0.210 C 
ENDBRANCH  22  25
ENDBRANCH   1  19
TORSDOF 5
ENDMDL
MODEL 8
REMARK VINA RESULT:      -7.7      3.402      7.961
REMARK  5 active torsions:
REMARK  status: ('A' for Active; 'I' for Inactive)
REMARK    1  A    between atoms: O1_2  and  C2_3 
REMARK    2  A    between atoms: C5_6  and  C6_7 
REMARK    3  A    between atoms: N2_9  and  C7_10 
REMARK    4  A    between atoms: C8_12  and  O2_13 
REMARK    5  A    between atoms: O2_13  and  C9_14 
ROOT
HETATM    1  C6  UNL     1      24.592   1.851  52.304  1.00  0.00     0.066 C 
HETATM    2  N1  UNL     1      24.706   3.137  52.338  1.00  0.00    -0.174 NA
HETATM    3  N2  UNL     1      23.527   3.767  52.002  1.00  0.00    -0.246 N 
HETATM    4  C16 UNL     1      22.490   2.794  52.218  1.00  0.00     0.159 C 
HETATM    5  C17 UNL     1      23.204   1.492  51.907  1.00  0.00     0.084 C 
ENDROOT
BRANCH   3   6
HETATM    6  C7  UNL     1      23.236   5.073  51.533  1.00  0.00     0.191 A 
HETATM    7  N3  UNL     1      23.863   6.063  51.290  1.00  0.00    -0.198 NA
HETATM    8  C8  UNL     1      23.295   7.193  50.842  1.00  0.00     0.178 A 
HETATM    9  C15 UNL     1      21.831   7.192  50.647  1.00  0.00     0.111 A 
HETATM   10  S1  UNL     1      21.447   5.439  51.173  1.00  0.00    -0.058 SA
BRANCH   8  11
HETATM   11  O2  UNL     1      24.131   8.274  50.597  1.00  0.00    -0.291 OA
BRANCH  11  12
HETATM   12  C9  UNL     1      25.132   8.140  49.648  1.00  0.00     0.078 A 
HETATM   13  C10 UNL     1      24.717   7.909  48.333  1.00  0.00     0.040 A 
HETATM   14  C11 UNL     1      25.712   7.771  47.364  1.00  0.00     0.045 A 
HETATM   15  C12 UNL     1      27.055   7.856  47.666  1.00  0.00     0.116 A 
HETATM   16  F1  UNL     1      27.930   7.708  46.652  1.00  0.00    -0.206 F 
HETATM   17  C13 UNL     1      27.406   8.086  48.981  1.00  0.00     0.045 A 
HETATM   18  C14 UNL     1      26.480   8.233  49.998  1.00  0.00     0.040 A 
ENDBRANCH  11  12
ENDBRANCH   8  11
ENDBRANCH   3   6
BRANCH   1  19
HETATM   19  C5  UNL     1      25.659   0.904  52.608  1.00  0.00    -0.010 A 
HETATM   20  C4  UNL     1      26.938   1.335  52.852  1.00  0.00     0.016 A 
HETATM   21  C3  UNL     1      27.981   0.463  53.145  1.00  0.00     0.037 A 
HETATM   22  C2  UNL     1      27.698  -0.905  53.189  1.00  0.00     0.068 A 
HETATM   23  C19 UNL     1      26.412  -1.340  52.944  1.00  0.00     0.037 A 
HETATM   24  C18 UNL     1      25.397  -0.450  52.657  1.00  0.00     0.016 A 
BRANCH  22  25
HETATM   25  O1  UNL     1      28.803  -1.687  53.489  1.00  0.00    -0.356 OA
HETATM   26  C1  UNL     1      30.012  -1.033  53.812  1.00  0.00     0.210 C 
ENDBRANCH  22  25
ENDBRANCH   1  19
TORSDOF 5
ENDMDL
MODEL 9
REMARK VINA RESULT:      -7.6      3.068      8.796
REMARK  5 active torsions:
REMARK  status: ('A' for Active; 'I' for Inactive)
REMARK    1  A    between atoms: O1_2  and  C2_3 
REMARK    2  A    between atoms: C5_6  and  C6_7 
REMARK    3  A    between atoms: N2_9  and  C7_10 
REMARK    4  A    between atoms: C8_12  and  O2_13 
REMARK    5  A    between atoms: O2_13  and  C9_14 
ROOT
HETATM    1  C6  UNL     1      25.001   2.149  51.775  1.00  0.00     0.066 C 
HETATM    2  N1  UNL     1      24.505   3.184  51.183  1.00  0.00    -0.174 NA
HETATM    3  N2  UNL     1      25.462   3.877  50.472  1.00  0.00    -0.246 N 
HETATM    4  C16 UNL     1      26.531   2.942  50.245  1.00  0.00     0.159 C 
HETATM    5  C17 UNL     1      26.456   2.064  51.480  1.00  0.00     0.084 C 
ENDROOT
BRANCH   3   6
HETATM    6  C7  UNL     1      25.527   5.211  49.997  1.00  0.00     0.191 A 
HETATM    7  N3  UNL     1      26.154   5.802  49.167  1.00  0.00    -0.198 NA
HETATM    8  C8  UNL     1      25.995   7.114  48.931  1.00  0.00     0.178 A 
HETATM    9  C15 UNL     1      24.996   7.838  49.743  1.00  0.00     0.111 A 
HETATM   10  S1  UNL     1      24.381   6.431  50.809  1.00  0.00    -0.058 SA
BRANCH   8  11
HETATM   11  O2  UNL     1      26.783   7.685  47.941  1.00  0.00    -0.291 OA
BRANCH  11  12
HETATM   12  C9  UNL     1      28.148   7.793  48.156  1.00  0.00     0.078 A 
HETATM   13  C10 UNL     1      28.566   8.824  49.004  1.00  0.00     0.040 A 
HETATM   14  C11 UNL     1      29.937   8.946  49.231  1.00  0.00     0.045 A 
HETATM   15  C12 UNL     1      30.861   8.099  48.656  1.00  0.00     0.116 A 
HETATM   16  F1  UNL     1      32.160   8.310  48.945  1.00  0.00    -0.206 F 
HETATM   17  C13 UNL     1      30.391   7.099  47.828  1.00  0.00     0.045 A 
HETATM   18  C14 UNL     1      29.048   6.913  47.554  1.00  0.00     0.040 A 
ENDBRANCH  11  12
ENDBRANCH   8  11
ENDBRANCH   3   6
BRANCH   1  19
HETATM   19  C5  UNL     1      24.247   1.214  52.604  1.00  0.00    -0.010 A 
HETATM   20  C4  UNL     1      22.881   1.291  52.691  1.00  0.00     0.016 A 
HETATM   21  C3  UNL     1      22.129   0.417  53.470  1.00  0.00     0.037 A 
HETATM   22  C2  UNL     1      22.808  -0.573  54.186  1.00  0.00     0.068 A 
HETATM   23  C19 UNL     1      24.183  -0.650  54.099  1.00  0.00     0.037 A 
HETATM   24  C18 UNL     1      24.901   0.230  53.317  1.00  0.00     0.016 A 
BRANCH  22  25
HETATM   25  O1  UNL     1      21.969  -1.390  54.929  1.00  0.00    -0.356 OA
HETATM   26  C1  UNL     1      20.729  -1.759  54.362  1.00  0.00     0.210 C 
ENDBRANCH  22  25
ENDBRANCH   1  19
TORSDOF 5
ENDMDL
