MODEL 1
REMARK VINA RESULT:      -8.4      0.000      0.000
REMARK  4 active torsions:
REMARK  status: ('A' for Active; 'I' for Inactive)
REMARK    1  A    between atoms: C2_3  and  C3_4 
REMARK    2  A    between atoms: C5_6  and  P1_7 
REMARK    3  A    between atoms: C8_10  and  N1_11 
REMARK    4  A    between atoms: N1_11  and  C9_12 
ROOT
HETATM    1  C3  UNL     1      19.593  -0.124  53.100  1.00  0.00     0.076 C 
HETATM    2  C4  UNL     1      19.934   0.786  52.170  1.00  0.00     0.020 C 
HETATM    3  C5  UNL     1      21.122   1.659  52.209  1.00  0.00     0.038 C 
HETATM    4  C6  UNL     1      22.437   0.878  52.035  1.00  0.00     0.060 C 
HETATM    5  C7  UNL     1      22.688   0.088  53.259  1.00  0.00     0.042 A 
HETATM    6  C8  UNL     1      24.018  -0.186  53.537  1.00  0.00     0.140 A 
HETATM    7  N2  UNL     1      24.341  -0.876  54.627  1.00  0.00    -0.224 NA
HETATM    8  C15 UNL     1      23.469  -1.353  55.521  1.00  0.00     0.238 A 
HETATM    9  N3  UNL     1      22.164  -1.124  55.310  1.00  0.00    -0.217 NA
HETATM   10  C16 UNL     1      21.783  -0.419  54.204  1.00  0.00     0.181 A 
HETATM   11  O1  UNL     1      20.372  -0.347  54.259  1.00  0.00    -0.292 OA
ENDROOT
BRANCH   6  12
HETATM   12  N1  UNL     1      25.042   0.217  52.653  1.00  0.00    -0.340 N 
HETATM   13  H9  UNL     1      24.908   0.247  51.603  1.00  0.00     0.167 HD
BRANCH  12  14
HETATM   14  C9  UNL     1      26.362   0.617  52.985  1.00  0.00     0.035 A 
HETATM   15  C10 UNL     1      26.754   1.915  53.208  1.00  0.00     0.029 A 
HETATM   16  C11 UNL     1      28.026   2.311  53.545  1.00  0.00     0.004 A 
HETATM   17  C12 UNL     1      29.001   1.354  53.675  1.00  0.00     0.019 A 
HETATM   18  C13 UNL     1      28.692   0.028  53.468  1.00  0.00     0.013 A 
HETATM   19 BR1  UNL     1      30.017  -1.345  53.638  1.00  0.00    -0.051 Br
HETATM   20  C14 UNL     1      27.408  -0.274  53.138  1.00  0.00     0.048 A 
ENDBRANCH  12  14
ENDBRANCH   6  12
BRANCH   3  21
HETATM   21  P1  UNL     1      20.991   3.093  51.075  1.00  0.00    -0.133 P 
HETATM   22  H5  UNL     1      22.036   4.046  51.457  1.00  0.00     0.055 HD
HETATM   23  H6  UNL     1      19.732   3.823  51.304  1.00  0.00     0.055 HD
ENDBRANCH   3  21
BRANCH   1  24
HETATM   24  C2  UNL     1      18.367  -0.889  52.869  1.00  0.00     0.066 C 
HETATM   25  C1  UNL     1      18.024  -1.972  53.512  1.00  0.00     0.191 C 
HETATM   26  F1  UNL     1      16.879  -2.668  53.280  1.00  0.00    -0.219 F 
ENDBRANCH   1  24
TORSDOF 4
ENDMDL
MODEL 2
REMARK VINA RESULT:      -8.1      4.433      5.447
REMARK  4 active torsions:
REMARK  status: ('A' for Active; 'I' for Inactive)
REMARK    1  A    between atoms: C2_3  and  C3_4 
REMARK    2  A    between atoms: C5_6  and  P1_7 
REMARK    3  A    between atoms: C8_10  and  N1_11 
REMARK    4  A    between atoms: N1_11  and  C9_12 
ROOT
HETATM    1  C3  UNL     1      22.877   0.580  52.911  1.00  0.00     0.076 C 
HETATM    2  C4  UNL     1      22.201   1.232  51.947  1.00  0.00     0.020 C 
HETATM    3  C5  UNL     1      22.588   2.520  51.342  1.00  0.00     0.038 C 
HETATM    4  C6  UNL     1      23.860   2.412  50.481  1.00  0.00     0.060 C 
HETATM    5  C7  UNL     1      25.023   2.214  51.372  1.00  0.00     0.042 A 
HETATM    6  C8  UNL     1      26.238   2.670  50.885  1.00  0.00     0.140 A 
HETATM    7  N2  UNL     1      27.337   2.551  51.625  1.00  0.00    -0.224 NA
HETATM    8  C15 UNL     1      27.387   2.011  52.847  1.00  0.00     0.238 A 
HETATM    9  N3  UNL     1      26.244   1.548  53.376  1.00  0.00    -0.217 NA
HETATM   10  C16 UNL     1      25.089   1.648  52.654  1.00  0.00     0.181 A 
HETATM   11  O1  UNL     1      24.077   1.081  53.463  1.00  0.00    -0.292 OA
ENDROOT
BRANCH   6  12
HETATM   12  N1  UNL     1      26.341   3.221  49.590  1.00  0.00    -0.340 N 
HETATM   13  H9  UNL     1      26.171   2.650  48.714  1.00  0.00     0.167 HD
BRANCH  12  14
HETATM   14  C9  UNL     1      26.684   4.553  49.241  1.00  0.00     0.035 A 
HETATM   15  C10 UNL     1      27.821   4.915  48.560  1.00  0.00     0.029 A 
HETATM   16  C11 UNL     1      28.155   6.200  48.205  1.00  0.00     0.004 A 
HETATM   17  C12 UNL     1      27.302   7.220  48.545  1.00  0.00     0.019 A 
HETATM   18  C13 UNL     1      26.139   6.942  49.229  1.00  0.00     0.013 A 
HETATM   19 BR1  UNL     1      24.916   8.331  49.726  1.00  0.00    -0.051 Br
HETATM   20  C14 UNL     1      25.888   5.643  49.540  1.00  0.00     0.048 A 
ENDBRANCH  12  14
ENDBRANCH   6  12
BRANCH   3  21
HETATM   21  P1  UNL     1      21.204   3.341  50.464  1.00  0.00    -0.133 P 
HETATM   22  H5  UNL     1      19.969   2.974  51.163  1.00  0.00     0.055 HD
HETATM   23  H6  UNL     1      21.038   2.778  49.113  1.00  0.00     0.055 HD
ENDBRANCH   3  21
BRANCH   1  24
HETATM   24  C2  UNL     1      22.316  -0.690  53.375  1.00  0.00     0.066 C 
HETATM   25  C1  UNL     1      21.514  -0.829  54.396  1.00  0.00     0.191 C 
HETATM   26  F1  UNL     1      21.005  -2.020  54.811  1.00  0.00    -0.219 F 
ENDBRANCH   1  24
TORSDOF 4
ENDMDL
MODEL 3
REMARK VINA RESULT:      -7.6      5.267      7.617
REMARK  4 active torsions:
REMARK  status: ('A' for Active; 'I' for Inactive)
REMARK    1  A    between atoms: C2_3  and  C3_4 
REMARK    2  A    between atoms: C5_6  and  P1_7 
REMARK    3  A    between atoms: C8_10  and  N1_11 
REMARK    4  A    between atoms: N1_11  and  C9_12 
ROOT
HETATM    1  C3  UNL     1      26.160   4.144  49.282  1.00  0.00     0.076 C 
HETATM    2  C4  UNL     1      24.836   4.237  49.064  1.00  0.00     0.020 C 
HETATM    3  C5  UNL     1      23.825   3.233  49.447  1.00  0.00     0.038 C 
HETATM    4  C6  UNL     1      23.643   3.126  50.972  1.00  0.00     0.060 C 
HETATM    5  C7  UNL     1      24.841   2.484  51.551  1.00  0.00     0.042 A 
HETATM    6  C8  UNL     1      24.639   1.791  52.734  1.00  0.00     0.140 A 
HETATM    7  N2  UNL     1      25.656   1.164  53.319  1.00  0.00    -0.224 NA
HETATM    8  C15 UNL     1      26.910   1.137  52.858  1.00  0.00     0.238 A 
HETATM    9  N3  UNL     1      27.174   1.790  51.716  1.00  0.00    -0.217 NA
HETATM   10  C16 UNL     1      26.161   2.449  51.078  1.00  0.00     0.181 A 
HETATM   11  O1  UNL     1      26.743   3.029  49.927  1.00  0.00    -0.292 OA
ENDROOT
BRANCH   6  12
HETATM   12  N1  UNL     1      23.374   1.775  53.360  1.00  0.00    -0.340 N 
HETATM   13  H9  UNL     1      22.930   2.647  53.767  1.00  0.00     0.167 HD
BRANCH  12  14
HETATM   14  C9  UNL     1      22.522   0.658  53.561  1.00  0.00     0.035 A 
HETATM   15  C10 UNL     1      22.862  -0.466  54.275  1.00  0.00     0.029 A 
HETATM   16  C11 UNL     1      22.039  -1.546  54.488  1.00  0.00     0.004 A 
HETATM   17  C12 UNL     1      20.774  -1.525  53.958  1.00  0.00     0.019 A 
HETATM   18  C13 UNL     1      20.355  -0.435  53.227  1.00  0.00     0.013 A 
HETATM   19 BR1  UNL     1      18.599  -0.359  52.465  1.00  0.00    -0.051 Br
HETATM   20  C14 UNL     1      21.234   0.589  53.066  1.00  0.00     0.048 A 
ENDBRANCH  12  14
ENDBRANCH   6  12
BRANCH   3  21
HETATM   21  P1  UNL     1      22.238   3.443  48.554  1.00  0.00    -0.133 P 
HETATM   22  H5  UNL     1      22.129   4.858  48.188  1.00  0.00     0.055 HD
HETATM   23  H6  UNL     1      21.098   3.213  49.458  1.00  0.00     0.055 HD
ENDBRANCH   3  21
BRANCH   1  24
HETATM   24  C2  UNL     1      26.992   5.256  48.819  1.00  0.00     0.066 C 
HETATM   25  C1  UNL     1      28.235   5.154  48.432  1.00  0.00     0.191 C 
HETATM   26  F1  UNL     1      28.990   6.202  48.006  1.00  0.00    -0.219 F 
ENDBRANCH   1  24
TORSDOF 4
ENDMDL
MODEL 4
REMARK VINA RESULT:      -7.6      4.726      5.876
REMARK  4 active torsions:
REMARK  status: ('A' for Active; 'I' for Inactive)
REMARK    1  A    between atoms: C2_3  and  C3_4 
REMARK    2  A    between atoms: C5_6  and  P1_7 
REMARK    3  A    between atoms: C8_10  and  N1_11 
REMARK    4  A    between atoms: N1_11  and  C9_12 
ROOT
HETATM    1  C3  UNL     1      23.459  -0.097  53.191  1.00  0.00     0.076 C 
HETATM    2  C4  UNL     1      24.698   0.287  53.549  1.00  0.00     0.020 C 
HETATM    3  C5  UNL     1      25.642   1.049  52.711  1.00  0.00     0.038 C 
HETATM    4  C6  UNL     1      25.183   2.498  52.467  1.00  0.00     0.060 C 
HETATM    5  C7  UNL     1      24.021   2.483  51.555  1.00  0.00     0.042 A 
HETATM    6  C8  UNL     1      23.848   3.620  50.781  1.00  0.00     0.140 A 
HETATM    7  N2  UNL     1      22.839   3.689  49.917  1.00  0.00    -0.224 NA
HETATM    8  C15 UNL     1      21.935   2.726  49.712  1.00  0.00     0.238 A 
HETATM    9  N3  UNL     1      22.044   1.599  50.431  1.00  0.00    -0.217 NA
HETATM   10  C16 UNL     1      23.064   1.481  51.332  1.00  0.00     0.181 A 
HETATM   11  O1  UNL     1      22.912   0.205  51.923  1.00  0.00    -0.292 OA
ENDROOT
BRANCH   6  12
HETATM   12  N1  UNL     1      24.702   4.734  50.927  1.00  0.00    -0.340 N 
HETATM   13  H9  UNL     1      24.646   5.389  51.758  1.00  0.00     0.167 HD
BRANCH  12  14
HETATM   14  C9  UNL     1      25.720   5.165  50.037  1.00  0.00     0.035 A 
HETATM   15  C10 UNL     1      26.683   4.349  49.495  1.00  0.00     0.029 A 
HETATM   16  C11 UNL     1      27.663   4.754  48.621  1.00  0.00     0.004 A 
HETATM   17  C12 UNL     1      27.705   6.072  48.243  1.00  0.00     0.019 A 
HETATM   18  C13 UNL     1      26.775   6.958  48.741  1.00  0.00     0.013 A 
HETATM   19 BR1  UNL     1      26.792   8.808  48.244  1.00  0.00    -0.051 Br
HETATM   20  C14 UNL     1      25.841   6.471  49.601  1.00  0.00     0.048 A 
ENDBRANCH  12  14
ENDBRANCH   6  12
BRANCH   3  21
HETATM   21  P1  UNL     1      27.372   0.942  53.308  1.00  0.00    -0.133 P 
HETATM   22  H5  UNL     1      28.014  -0.160  52.586  1.00  0.00     0.055 HD
HETATM   23  H6  UNL     1      27.410   0.524  54.719  1.00  0.00     0.055 HD
ENDBRANCH   3  21
BRANCH   1  24
HETATM   24  C2  UNL     1      22.683  -0.851  54.176  1.00  0.00     0.066 C 
HETATM   25  C1  UNL     1      21.491  -1.343  53.977  1.00  0.00     0.191 C 
HETATM   26  F1  UNL     1      20.786  -2.041  54.908  1.00  0.00    -0.219 F 
ENDBRANCH   1  24
TORSDOF 4
ENDMDL
MODEL 5
REMARK VINA RESULT:      -7.4      4.943      6.042
REMARK  4 active torsions:
REMARK  status: ('A' for Active; 'I' for Inactive)
REMARK    1  A    between atoms: C2_3  and  C3_4 
REMARK    2  A    between atoms: C5_6  and  P1_7 
REMARK    3  A    between atoms: C8_10  and  N1_11 
REMARK    4  A    between atoms: N1_11  and  C9_12 
ROOT
HETATM    1  C3  UNL     1      22.856   0.347  53.000  1.00  0.00     0.076 C 
HETATM    2  C4  UNL     1      24.171   0.632  52.982  1.00  0.00     0.020 C 
HETATM    3  C5  UNL     1      24.819   1.668  52.155  1.00  0.00     0.038 C 
HETATM    4  C6  UNL     1      24.439   3.095  52.587  1.00  0.00     0.060 C 
HETATM    5  C7  UNL     1      23.030   3.347  52.216  1.00  0.00     0.042 A 
HETATM    6  C8  UNL     1      22.698   4.672  51.979  1.00  0.00     0.140 A 
HETATM    7  N2  UNL     1      21.458   4.992  51.620  1.00  0.00    -0.224 NA
HETATM    8  C15 UNL     1      20.456   4.123  51.459  1.00  0.00     0.238 A 
HETATM    9  N3  UNL     1      20.710   2.824  51.675  1.00  0.00    -0.217 NA
HETATM   10  C16 UNL     1      21.970   2.445  52.045  1.00  0.00     0.181 A 
HETATM   11  O1  UNL     1      21.922   1.040  52.196  1.00  0.00    -0.292 OA
ENDROOT
BRANCH   6  12
HETATM   12  N1  UNL     1      23.648   5.702  52.157  1.00  0.00    -0.340 N 
HETATM   13  H9  UNL     1      23.978   6.011  53.115  1.00  0.00     0.167 HD
BRANCH  12  14
HETATM   14  C9  UNL     1      24.284   6.474  51.151  1.00  0.00     0.035 A 
HETATM   15  C10 UNL     1      23.951   7.769  50.831  1.00  0.00     0.029 A 
HETATM   16  C11 UNL     1      24.571   8.530  49.870  1.00  0.00     0.004 A 
HETATM   17  C12 UNL     1      25.607   7.979  49.160  1.00  0.00     0.019 A 
HETATM   18  C13 UNL     1      26.004   6.685  49.418  1.00  0.00     0.013 A 
HETATM   19 BR1  UNL     1      27.444   5.870  48.454  1.00  0.00    -0.051 Br
HETATM   20  C14 UNL     1      25.335   6.004  50.387  1.00  0.00     0.048 A 
ENDBRANCH  12  14
ENDBRANCH   6  12
BRANCH   3  21
HETATM   21  P1  UNL     1      26.630   1.429  52.003  1.00  0.00    -0.133 P 
HETATM   22  H5  UNL     1      27.273   2.637  52.526  1.00  0.00     0.055 HD
HETATM   23  H6  UNL     1      27.032   1.386  50.587  1.00  0.00     0.055 HD
ENDBRANCH   3  21
BRANCH   1  24
HETATM   24  C2  UNL     1      22.418  -0.724  53.896  1.00  0.00     0.066 C 
HETATM   25  C1  UNL     1      23.102  -1.185  54.907  1.00  0.00     0.191 C 
HETATM   26  F1  UNL     1      22.675  -2.182  55.728  1.00  0.00    -0.219 F 
ENDBRANCH   1  24
TORSDOF 4
ENDMDL
MODEL 6
REMARK VINA RESULT:      -7.4      1.188      1.332
REMARK  4 active torsions:
REMARK  status: ('A' for Active; 'I' for Inactive)
REMARK    1  A    between atoms: C2_3  and  C3_4 
REMARK    2  A    between atoms: C5_6  and  P1_7 
REMARK    3  A    between atoms: C8_10  and  N1_11 
REMARK    4  A    between atoms: N1_11  and  C9_12 
ROOT
HETATM    1  C3  UNL     1      18.448  -0.380  52.354  1.00  0.00     0.076 C 
HETATM    2  C4  UNL     1      18.802   0.613  51.518  1.00  0.00     0.020 C 
HETATM    3  C5  UNL     1      19.930   1.544  51.711  1.00  0.00     0.038 C 
HETATM    4  C6  UNL     1      21.299   0.851  51.588  1.00  0.00     0.060 C 
HETATM    5  C7  UNL     1      21.504  -0.013  52.770  1.00  0.00     0.042 A 
HETATM    6  C8  UNL     1      22.824  -0.234  53.131  1.00  0.00     0.140 A 
HETATM    7  N2  UNL     1      23.105  -0.983  54.193  1.00  0.00    -0.224 NA
HETATM    8  C15 UNL     1      22.200  -1.571  54.981  1.00  0.00     0.238 A 
HETATM    9  N3  UNL     1      20.903  -1.398  54.685  1.00  0.00    -0.217 NA
HETATM   10  C16 UNL     1      20.564  -0.636  53.603  1.00  0.00     0.181 A 
HETATM   11  O1  UNL     1      19.150  -0.645  53.552  1.00  0.00    -0.292 OA
ENDROOT
BRANCH   6  12
HETATM   12  N1  UNL     1      23.885   0.288  52.360  1.00  0.00    -0.340 N 
HETATM   13  H9  UNL     1      23.807   0.442  51.315  1.00  0.00     0.167 HD
BRANCH  12  14
HETATM   14  C9  UNL     1      25.177   0.665  52.811  1.00  0.00     0.035 A 
HETATM   15  C10 UNL     1      25.511   1.916  53.271  1.00  0.00     0.029 A 
HETATM   16  C11 UNL     1      26.754   2.286  53.723  1.00  0.00     0.004 A 
HETATM   17  C12 UNL     1      27.759   1.352  53.728  1.00  0.00     0.019 A 
HETATM   18  C13 UNL     1      27.508   0.073  53.282  1.00  0.00     0.013 A 
HETATM   19 BR1  UNL     1      28.877  -1.267  53.267  1.00  0.00    -0.051 Br
HETATM   20  C14 UNL     1      26.249  -0.207  52.852  1.00  0.00     0.048 A 
ENDBRANCH  12  14
ENDBRANCH   6  12
BRANCH   3  21
HETATM   21  P1  UNL     1      19.798   3.048  50.672  1.00  0.00    -0.133 P 
HETATM   22  H5  UNL     1      19.393   4.149  51.550  1.00  0.00     0.055 HD
HETATM   23  H6  UNL     1      18.689   2.921  49.712  1.00  0.00     0.055 HD
ENDBRANCH   3  21
BRANCH   1  24
HETATM   24  C2  UNL     1      17.291  -1.192  51.975  1.00  0.00     0.066 C 
HETATM   25  C1  UNL     1      16.532  -1.853  52.806  1.00  0.00     0.191 C 
HETATM   26  F1  UNL     1      15.460  -2.602  52.431  1.00  0.00    -0.219 F 
ENDBRANCH   1  24
TORSDOF 4
ENDMDL
MODEL 7
REMARK VINA RESULT:      -7.4      3.070      3.977
REMARK  4 active torsions:
REMARK  status: ('A' for Active; 'I' for Inactive)
REMARK    1  A    between atoms: C2_3  and  C3_4 
REMARK    2  A    between atoms: C5_6  and  P1_7 
REMARK    3  A    between atoms: C8_10  and  N1_11 
REMARK    4  A    between atoms: N1_11  and  C9_12 
ROOT
HETATM    1  C3  UNL     1      20.821   1.588  51.586  1.00  0.00     0.076 C 
HETATM    2  C4  UNL     1      21.173   0.918  52.698  1.00  0.00     0.020 C 
HETATM    3  C5  UNL     1      22.511   0.368  52.988  1.00  0.00     0.038 C 
HETATM    4  C6  UNL     1      23.565   1.465  53.225  1.00  0.00     0.060 C 
HETATM    5  C7  UNL     1      23.860   2.129  51.938  1.00  0.00     0.042 A 
HETATM    6  C8  UNL     1      25.124   2.685  51.824  1.00  0.00     0.140 A 
HETATM    7  N2  UNL     1      25.486   3.287  50.695  1.00  0.00    -0.224 NA
HETATM    8  C15 UNL     1      24.714   3.415  49.610  1.00  0.00     0.238 A 
HETATM    9  N3  UNL     1      23.477   2.900  49.656  1.00  0.00    -0.217 NA
HETATM   10  C16 UNL     1      23.059   2.271  50.795  1.00  0.00     0.181 A 
HETATM   11  O1  UNL     1      21.735   1.846  50.538  1.00  0.00    -0.292 OA
ENDROOT
BRANCH   6  12
HETATM   12  N1  UNL     1      26.027   2.664  52.909  1.00  0.00    -0.340 N 
HETATM   13  H9  UNL     1      26.003   3.388  53.682  1.00  0.00     0.167 HD
BRANCH  12  14
HETATM   14  C9  UNL     1      27.077   1.738  53.142  1.00  0.00     0.035 A 
HETATM   15  C10 UNL     1      28.306   2.064  53.664  1.00  0.00     0.029 A 
HETATM   16  C11 UNL     1      29.323   1.173  53.908  1.00  0.00     0.004 A 
HETATM   17  C12 UNL     1      29.121  -0.153  53.617  1.00  0.00     0.019 A 
HETATM   18  C13 UNL     1      27.916  -0.564  53.091  1.00  0.00     0.013 A 
HETATM   19 BR1  UNL     1      27.586  -2.403  52.667  1.00  0.00    -0.051 Br
HETATM   20  C14 UNL     1      26.965   0.385  52.881  1.00  0.00     0.048 A 
ENDBRANCH  12  14
ENDBRANCH   6  12
BRANCH   3  21
HETATM   21  P1  UNL     1      22.489  -0.896  54.315  1.00  0.00    -0.133 P 
HETATM   22  H5  UNL     1      23.400  -1.970  53.909  1.00  0.00     0.055 HD
HETATM   23  H6  UNL     1      21.170  -1.548  54.391  1.00  0.00     0.055 HD
ENDBRANCH   3  21
BRANCH   1  24
HETATM   24  C2  UNL     1      19.435   2.050  51.495  1.00  0.00     0.066 C 
HETATM   25  C1  UNL     1      19.051   3.295  51.579  1.00  0.00     0.191 C 
HETATM   26  F1  UNL     1      17.756   3.702  51.492  1.00  0.00    -0.219 F 
ENDBRANCH   1  24
TORSDOF 4
ENDMDL
MODEL 8
REMARK VINA RESULT:      -7.1      5.483      8.232
REMARK  4 active torsions:
REMARK  status: ('A' for Active; 'I' for Inactive)
REMARK    1  A    between atoms: C2_3  and  C3_4 
REMARK    2  A    between atoms: C5_6  and  P1_7 
REMARK    3  A    between atoms: C8_10  and  N1_11 
REMARK    4  A    between atoms: N1_11  and  C9_12 
ROOT
HETATM    1  C3  UNL     1      26.001   4.793  49.526  1.00  0.00     0.076 C 
HETATM    2  C4  UNL     1      26.437   3.682  50.147  1.00  0.00     0.020 C 
HETATM    3  C5  UNL     1      25.655   2.853  51.084  1.00  0.00     0.038 C 
HETATM    4  C6  UNL     1      24.501   2.104  50.393  1.00  0.00     0.060 C 
HETATM    5  C7  UNL     1      23.456   3.081  50.018  1.00  0.00     0.042 A 
HETATM    6  C8  UNL     1      22.165   2.582  49.943  1.00  0.00     0.140 A 
HETATM    7  N2  UNL     1      21.157   3.391  49.631  1.00  0.00    -0.224 NA
HETATM    8  C15 UNL     1      21.272   4.697  49.370  1.00  0.00     0.238 A 
HETATM    9  N3  UNL     1      22.496   5.243  49.423  1.00  0.00    -0.217 NA
HETATM   10  C16 UNL     1      23.564   4.452  49.740  1.00  0.00     0.181 A 
HETATM   11  O1  UNL     1      24.695   5.300  49.714  1.00  0.00    -0.292 OA
ENDROOT
BRANCH   6  12
HETATM   12  N1  UNL     1      21.904   1.210  50.149  1.00  0.00    -0.340 N 
HETATM   13  H9  UNL     1      22.224   0.462  49.471  1.00  0.00     0.167 HD
BRANCH  12  14
HETATM   14  C9  UNL     1      21.196   0.617  51.227  1.00  0.00     0.035 A 
HETATM   15  C10 UNL     1      19.830   0.481  51.285  1.00  0.00     0.029 A 
HETATM   16  C11 UNL     1      19.137  -0.105  52.316  1.00  0.00     0.004 A 
HETATM   17  C12 UNL     1      19.840  -0.603  53.384  1.00  0.00     0.019 A 
HETATM   18  C13 UNL     1      21.214  -0.507  53.404  1.00  0.00     0.013 A 
HETATM   19 BR1  UNL     1      22.241  -1.186  54.872  1.00  0.00    -0.051 Br
HETATM   20  C14 UNL     1      21.819   0.089  52.342  1.00  0.00     0.048 A 
ENDBRANCH  12  14
ENDBRANCH   6  12
BRANCH   3  21
HETATM   21  P1  UNL     1      26.704   1.752  52.108  1.00  0.00    -0.133 P 
HETATM   22  H5  UNL     1      26.585   2.206  53.496  1.00  0.00     0.055 HD
HETATM   23  H6  UNL     1      28.129   1.943  51.784  1.00  0.00     0.055 HD
ENDBRANCH   3  21
BRANCH   1  24
HETATM   24  C2  UNL     1      26.941   5.470  48.632  1.00  0.00     0.066 C 
HETATM   25  C1  UNL     1      28.206   5.171  48.505  1.00  0.00     0.191 C 
HETATM   26  F1  UNL     1      29.063   5.815  47.667  1.00  0.00    -0.219 F 
ENDBRANCH   1  24
TORSDOF 4
ENDMDL
MODEL 9
REMARK VINA RESULT:      -7.0      4.390      5.401
REMARK  4 active torsions:
REMARK  status: ('A' for Active; 'I' for Inactive)
REMARK    1  A    between atoms: C2_3  and  C3_4 
REMARK    2  A    between atoms: C5_6  and  P1_7 
REMARK    3  A    between atoms: C8_10  and  N1_11 
REMARK    4  A    between atoms: N1_11  and  C9_12 
ROOT
HETATM    1  C3  UNL     1      22.444   4.213  48.574  1.00  0.00     0.076 C 
HETATM    2  C4  UNL     1      23.538   4.968  48.365  1.00  0.00     0.020 C 
HETATM    3  C5  UNL     1      24.478   5.433  49.403  1.00  0.00     0.038 C 
HETATM    4  C6  UNL     1      25.296   4.284  50.020  1.00  0.00     0.060 C 
HETATM    5  C7  UNL     1      24.403   3.462  50.865  1.00  0.00     0.042 A 
HETATM    6  C8  UNL     1      25.015   2.794  51.914  1.00  0.00     0.140 A 
HETATM    7  N2  UNL     1      24.287   2.045  52.738  1.00  0.00    -0.224 NA
HETATM    8  C15 UNL     1      22.966   1.866  52.650  1.00  0.00     0.238 A 
HETATM    9  N3  UNL     1      22.313   2.484  51.655  1.00  0.00    -0.217 NA
HETATM   10  C16 UNL     1      23.017   3.265  50.782  1.00  0.00     0.181 A 
HETATM   11  O1  UNL     1      22.067   3.768  49.862  1.00  0.00    -0.292 OA
ENDROOT
BRANCH   6  12
HETATM   12  N1  UNL     1      26.413   2.856  52.098  1.00  0.00    -0.340 N 
HETATM   13  H9  UNL     1      26.992   3.683  51.777  1.00  0.00     0.167 HD
BRANCH  12  14
HETATM   14  C9  UNL     1      27.250   1.879  52.696  1.00  0.00     0.035 A 
HETATM   15  C10 UNL     1      28.290   2.156  53.550  1.00  0.00     0.029 A 
HETATM   16  C11 UNL     1      29.096   1.217  54.146  1.00  0.00     0.004 A 
HETATM   17  C12 UNL     1      28.866  -0.110  53.883  1.00  0.00     0.019 A 
HETATM   18  C13 UNL     1      27.843  -0.474  53.036  1.00  0.00     0.013 A 
HETATM   19 BR1  UNL     1      27.482  -2.313  52.638  1.00  0.00    -0.051 Br
HETATM   20  C14 UNL     1      27.094   0.521  52.491  1.00  0.00     0.048 A 
ENDBRANCH  12  14
ENDBRANCH   6  12
BRANCH   3  21
HETATM   21  P1  UNL     1      25.523   6.830  48.843  1.00  0.00    -0.133 P 
HETATM   22  H5  UNL     1      26.481   7.113  49.916  1.00  0.00     0.055 HD
HETATM   23  H6  UNL     1      24.727   8.064  48.732  1.00  0.00     0.055 HD
ENDBRANCH   3  21
BRANCH   1  24
HETATM   24  C2  UNL     1      21.642   3.861  47.401  1.00  0.00     0.066 C 
HETATM   25  C1  UNL     1      21.999   4.056  46.161  1.00  0.00     0.191 C 
HETATM   26  F1  UNL     1      21.237   3.721  45.085  1.00  0.00    -0.219 F 
ENDBRANCH   1  24
TORSDOF 4
ENDMDL
