MODEL 1
REMARK VINA RESULT:      -8.9      0.000      0.000
REMARK  7 active torsions:
REMARK  status: ('A' for Active; 'I' for Inactive)
REMARK    1  A    between atoms: C4_4  and  C5_5 
REMARK    2  A    between atoms: C5_5  and  N1_6 
REMARK    3  A    between atoms: N1_6  and  C6_7 
REMARK    4  A    between atoms: N1_6  and  C13_15 
REMARK    5  A    between atoms: C6_7  and  C7_8 
REMARK    6  A    between atoms: C13_15  and  N2_17 
REMARK    7  A    between atoms: N2_17  and  C14_18 
ROOT
HETATM    1  N1  UNL     1      24.661   2.268  52.534  1.00  0.00    -0.350 N 
ENDROOT
BRANCH   1   2
HETATM    2  C5  UNL     1      24.442   0.913  52.070  1.00  0.00     0.164 C 
BRANCH   2   3
HETATM    3  C4  UNL     1      23.347   0.243  52.861  1.00  0.00    -0.044 A 
HETATM    4  C3  UNL     1      21.945   0.359  52.447  1.00  0.00     0.011 A 
HETATM    5  C2  UNL     1      21.033  -0.261  53.157  1.00  0.00    -0.083 A 
HETATM    6  C1  UNL     1      19.641  -0.057  52.622  1.00  0.00     0.043 C 
HETATM    7  C22 UNL     1      21.144  -1.115  54.339  1.00  0.00     0.037 A 
HETATM    8  C21 UNL     1      22.559  -1.215  54.786  1.00  0.00     0.032 A 
HETATM    9  C20 UNL     1      23.538  -0.496  53.939  1.00  0.00    -0.018 A 
ENDBRANCH   2   3
ENDBRANCH   1   2
BRANCH   1  10
HETATM   10  C6  UNL     1      25.443   2.465  53.730  1.00  0.00     0.163 C 
BRANCH  10  11
HETATM   11  C7  UNL     1      26.703   1.685  53.722  1.00  0.00    -0.025 A 
HETATM   12  C8  UNL     1      27.834   2.322  53.363  1.00  0.00     0.008 A 
HETATM   13  C9  UNL     1      29.038   1.509  53.376  1.00  0.00     0.006 A 
HETATM   14  C10 UNL     1      28.653   0.326  53.755  1.00  0.00    -0.046 A 
HETATM   15  C11 UNL     1      29.452  -0.909  53.949  1.00  0.00     0.046 C 
HETATM   16  C12 UNL     1      27.162   0.325  53.992  1.00  0.00     0.229 A 
HETATM   17  F1  UNL     1      26.978  -0.107  55.276  1.00  0.00    -0.240 F 
ENDBRANCH  10  11
ENDBRANCH   1  10
BRANCH   1  18
HETATM   18  C13 UNL     1      24.132   3.411  51.870  1.00  0.00     0.174 C 
HETATM   19  S1  UNL     1      23.309   4.625  52.570  1.00  0.00    -0.041 SA
BRANCH  18  20
HETATM   20  N2  UNL     1      24.292   3.587  50.474  1.00  0.00    -0.333 N 
HETATM   21  H15 UNL     1      23.871   3.194  49.593  1.00  0.00     0.168 HD
BRANCH  20  22
HETATM   22  C14 UNL     1      25.172   4.470  49.793  1.00  0.00     0.034 A 
HETATM   23  C15 UNL     1      25.032   5.756  49.357  1.00  0.00     0.029 A 
HETATM   24  C16 UNL     1      26.069   6.371  48.719  1.00  0.00     0.002 A 
HETATM   25  C17 UNL     1      27.301   5.758  48.474  1.00  0.00     0.000 A 
HETATM   26  C18 UNL     1      27.446   4.452  48.917  1.00  0.00     0.002 A 
HETATM   27  C19 UNL     1      26.395   3.826  49.564  1.00  0.00     0.029 A 
ENDBRANCH  20  22
ENDBRANCH  18  20
ENDBRANCH   1  18
TORSDOF 7
ENDMDL
MODEL 2
REMARK VINA RESULT:      -8.6      1.057      1.996
REMARK  7 active torsions:
REMARK  status: ('A' for Active; 'I' for Inactive)
REMARK    1  A    between atoms: C4_4  and  C5_5 
REMARK    2  A    between atoms: C5_5  and  N1_6 
REMARK    3  A    between atoms: N1_6  and  C6_7 
REMARK    4  A    between atoms: N1_6  and  C13_15 
REMARK    5  A    between atoms: C6_7  and  C7_8 
REMARK    6  A    between atoms: C13_15  and  N2_17 
REMARK    7  A    between atoms: N2_17  and  C14_18 
ROOT
HETATM    1  N1  UNL     1      24.336   2.670  52.167  1.00  0.00    -0.350 N 
ENDROOT
BRANCH   1   2
HETATM    2  C5  UNL     1      24.171   1.324  51.657  1.00  0.00     0.164 C 
BRANCH   2   3
HETATM    3  C4  UNL     1      22.901   0.702  52.180  1.00  0.00    -0.044 A 
HETATM    4  C3  UNL     1      22.932  -0.225  53.317  1.00  0.00     0.011 A 
HETATM    5  C2  UNL     1      21.797  -0.721  53.747  1.00  0.00    -0.083 A 
HETATM    6  C1  UNL     1      21.976  -1.655  54.913  1.00  0.00     0.043 C 
HETATM    7  C22 UNL     1      20.420  -0.506  53.307  1.00  0.00     0.037 A 
HETATM    8  C21 UNL     1      20.377   0.409  52.135  1.00  0.00     0.032 A 
HETATM    9  C20 UNL     1      21.692   0.937  51.703  1.00  0.00    -0.018 A 
ENDBRANCH   2   3
ENDBRANCH   1   2
BRANCH   1  10
HETATM   10  C6  UNL     1      24.948   2.843  53.462  1.00  0.00     0.163 C 
BRANCH  10  11
HETATM   11  C7  UNL     1      26.150   1.995  53.642  1.00  0.00    -0.025 A 
HETATM   12  C8  UNL     1      26.105   1.031  54.580  1.00  0.00     0.008 A 
HETATM   13  C9  UNL     1      27.310   0.231  54.711  1.00  0.00     0.006 A 
HETATM   14  C10 UNL     1      28.139   0.705  53.828  1.00  0.00    -0.046 A 
HETATM   15  C11 UNL     1      29.523   0.280  53.508  1.00  0.00     0.046 C 
HETATM   16  C12 UNL     1      27.496   1.856  53.091  1.00  0.00     0.229 A 
HETATM   17  F1  UNL     1      27.550   1.539  51.763  1.00  0.00    -0.240 F 
ENDBRANCH  10  11
ENDBRANCH   1  10
BRANCH   1  18
HETATM   18  C13 UNL     1      23.914   3.827  51.453  1.00  0.00     0.174 C 
HETATM   19  S1  UNL     1      23.040   5.056  52.059  1.00  0.00    -0.041 SA
BRANCH  18  20
HETATM   20  N2  UNL     1      24.244   4.007  50.086  1.00  0.00    -0.333 N 
HETATM   21  H15 UNL     1      23.774   3.869  49.155  1.00  0.00     0.168 HD
BRANCH  20  22
HETATM   22  C14 UNL     1      25.455   4.499  49.530  1.00  0.00     0.034 A 
HETATM   23  C15 UNL     1      26.683   3.932  49.350  1.00  0.00     0.029 A 
HETATM   24  C16 UNL     1      27.685   4.657  48.774  1.00  0.00     0.002 A 
HETATM   25  C17 UNL     1      27.537   5.979  48.344  1.00  0.00     0.000 A 
HETATM   26  C18 UNL     1      26.290   6.557  48.527  1.00  0.00     0.002 A 
HETATM   27  C19 UNL     1      25.272   5.823  49.110  1.00  0.00     0.029 A 
ENDBRANCH  20  22
ENDBRANCH  18  20
ENDBRANCH   1  18
TORSDOF 7
ENDMDL
MODEL 3
REMARK VINA RESULT:      -8.6      2.554      5.831
REMARK  7 active torsions:
REMARK  status: ('A' for Active; 'I' for Inactive)
REMARK    1  A    between atoms: C4_4  and  C5_5 
REMARK    2  A    between atoms: C5_5  and  N1_6 
REMARK    3  A    between atoms: N1_6  and  C6_7 
REMARK    4  A    between atoms: N1_6  and  C13_15 
REMARK    5  A    between atoms: C6_7  and  C7_8 
REMARK    6  A    between atoms: C13_15  and  N2_17 
REMARK    7  A    between atoms: N2_17  and  C14_18 
ROOT
HETATM    1  N1  UNL     1      24.347   2.647  51.830  1.00  0.00    -0.350 N 
ENDROOT
BRANCH   1   2
HETATM    2  C5  UNL     1      23.490   1.599  51.315  1.00  0.00     0.164 C 
BRANCH   2   3
HETATM    3  C4  UNL     1      22.746   0.913  52.433  1.00  0.00    -0.044 A 
HETATM    4  C3  UNL     1      23.456   0.068  53.399  1.00  0.00     0.011 A 
HETATM    5  C2  UNL     1      22.766  -0.488  54.365  1.00  0.00    -0.083 A 
HETATM    6  C1  UNL     1      23.617  -1.327  55.280  1.00  0.00     0.043 C 
HETATM    7  C22 UNL     1      21.346  -0.413  54.706  1.00  0.00     0.037 A 
HETATM    8  C21 UNL     1      20.609   0.416  53.715  1.00  0.00     0.032 A 
HETATM    9  C20 UNL     1      21.448   1.018  52.653  1.00  0.00    -0.018 A 
ENDBRANCH   2   3
ENDBRANCH   1   2
BRANCH   1  10
HETATM   10  C6  UNL     1      23.762   3.657  52.678  1.00  0.00     0.163 C 
BRANCH  10  11
HETATM   11  C7  UNL     1      23.220   4.802  51.909  1.00  0.00    -0.025 A 
HETATM   12  C8  UNL     1      21.882   4.911  51.803  1.00  0.00     0.008 A 
HETATM   13  C9  UNL     1      21.409   6.054  51.041  1.00  0.00     0.006 A 
HETATM   14  C10 UNL     1      22.481   6.682  50.656  1.00  0.00    -0.046 A 
HETATM   15  C11 UNL     1      22.611   7.919  49.848  1.00  0.00     0.046 C 
HETATM   16  C12 UNL     1      23.706   5.952  51.151  1.00  0.00     0.229 A 
HETATM   17  F1  UNL     1      24.429   6.861  51.872  1.00  0.00    -0.240 F 
ENDBRANCH  10  11
ENDBRANCH   1  10
BRANCH   1  18
HETATM   18  C13 UNL     1      25.736   2.731  51.530  1.00  0.00     0.174 C 
HETATM   19  S1  UNL     1      26.378   3.160  50.100  1.00  0.00    -0.041 SA
BRANCH  18  20
HETATM   20  N2  UNL     1      26.718   2.434  52.507  1.00  0.00    -0.333 N 
HETATM   21  H15 UNL     1      27.236   2.952  53.263  1.00  0.00     0.168 HD
BRANCH  20  22
HETATM   22  C14 UNL     1      27.342   1.187  52.777  1.00  0.00     0.034 A 
HETATM   23  C15 UNL     1      26.952  -0.104  52.565  1.00  0.00     0.029 A 
HETATM   24  C16 UNL     1      27.775  -1.128  52.932  1.00  0.00     0.002 A 
HETATM   25  C17 UNL     1      29.027  -0.942  53.526  1.00  0.00     0.000 A 
HETATM   26  C18 UNL     1      29.425   0.369  53.742  1.00  0.00     0.002 A 
HETATM   27  C19 UNL     1      28.592   1.410  53.370  1.00  0.00     0.029 A 
ENDBRANCH  20  22
ENDBRANCH  18  20
ENDBRANCH   1  18
TORSDOF 7
ENDMDL
MODEL 4
REMARK VINA RESULT:      -8.6      1.392      6.471
REMARK  7 active torsions:
REMARK  status: ('A' for Active; 'I' for Inactive)
REMARK    1  A    between atoms: C4_4  and  C5_5 
REMARK    2  A    between atoms: C5_5  and  N1_6 
REMARK    3  A    between atoms: N1_6  and  C6_7 
REMARK    4  A    between atoms: N1_6  and  C13_15 
REMARK    5  A    between atoms: C6_7  and  C7_8 
REMARK    6  A    between atoms: C13_15  and  N2_17 
REMARK    7  A    between atoms: N2_17  and  C14_18 
ROOT
HETATM    1  N1  UNL     1      24.561   2.955  51.152  1.00  0.00    -0.350 N 
ENDROOT
BRANCH   1   2
HETATM    2  C5  UNL     1      25.118   2.822  49.821  1.00  0.00     0.164 C 
BRANCH   2   3
HETATM    3  C4  UNL     1      25.653   4.142  49.327  1.00  0.00    -0.044 A 
HETATM    4  C3  UNL     1      27.079   4.308  49.027  1.00  0.00     0.011 A 
HETATM    5  C2  UNL     1      27.490   5.470  48.578  1.00  0.00    -0.083 A 
HETATM    6  C1  UNL     1      28.971   5.501  48.314  1.00  0.00     0.043 C 
HETATM    7  C22 UNL     1      26.762   6.703  48.279  1.00  0.00     0.037 A 
HETATM    8  C21 UNL     1      25.319   6.556  48.608  1.00  0.00     0.032 A 
HETATM    9  C20 UNL     1      24.921   5.219  49.106  1.00  0.00    -0.018 A 
ENDBRANCH   2   3
ENDBRANCH   1   2
BRANCH   1  10
HETATM   10  C6  UNL     1      25.455   3.260  52.243  1.00  0.00     0.163 C 
BRANCH  10  11
HETATM   11  C7  UNL     1      26.169   2.062  52.745  1.00  0.00    -0.025 A 
HETATM   12  C8  UNL     1      26.073   1.778  54.057  1.00  0.00     0.008 A 
HETATM   13  C9  UNL     1      26.791   0.592  54.492  1.00  0.00     0.006 A 
HETATM   14  C10 UNL     1      27.356   0.116  53.422  1.00  0.00    -0.046 A 
HETATM   15  C11 UNL     1      28.214  -1.083  53.260  1.00  0.00     0.046 C 
HETATM   16  C12 UNL     1      27.030   0.996  52.238  1.00  0.00     0.229 A 
HETATM   17  F1  UNL     1      26.458   0.183  51.301  1.00  0.00    -0.240 F 
ENDBRANCH  10  11
ENDBRANCH   1  10
BRANCH   1  18
HETATM   18  C13 UNL     1      23.175   2.789  51.434  1.00  0.00     0.174 C 
HETATM   19  S1  UNL     1      22.102   3.984  51.681  1.00  0.00    -0.041 SA
BRANCH  18  20
HETATM   20  N2  UNL     1      22.594   1.500  51.523  1.00  0.00    -0.333 N 
HETATM   21  H15 UNL     1      22.290   0.743  50.858  1.00  0.00     0.168 HD
BRANCH  20  22
HETATM   22  C14 UNL     1      22.226   0.779  52.690  1.00  0.00     0.034 A 
HETATM   23  C15 UNL     1      21.098   0.785  53.459  1.00  0.00     0.029 A 
HETATM   24  C16 UNL     1      21.018  -0.032  54.548  1.00  0.00     0.002 A 
HETATM   25  C17 UNL     1      22.040  -0.900  54.943  1.00  0.00     0.000 A 
HETATM   26  C18 UNL     1      23.187  -0.908  54.163  1.00  0.00     0.002 A 
HETATM   27  C19 UNL     1      23.270  -0.079  53.057  1.00  0.00     0.029 A 
ENDBRANCH  20  22
ENDBRANCH  18  20
ENDBRANCH   1  18
TORSDOF 7
ENDMDL
MODEL 5
REMARK VINA RESULT:      -8.5      2.195      6.393
REMARK  7 active torsions:
REMARK  status: ('A' for Active; 'I' for Inactive)
REMARK    1  A    between atoms: C4_4  and  C5_5 
REMARK    2  A    between atoms: C5_5  and  N1_6 
REMARK    3  A    between atoms: N1_6  and  C6_7 
REMARK    4  A    between atoms: N1_6  and  C13_15 
REMARK    5  A    between atoms: C6_7  and  C7_8 
REMARK    6  A    between atoms: C13_15  and  N2_17 
REMARK    7  A    between atoms: N2_17  and  C14_18 
ROOT
HETATM    1  N1  UNL     1      23.643   2.928  51.765  1.00  0.00    -0.350 N 
ENDROOT
BRANCH   1   2
HETATM    2  C5  UNL     1      24.430   3.239  52.941  1.00  0.00     0.164 C 
BRANCH   2   3
HETATM    3  C4  UNL     1      25.340   2.092  53.299  1.00  0.00    -0.044 A 
HETATM    4  C3  UNL     1      26.788   2.294  53.422  1.00  0.00     0.011 A 
HETATM    5  C2  UNL     1      27.534   1.268  53.757  1.00  0.00    -0.083 A 
HETATM    6  C1  UNL     1      28.995   1.615  53.845  1.00  0.00     0.043 C 
HETATM    7  C22 UNL     1      27.187  -0.117  54.072  1.00  0.00     0.037 A 
HETATM    8  C21 UNL     1      25.724  -0.341  53.921  1.00  0.00     0.032 A 
HETATM    9  C20 UNL     1      24.940   0.858  53.546  1.00  0.00    -0.018 A 
ENDBRANCH   2   3
ENDBRANCH   1   2
BRANCH   1  10
HETATM   10  C6  UNL     1      24.331   2.481  50.578  1.00  0.00     0.163 C 
BRANCH  10  11
HETATM   11  C7  UNL     1      25.135   3.554  49.947  1.00  0.00    -0.025 A 
HETATM   12  C8  UNL     1      26.437   3.305  49.707  1.00  0.00     0.008 A 
HETATM   13  C9  UNL     1      27.174   4.391  49.085  1.00  0.00     0.006 A 
HETATM   14  C10 UNL     1      26.312   5.352  48.930  1.00  0.00    -0.046 A 
HETATM   15  C11 UNL     1      26.498   6.702  48.346  1.00  0.00     0.046 C 
HETATM   16  C12 UNL     1      24.967   4.922  49.464  1.00  0.00     0.229 A 
HETATM   17  F1  UNL     1      24.079   5.070  48.436  1.00  0.00    -0.240 F 
ENDBRANCH  10  11
ENDBRANCH   1  10
BRANCH   1  18
HETATM   18  C13 UNL     1      22.226   3.054  51.724  1.00  0.00     0.174 C 
HETATM   19  S1  UNL     1      21.395   4.441  51.563  1.00  0.00    -0.041 SA
BRANCH  18  20
HETATM   20  N2  UNL     1      21.385   1.917  51.823  1.00  0.00    -0.333 N 
HETATM   21  H15 UNL     1      20.604   1.484  51.266  1.00  0.00     0.168 HD
BRANCH  20  22
HETATM   22  C14 UNL     1      21.376   0.914  52.829  1.00  0.00     0.034 A 
HETATM   23  C15 UNL     1      20.919   0.904  54.115  1.00  0.00     0.029 A 
HETATM   24  C16 UNL     1      21.044  -0.227  54.868  1.00  0.00     0.002 A 
HETATM   25  C17 UNL     1      21.623  -1.410  54.400  1.00  0.00     0.000 A 
HETATM   26  C18 UNL     1      22.088  -1.401  53.094  1.00  0.00     0.002 A 
HETATM   27  C19 UNL     1      21.963  -0.255  52.328  1.00  0.00     0.029 A 
ENDBRANCH  20  22
ENDBRANCH  18  20
ENDBRANCH   1  18
TORSDOF 7
ENDMDL
MODEL 6
REMARK VINA RESULT:      -8.5      1.582      5.293
REMARK  7 active torsions:
REMARK  status: ('A' for Active; 'I' for Inactive)
REMARK    1  A    between atoms: C4_4  and  C5_5 
REMARK    2  A    between atoms: C5_5  and  N1_6 
REMARK    3  A    between atoms: N1_6  and  C6_7 
REMARK    4  A    between atoms: N1_6  and  C13_15 
REMARK    5  A    between atoms: C6_7  and  C7_8 
REMARK    6  A    between atoms: C13_15  and  N2_17 
REMARK    7  A    between atoms: N2_17  and  C14_18 
ROOT
HETATM    1  N1  UNL     1      24.526   1.932  52.197  1.00  0.00    -0.350 N 
ENDROOT
BRANCH   1   2
HETATM    2  C5  UNL     1      25.507   1.031  51.628  1.00  0.00     0.164 C 
BRANCH   2   3
HETATM    3  C4  UNL     1      26.797   1.077  52.408  1.00  0.00    -0.044 A 
HETATM    4  C3  UNL     1      27.538  -0.154  52.704  1.00  0.00     0.011 A 
HETATM    5  C2  UNL     1      28.666  -0.057  53.366  1.00  0.00    -0.083 A 
HETATM    6  C1  UNL     1      29.319  -1.392  53.600  1.00  0.00     0.043 C 
HETATM    7  C22 UNL     1      29.387   1.106  53.882  1.00  0.00     0.037 A 
HETATM    8  C21 UNL     1      28.629   2.357  53.615  1.00  0.00     0.032 A 
HETATM    9  C20 UNL     1      27.367   2.178  52.860  1.00  0.00    -0.018 A 
ENDBRANCH   2   3
ENDBRANCH   1   2
BRANCH   1  10
HETATM   10  C6  UNL     1      23.946   1.598  53.475  1.00  0.00     0.163 C 
BRANCH  10  11
HETATM   11  C7  UNL     1      22.673   0.851  53.345  1.00  0.00    -0.025 A 
HETATM   12  C8  UNL     1      22.613  -0.386  53.874  1.00  0.00     0.008 A 
HETATM   13  C9  UNL     1      21.340  -1.069  53.719  1.00  0.00     0.006 A 
HETATM   14  C10 UNL     1      20.576  -0.237  53.074  1.00  0.00    -0.046 A 
HETATM   15  C11 UNL     1      19.168  -0.393  52.637  1.00  0.00     0.046 C 
HETATM   16  C12 UNL     1      21.341   1.029  52.771  1.00  0.00     0.229 A 
HETATM   17  F1  UNL     1      20.612   2.055  53.303  1.00  0.00    -0.240 F 
ENDBRANCH  10  11
ENDBRANCH   1  10
BRANCH   1  18
HETATM   18  C13 UNL     1      24.100   3.126  51.548  1.00  0.00     0.174 C 
HETATM   19  S1  UNL     1      23.310   4.362  52.247  1.00  0.00    -0.041 SA
BRANCH  18  20
HETATM   20  N2  UNL     1      24.349   3.341  50.170  1.00  0.00    -0.333 N 
HETATM   21  H15 UNL     1      24.050   2.912  49.256  1.00  0.00     0.168 HD
BRANCH  20  22
HETATM   22  C14 UNL     1      25.169   4.331  49.567  1.00  0.00     0.034 A 
HETATM   23  C15 UNL     1      24.909   5.592  49.114  1.00  0.00     0.029 A 
HETATM   24  C16 UNL     1      25.914   6.336  48.569  1.00  0.00     0.002 A 
HETATM   25  C17 UNL     1      27.230   5.884  48.439  1.00  0.00     0.000 A 
HETATM   26  C18 UNL     1      27.497   4.604  48.898  1.00  0.00     0.002 A 
HETATM   27  C19 UNL     1      26.479   3.847  49.452  1.00  0.00     0.029 A 
ENDBRANCH  20  22
ENDBRANCH  18  20
ENDBRANCH   1  18
TORSDOF 7
ENDMDL
MODEL 7
REMARK VINA RESULT:      -8.4      1.605      6.259
REMARK  7 active torsions:
REMARK  status: ('A' for Active; 'I' for Inactive)
REMARK    1  A    between atoms: C4_4  and  C5_5 
REMARK    2  A    between atoms: C5_5  and  N1_6 
REMARK    3  A    between atoms: N1_6  and  C6_7 
REMARK    4  A    between atoms: N1_6  and  C13_15 
REMARK    5  A    between atoms: C6_7  and  C7_8 
REMARK    6  A    between atoms: C13_15  and  N2_17 
REMARK    7  A    between atoms: N2_17  and  C14_18 
ROOT
HETATM    1  N1  UNL     1      23.712   2.855  51.514  1.00  0.00    -0.350 N 
ENDROOT
BRANCH   1   2
HETATM    2  C5  UNL     1      24.268   2.484  50.229  1.00  0.00     0.164 C 
BRANCH   2   3
HETATM    3  C4  UNL     1      25.112   3.598  49.665  1.00  0.00    -0.044 A 
HETATM    4  C3  UNL     1      24.511   4.888  49.310  1.00  0.00     0.011 A 
HETATM    5  C2  UNL     1      25.292   5.832  48.844  1.00  0.00    -0.083 A 
HETATM    6  C1  UNL     1      24.547   7.099  48.520  1.00  0.00     0.043 C 
HETATM    7  C22 UNL     1      26.736   5.865  48.611  1.00  0.00     0.037 A 
HETATM    8  C21 UNL     1      27.353   4.551  48.939  1.00  0.00     0.032 A 
HETATM    9  C20 UNL     1      26.416   3.532  49.465  1.00  0.00    -0.018 A 
ENDBRANCH   2   3
ENDBRANCH   1   2
BRANCH   1  10
HETATM   10  C6  UNL     1      24.608   2.995  52.636  1.00  0.00     0.163 C 
BRANCH  10  11
HETATM   11  C7  UNL     1      25.382   1.759  52.903  1.00  0.00    -0.025 A 
HETATM   12  C8  UNL     1      24.860   0.866  53.765  1.00  0.00     0.008 A 
HETATM   13  C9  UNL     1      25.661  -0.326  53.987  1.00  0.00     0.006 A 
HETATM   14  C10 UNL     1      26.717  -0.179  53.243  1.00  0.00    -0.046 A 
HETATM   15  C11 UNL     1      27.880  -1.082  53.065  1.00  0.00     0.046 C 
HETATM   16  C12 UNL     1      26.645   1.140  52.511  1.00  0.00     0.229 A 
HETATM   17  F1  UNL     1      26.760   0.847  51.181  1.00  0.00    -0.240 F 
ENDBRANCH  10  11
ENDBRANCH   1  10
BRANCH   1  18
HETATM   18  C13 UNL     1      22.321   3.078  51.722  1.00  0.00     0.174 C 
HETATM   19  S1  UNL     1      21.599   4.526  51.872  1.00  0.00    -0.041 SA
BRANCH  18  20
HETATM   20  N2  UNL     1      21.411   1.996  51.818  1.00  0.00    -0.333 N 
HETATM   21  H15 UNL     1      20.471   1.741  51.418  1.00  0.00     0.168 HD
BRANCH  20  22
HETATM   22  C14 UNL     1      21.543   0.799  52.571  1.00  0.00     0.034 A 
HETATM   23  C15 UNL     1      22.058  -0.428  52.266  1.00  0.00     0.029 A 
HETATM   24  C16 UNL     1      22.055  -1.415  53.208  1.00  0.00     0.002 A 
HETATM   25  C17 UNL     1      21.547  -1.253  54.500  1.00  0.00     0.000 A 
HETATM   26  C18 UNL     1      21.024  -0.007  54.811  1.00  0.00     0.002 A 
HETATM   27  C19 UNL     1      21.026   0.996  53.858  1.00  0.00     0.029 A 
ENDBRANCH  20  22
ENDBRANCH  18  20
ENDBRANCH   1  18
TORSDOF 7
ENDMDL
MODEL 8
REMARK VINA RESULT:      -8.3      2.132      6.336
REMARK  7 active torsions:
REMARK  status: ('A' for Active; 'I' for Inactive)
REMARK    1  A    between atoms: C4_4  and  C5_5 
REMARK    2  A    between atoms: C5_5  and  N1_6 
REMARK    3  A    between atoms: N1_6  and  C6_7 
REMARK    4  A    between atoms: N1_6  and  C13_15 
REMARK    5  A    between atoms: C6_7  and  C7_8 
REMARK    6  A    between atoms: C13_15  and  N2_17 
REMARK    7  A    between atoms: N2_17  and  C14_18 
ROOT
HETATM    1  N1  UNL     1      24.344   2.906  51.699  1.00  0.00    -0.350 N 
ENDROOT
BRANCH   1   2
HETATM    2  C5  UNL     1      23.694   3.836  52.599  1.00  0.00     0.164 C 
BRANCH   2   3
HETATM    3  C4  UNL     1      23.118   5.005  51.842  1.00  0.00    -0.044 A 
HETATM    4  C3  UNL     1      23.967   6.132  51.442  1.00  0.00     0.011 A 
HETATM    5  C2  UNL     1      23.421   7.114  50.765  1.00  0.00    -0.083 A 
HETATM    6  C1  UNL     1      24.403   8.201  50.422  1.00  0.00     0.043 C 
HETATM    7  C22 UNL     1      22.054   7.312  50.283  1.00  0.00     0.037 A 
HETATM    8  C21 UNL     1      21.176   6.190  50.709  1.00  0.00     0.032 A 
HETATM    9  C20 UNL     1      21.857   5.113  51.465  1.00  0.00    -0.018 A 
ENDBRANCH   2   3
ENDBRANCH   1   2
BRANCH   1  10
HETATM   10  C6  UNL     1      23.530   1.932  51.013  1.00  0.00     0.163 C 
BRANCH  10  11
HETATM   11  C7  UNL     1      22.759   1.076  51.946  1.00  0.00    -0.025 A 
HETATM   12  C8  UNL     1      21.442   0.921  51.712  1.00  0.00     0.008 A 
HETATM   13  C9  UNL     1      20.738   0.069  52.656  1.00  0.00     0.006 A 
HETATM   14  C10 UNL     1      21.638  -0.322  53.509  1.00  0.00    -0.046 A 
HETATM   15  C11 UNL     1      21.498  -1.206  54.691  1.00  0.00     0.046 C 
HETATM   16  C12 UNL     1      22.976   0.280  53.151  1.00  0.00     0.229 A 
HETATM   17  F1  UNL     1      23.842  -0.767  53.007  1.00  0.00    -0.240 F 
ENDBRANCH  10  11
ENDBRANCH   1  10
BRANCH   1  18
HETATM   18  C13 UNL     1      25.749   2.901  51.469  1.00  0.00     0.174 C 
HETATM   19  S1  UNL     1      26.487   3.243  50.062  1.00  0.00    -0.041 SA
BRANCH  18  20
HETATM   20  N2  UNL     1      26.662   2.584  52.506  1.00  0.00    -0.333 N 
HETATM   21  H15 UNL     1      27.107   3.080  53.320  1.00  0.00     0.168 HD
BRANCH  20  22
HETATM   22  C14 UNL     1      27.297   1.340  52.769  1.00  0.00     0.034 A 
HETATM   23  C15 UNL     1      26.903   0.047  52.582  1.00  0.00     0.029 A 
HETATM   24  C16 UNL     1      27.739  -0.972  52.934  1.00  0.00     0.002 A 
HETATM   25  C17 UNL     1      29.007  -0.778  53.490  1.00  0.00     0.000 A 
HETATM   26  C18 UNL     1      29.409   0.536  53.681  1.00  0.00     0.002 A 
HETATM   27  C19 UNL     1      28.563   1.571  53.324  1.00  0.00     0.029 A 
ENDBRANCH  20  22
ENDBRANCH  18  20
ENDBRANCH   1  18
TORSDOF 7
ENDMDL
MODEL 9
REMARK VINA RESULT:      -8.2      2.434      4.738
REMARK  7 active torsions:
REMARK  status: ('A' for Active; 'I' for Inactive)
REMARK    1  A    between atoms: C4_4  and  C5_5 
REMARK    2  A    between atoms: C5_5  and  N1_6 
REMARK    3  A    between atoms: N1_6  and  C6_7 
REMARK    4  A    between atoms: N1_6  and  C13_15 
REMARK    5  A    between atoms: C6_7  and  C7_8 
REMARK    6  A    between atoms: C13_15  and  N2_17 
REMARK    7  A    between atoms: N2_17  and  C14_18 
ROOT
HETATM    1  N1  UNL     1      25.978   2.064  52.024  1.00  0.00    -0.350 N 
ENDROOT
BRANCH   1   2
HETATM    2  C5  UNL     1      26.196   1.986  50.594  1.00  0.00     0.164 C 
BRANCH   2   3
HETATM    3  C4  UNL     1      25.662   3.213  49.900  1.00  0.00    -0.044 A 
HETATM    4  C3  UNL     1      24.340   3.199  49.264  1.00  0.00     0.011 A 
HETATM    5  C2  UNL     1      23.913   4.299  48.693  1.00  0.00    -0.083 A 
HETATM    6  C1  UNL     1      22.546   4.145  48.081  1.00  0.00     0.043 C 
HETATM    7  C22 UNL     1      24.519   5.625  48.573  1.00  0.00     0.037 A 
HETATM    8  C21 UNL     1      25.873   5.642  49.187  1.00  0.00     0.032 A 
HETATM    9  C20 UNL     1      26.293   4.370  49.819  1.00  0.00    -0.018 A 
ENDBRANCH   2   3
ENDBRANCH   1   2
BRANCH   1  10
HETATM   10  C6  UNL     1      27.126   2.210  52.886  1.00  0.00     0.163 C 
BRANCH  10  11
HETATM   11  C7  UNL     1      27.861   0.937  53.076  1.00  0.00    -0.025 A 
HETATM   12  C8  UNL     1      29.105   1.000  53.587  1.00  0.00     0.008 A 
HETATM   13  C9  UNL     1      29.775  -0.279  53.754  1.00  0.00     0.006 A 
HETATM   14  C10 UNL     1      28.928  -1.172  53.336  1.00  0.00    -0.046 A 
HETATM   15  C11 UNL     1      29.067  -2.647  53.271  1.00  0.00     0.046 C 
HETATM   16  C12 UNL     1      27.664  -0.495  52.864  1.00  0.00     0.229 A 
HETATM   17  F1  UNL     1      26.640  -1.053  53.577  1.00  0.00    -0.240 F 
ENDBRANCH  10  11
ENDBRANCH   1  10
BRANCH   1  18
HETATM   18  C13 UNL     1      24.686   1.993  52.618  1.00  0.00     0.174 C 
HETATM   19  S1  UNL     1      23.763   0.661  52.736  1.00  0.00    -0.041 SA
BRANCH  18  20
HETATM   20  N2  UNL     1      24.074   3.140  53.182  1.00  0.00    -0.333 N 
HETATM   21  H15 UNL     1      23.972   3.568  54.139  1.00  0.00     0.168 HD
BRANCH  20  22
HETATM   22  C14 UNL     1      23.346   4.165  52.521  1.00  0.00     0.034 A 
HETATM   23  C15 UNL     1      23.659   5.453  52.195  1.00  0.00     0.029 A 
HETATM   24  C16 UNL     1      22.743   6.227  51.544  1.00  0.00     0.002 A 
HETATM   25  C17 UNL     1      21.471   5.779  51.177  1.00  0.00     0.000 A 
HETATM   26  C18 UNL     1      21.152   4.471  51.507  1.00  0.00     0.002 A 
HETATM   27  C19 UNL     1      22.079   3.684  52.167  1.00  0.00     0.029 A 
ENDBRANCH  20  22
ENDBRANCH  18  20
ENDBRANCH   1  18
TORSDOF 7
ENDMDL
