MODEL 1
REMARK VINA RESULT:      -7.2      0.000      0.000
REMARK  5 active torsions:
REMARK  status: ('A' for Active; 'I' for Inactive)
REMARK    1  A    between atoms: S1_3  and  N1_5 
REMARK    2  A    between atoms: N1_5  and  C2_6 
REMARK    3  A    between atoms: C2_6  and  C3_7 
REMARK    4  A    between atoms: C3_7  and  N2_8 
REMARK    5  A    between atoms: N2_8  and  C4_9 
ROOT
HETATM    1  O1  UNL     1      28.093  -0.979  54.381  1.00  0.00    -0.271 OA
HETATM    2  C1  UNL     1      27.818   0.169  53.958  1.00  0.00     0.321 C 
HETATM    3  S1  UNL     1      27.524   1.685  53.457  1.00  0.00     0.219 S 
HETATM    4  O2  UNL     1      28.514   2.779  53.991  1.00  0.00    -0.225 OA
ENDROOT
BRANCH   3   5
HETATM    5  N1  UNL     1      27.321   1.803  51.833  1.00  0.00    -0.179 NA
BRANCH   5   6
HETATM    6  C2  UNL     1      26.040   2.350  51.528  1.00  0.00     0.091 C 
HETATM    7  C10 UNL     1      24.857   1.741  52.077  1.00  0.00     0.023 A 
HETATM    8  C11 UNL     1      24.251   0.752  52.863  1.00  0.00     0.152 A 
HETATM    9  C13 UNL     1      23.461   1.758  52.177  1.00  0.00     0.152 A 
HETATM   10  N3  UNL     1      23.425  -0.066  53.538  1.00  0.00    -0.261 NA
HETATM   11  C12 UNL     1      22.180   0.391  53.298  1.00  0.00     0.223 A 
HETATM   12  N4  UNL     1      22.188   1.461  52.499  1.00  0.00    -0.261 NA
BRANCH   6  13
HETATM   13  C3  UNL     1      25.989   3.410  50.743  1.00  0.00     0.121 C 
BRANCH  13  14
HETATM   14  N2  UNL     1      26.529   3.418  49.446  1.00  0.00    -0.364 N 
HETATM   15  H2  UNL     1      26.718   2.617  48.801  1.00  0.00     0.165 HD
BRANCH  14  16
HETATM   16  C4  UNL     1      26.866   4.713  48.946  1.00  0.00     0.033 A 
HETATM   17  C5  UNL     1      25.928   5.709  48.816  1.00  0.00     0.029 A 
HETATM   18  C6  UNL     1      26.177   6.983  48.342  1.00  0.00     0.004 A 
HETATM   19  C7  UNL     1      27.470   7.270  47.973  1.00  0.00     0.019 A 
HETATM   20  C8  UNL     1      28.462   6.318  48.078  1.00  0.00     0.013 A 
HETATM   21 BR1  UNL     1      30.268   6.666  47.580  1.00  0.00    -0.051 Br
HETATM   22  C9  UNL     1      28.146   5.064  48.560  1.00  0.00     0.048 A 
ENDBRANCH  14  16
ENDBRANCH  13  14
ENDBRANCH   6  13
ENDBRANCH   5   6
ENDBRANCH   3   5
TORSDOF 5
ENDMDL
MODEL 2
REMARK VINA RESULT:      -7.1      3.447      5.078
REMARK  5 active torsions:
REMARK  status: ('A' for Active; 'I' for Inactive)
REMARK    1  A    between atoms: S1_3  and  N1_5 
REMARK    2  A    between atoms: N1_5  and  C2_6 
REMARK    3  A    between atoms: C2_6  and  C3_7 
REMARK    4  A    between atoms: C3_7  and  N2_8 
REMARK    5  A    between atoms: N2_8  and  C4_9 
ROOT
HETATM    1  O1  UNL     1      20.100   0.473  54.204  1.00  0.00    -0.271 OA
HETATM    2  C1  UNL     1      21.254   0.015  54.383  1.00  0.00     0.321 C 
HETATM    3  S1  UNL     1      22.715  -0.633  54.667  1.00  0.00     0.219 S 
HETATM    4  O2  UNL     1      22.725  -1.902  55.589  1.00  0.00    -0.225 OA
ENDROOT
BRANCH   3   5
HETATM    5  N1  UNL     1      23.591  -0.879  53.301  1.00  0.00    -0.179 NA
BRANCH   5   6
HETATM    6  C2  UNL     1      24.356   0.280  52.983  1.00  0.00     0.091 C 
HETATM    7  C10 UNL     1      25.679   0.434  53.532  1.00  0.00     0.023 A 
HETATM    8  C11 UNL     1      26.729  -0.046  54.326  1.00  0.00     0.152 A 
HETATM    9  C13 UNL     1      26.833   1.220  53.623  1.00  0.00     0.152 A 
HETATM   10  N3  UNL     1      27.868  -0.262  55.007  1.00  0.00    -0.261 NA
HETATM   11  C12 UNL     1      28.654   0.803  54.753  1.00  0.00     0.223 A 
HETATM   12  N4  UNL     1      28.057   1.681  53.943  1.00  0.00    -0.261 NA
BRANCH   6  13
HETATM   13  C3  UNL     1      23.815   1.181  52.184  1.00  0.00     0.121 C 
BRANCH  13  14
HETATM   14  N2  UNL     1      23.686   2.533  52.545  1.00  0.00    -0.364 N 
HETATM   15  H2  UNL     1      23.238   2.953  53.390  1.00  0.00     0.165 HD
BRANCH  14  16
HETATM   16  C4  UNL     1      24.254   3.457  51.615  1.00  0.00     0.033 A 
HETATM   17  C5  UNL     1      25.206   3.076  50.700  1.00  0.00     0.029 A 
HETATM   18  C6  UNL     1      25.799   3.909  49.771  1.00  0.00     0.004 A 
HETATM   19  C7  UNL     1      25.399   5.225  49.769  1.00  0.00     0.019 A 
HETATM   20  C8  UNL     1      24.448   5.676  50.659  1.00  0.00     0.013 A 
HETATM   21 BR1  UNL     1      23.862   7.488  50.696  1.00  0.00    -0.051 Br
HETATM   22  C9  UNL     1      23.895   4.791  51.561  1.00  0.00     0.048 A 
ENDBRANCH  14  16
ENDBRANCH  13  14
ENDBRANCH   6  13
ENDBRANCH   5   6
ENDBRANCH   3   5
TORSDOF 5
ENDMDL
MODEL 3
REMARK VINA RESULT:      -7.1      4.129      7.583
REMARK  5 active torsions:
REMARK  status: ('A' for Active; 'I' for Inactive)
REMARK    1  A    between atoms: S1_3  and  N1_5 
REMARK    2  A    between atoms: N1_5  and  C2_6 
REMARK    3  A    between atoms: C2_6  and  C3_7 
REMARK    4  A    between atoms: C3_7  and  N2_8 
REMARK    5  A    between atoms: N2_8  and  C4_9 
ROOT
HETATM    1  O1  UNL     1      24.264   5.548  50.868  1.00  0.00    -0.271 OA
HETATM    2  C1  UNL     1      24.775   4.410  50.998  1.00  0.00     0.321 C 
HETATM    3  S1  UNL     1      25.493   2.958  51.111  1.00  0.00     0.219 S 
HETATM    4  O2  UNL     1      26.797   2.780  50.257  1.00  0.00    -0.225 OA
ENDROOT
BRANCH   3   5
HETATM    5  N1  UNL     1      25.719   2.465  52.659  1.00  0.00    -0.179 NA
BRANCH   5   6
HETATM    6  C2  UNL     1      25.815   1.044  52.721  1.00  0.00     0.091 C 
HETATM    7  C10 UNL     1      27.081   0.428  53.026  1.00  0.00     0.023 A 
HETATM    8  C11 UNL     1      28.444   0.537  53.332  1.00  0.00     0.152 A 
HETATM    9  C13 UNL     1      27.797  -0.758  53.223  1.00  0.00     0.152 A 
HETATM   10  N3  UNL     1      29.741   0.354  53.631  1.00  0.00    -0.261 NA
HETATM   11  C12 UNL     1      29.914  -0.981  53.709  1.00  0.00     0.223 A 
HETATM   12  N4  UNL     1      28.779  -1.645  53.471  1.00  0.00    -0.261 NA
BRANCH   6  13
HETATM   13  C3  UNL     1      24.723   0.337  52.494  1.00  0.00     0.121 C 
BRANCH  13  14
HETATM   14  N2  UNL     1      24.157  -0.512  53.460  1.00  0.00    -0.364 N 
HETATM   15  H2  UNL     1      24.629  -1.091  54.191  1.00  0.00     0.165 HD
BRANCH  14  16
HETATM   16  C4  UNL     1      22.731  -0.588  53.428  1.00  0.00     0.033 A 
HETATM   17  C5  UNL     1      22.020  -1.306  54.359  1.00  0.00     0.029 A 
HETATM   18  C6  UNL     1      20.645  -1.427  54.394  1.00  0.00     0.004 A 
HETATM   19  C7  UNL     1      19.936  -0.771  53.414  1.00  0.00     0.019 A 
HETATM   20  C8  UNL     1      20.585  -0.032  52.448  1.00  0.00     0.013 A 
HETATM   21 BR1  UNL     1      19.649   0.893  51.070  1.00  0.00    -0.051 Br
HETATM   22  C9  UNL     1      21.962   0.047  52.471  1.00  0.00     0.048 A 
ENDBRANCH  14  16
ENDBRANCH  13  14
ENDBRANCH   6  13
ENDBRANCH   5   6
ENDBRANCH   3   5
TORSDOF 5
ENDMDL
MODEL 4
REMARK VINA RESULT:      -7.0      4.072      5.503
REMARK  5 active torsions:
REMARK  status: ('A' for Active; 'I' for Inactive)
REMARK    1  A    between atoms: S1_3  and  N1_5 
REMARK    2  A    between atoms: N1_5  and  C2_6 
REMARK    3  A    between atoms: C2_6  and  C3_7 
REMARK    4  A    between atoms: C3_7  and  N2_8 
REMARK    5  A    between atoms: N2_8  and  C4_9 
ROOT
HETATM    1  O1  UNL     1      20.093   0.239  51.497  1.00  0.00    -0.271 OA
HETATM    2  C1  UNL     1      21.000   0.327  52.358  1.00  0.00     0.321 C 
HETATM    3  S1  UNL     1      22.125   0.400  53.525  1.00  0.00     0.219 S 
HETATM    4  O2  UNL     1      21.777  -0.366  54.850  1.00  0.00    -0.225 OA
ENDROOT
BRANCH   3   5
HETATM    5  N1  UNL     1      23.633   0.026  52.997  1.00  0.00    -0.179 NA
BRANCH   5   6
HETATM    6  C2  UNL     1      24.527   1.112  53.226  1.00  0.00     0.091 C 
HETATM    7  C10 UNL     1      25.873   0.848  53.663  1.00  0.00     0.023 A 
HETATM    8  C11 UNL     1      26.878  -0.060  54.023  1.00  0.00     0.152 A 
HETATM    9  C13 UNL     1      27.118   1.373  54.029  1.00  0.00     0.152 A 
HETATM   10  N3  UNL     1      28.000  -0.692  54.408  1.00  0.00    -0.261 NA
HETATM   11  C12 UNL     1      28.905   0.280  54.645  1.00  0.00     0.223 A 
HETATM   12  N4  UNL     1      28.398   1.496  54.427  1.00  0.00    -0.261 NA
BRANCH   6  13
HETATM   13  C3  UNL     1      24.078   2.338  53.025  1.00  0.00     0.121 C 
BRANCH  13  14
HETATM   14  N2  UNL     1      24.762   3.273  52.231  1.00  0.00    -0.364 N 
HETATM   15  H2  UNL     1      25.621   3.826  52.449  1.00  0.00     0.165 HD
BRANCH  14  16
HETATM   16  C4  UNL     1      24.191   3.492  50.939  1.00  0.00     0.033 A 
HETATM   17  C5  UNL     1      24.493   4.604  50.190  1.00  0.00     0.029 A 
HETATM   18  C6  UNL     1      23.984   4.885  48.937  1.00  0.00     0.004 A 
HETATM   19  C7  UNL     1      23.104   3.972  48.403  1.00  0.00     0.019 A 
HETATM   20  C8  UNL     1      22.756   2.835  49.100  1.00  0.00     0.013 A 
HETATM   21 BR1  UNL     1      21.542   1.542  48.403  1.00  0.00    -0.051 Br
HETATM   22  C9  UNL     1      23.302   2.614  50.347  1.00  0.00     0.048 A 
ENDBRANCH  14  16
ENDBRANCH  13  14
ENDBRANCH   6  13
ENDBRANCH   5   6
ENDBRANCH   3   5
TORSDOF 5
ENDMDL
MODEL 5
REMARK VINA RESULT:      -6.8      5.027      7.913
REMARK  5 active torsions:
REMARK  status: ('A' for Active; 'I' for Inactive)
REMARK    1  A    between atoms: S1_3  and  N1_5 
REMARK    2  A    between atoms: N1_5  and  C2_6 
REMARK    3  A    between atoms: C2_6  and  C3_7 
REMARK    4  A    between atoms: C3_7  and  N2_8 
REMARK    5  A    between atoms: N2_8  and  C4_9 
ROOT
HETATM    1  O1  UNL     1      24.260   7.382  50.808  1.00  0.00    -0.271 OA
HETATM    2  C1  UNL     1      24.054   6.198  51.166  1.00  0.00     0.321 C 
HETATM    3  S1  UNL     1      23.719   4.690  51.667  1.00  0.00     0.219 S 
HETATM    4  O2  UNL     1      22.348   4.513  52.411  1.00  0.00    -0.225 OA
ENDROOT
BRANCH   3   5
HETATM    5  N1  UNL     1      23.914   3.559  50.495  1.00  0.00    -0.179 NA
BRANCH   5   6
HETATM    6  C2  UNL     1      24.099   2.269  51.072  1.00  0.00     0.091 C 
HETATM    7  C10 UNL     1      25.361   1.934  51.680  1.00  0.00     0.023 A 
HETATM    8  C11 UNL     1      26.670   2.285  52.035  1.00  0.00     0.152 A 
HETATM    9  C13 UNL     1      26.129   0.974  52.348  1.00  0.00     0.152 A 
HETATM   10  N3  UNL     1      27.935   2.354  52.484  1.00  0.00    -0.261 NA
HETATM   11  C12 UNL     1      28.188   1.157  53.051  1.00  0.00     0.223 A 
HETATM   12  N4  UNL     1      27.136   0.338  52.976  1.00  0.00    -0.261 NA
BRANCH   6  13
HETATM   13  C3  UNL     1      23.090   1.418  51.028  1.00  0.00     0.121 C 
BRANCH  13  14
HETATM   14  N2  UNL     1      21.877   1.647  51.699  1.00  0.00    -0.364 N 
HETATM   15  H2  UNL     1      21.246   2.480  51.662  1.00  0.00     0.165 HD
BRANCH  14  16
HETATM   16  C4  UNL     1      21.456   0.583  52.553  1.00  0.00     0.033 A 
HETATM   17  C5  UNL     1      22.320  -0.037  53.422  1.00  0.00     0.029 A 
HETATM   18  C6  UNL     1      21.988  -1.071  54.277  1.00  0.00     0.004 A 
HETATM   19  C7  UNL     1      20.684  -1.508  54.250  1.00  0.00     0.019 A 
HETATM   20  C8  UNL     1      19.764  -0.931  53.401  1.00  0.00     0.013 A 
HETATM   21 BR1  UNL     1      17.947  -1.502  53.325  1.00  0.00    -0.051 Br
HETATM   22  C9  UNL     1      20.161   0.098  52.573  1.00  0.00     0.048 A 
ENDBRANCH  14  16
ENDBRANCH  13  14
ENDBRANCH   6  13
ENDBRANCH   5   6
ENDBRANCH   3   5
TORSDOF 5
ENDMDL
MODEL 6
REMARK VINA RESULT:      -6.7      1.839      2.242
REMARK  5 active torsions:
REMARK  status: ('A' for Active; 'I' for Inactive)
REMARK    1  A    between atoms: S1_3  and  N1_5 
REMARK    2  A    between atoms: N1_5  and  C2_6 
REMARK    3  A    between atoms: C2_6  and  C3_7 
REMARK    4  A    between atoms: C3_7  and  N2_8 
REMARK    5  A    between atoms: N2_8  and  C4_9 
ROOT
HETATM    1  O1  UNL     1      27.206  -1.286  52.191  1.00  0.00    -0.271 OA
HETATM    2  C1  UNL     1      27.074  -0.490  53.150  1.00  0.00     0.321 C 
HETATM    3  S1  UNL     1      26.981   0.523  54.416  1.00  0.00     0.219 S 
HETATM    4  O2  UNL     1      28.298   0.682  55.255  1.00  0.00    -0.225 OA
ENDROOT
BRANCH   3   5
HETATM    5  N1  UNL     1      26.337   1.983  54.032  1.00  0.00    -0.179 NA
BRANCH   5   6
HETATM    6  C2  UNL     1      25.505   1.874  52.879  1.00  0.00     0.091 C 
HETATM    7  C10 UNL     1      24.258   1.160  52.965  1.00  0.00     0.023 A 
HETATM    8  C11 UNL     1      23.329   0.420  53.710  1.00  0.00     0.152 A 
HETATM    9  C13 UNL     1      23.103   0.723  52.308  1.00  0.00     0.152 A 
HETATM   10  N3  UNL     1      22.291  -0.296  54.176  1.00  0.00    -0.261 NA
HETATM   11  C12 UNL     1      21.450  -0.442  53.132  1.00  0.00     0.223 A 
HETATM   12  N4  UNL     1      21.916   0.151  52.030  1.00  0.00    -0.261 NA
BRANCH   6  13
HETATM   13  C3  UNL     1      25.917   2.443  51.761  1.00  0.00     0.121 C 
BRANCH  13  14
HETATM   14  N2  UNL     1      25.067   3.206  50.944  1.00  0.00    -0.364 N 
HETATM   15  H2  UNL     1      24.031   3.146  50.825  1.00  0.00     0.165 HD
BRANCH  14  16
HETATM   16  C4  UNL     1      25.726   4.207  50.165  1.00  0.00     0.033 A 
HETATM   17  C5  UNL     1      26.853   3.930  49.429  1.00  0.00     0.029 A 
HETATM   18  C6  UNL     1      27.544   4.841  48.654  1.00  0.00     0.004 A 
HETATM   19  C7  UNL     1      27.058   6.127  48.621  1.00  0.00     0.019 A 
HETATM   20  C8  UNL     1      25.931   6.475  49.335  1.00  0.00     0.013 A 
HETATM   21 BR1  UNL     1      25.219   8.242  49.323  1.00  0.00    -0.051 Br
HETATM   22  C9  UNL     1      25.288   5.516  50.090  1.00  0.00     0.048 A 
ENDBRANCH  14  16
ENDBRANCH  13  14
ENDBRANCH   6  13
ENDBRANCH   5   6
ENDBRANCH   3   5
TORSDOF 5
ENDMDL
MODEL 7
REMARK VINA RESULT:      -6.6      4.186      7.596
REMARK  5 active torsions:
REMARK  status: ('A' for Active; 'I' for Inactive)
REMARK    1  A    between atoms: S1_3  and  N1_5 
REMARK    2  A    between atoms: N1_5  and  C2_6 
REMARK    3  A    between atoms: C2_6  and  C3_7 
REMARK    4  A    between atoms: C3_7  and  N2_8 
REMARK    5  A    between atoms: N2_8  and  C4_9 
ROOT
HETATM    1  O1  UNL     1      20.906   6.292  50.246  1.00  0.00    -0.271 OA
HETATM    2  C1  UNL     1      22.081   5.887  50.412  1.00  0.00     0.321 C 
HETATM    3  S1  UNL     1      23.585   5.350  50.707  1.00  0.00     0.219 S 
HETATM    4  O2  UNL     1      23.844   4.828  52.164  1.00  0.00    -0.225 OA
ENDROOT
BRANCH   3   5
HETATM    5  N1  UNL     1      24.123   4.281  49.585  1.00  0.00    -0.179 NA
BRANCH   5   6
HETATM    6  C2  UNL     1      25.547   4.298  49.521  1.00  0.00     0.091 C 
HETATM    7  C10 UNL     1      26.220   5.415  48.910  1.00  0.00     0.023 A 
HETATM    8  C11 UNL     1      26.172   6.656  48.261  1.00  0.00     0.152 A 
HETATM    9  C13 UNL     1      27.437   6.007  48.555  1.00  0.00     0.152 A 
HETATM   10  N3  UNL     1      26.414   7.823  47.640  1.00  0.00    -0.261 NA
HETATM   11  C12 UNL     1      27.756   7.914  47.542  1.00  0.00     0.223 A 
HETATM   12  N4  UNL     1      28.367   6.853  48.075  1.00  0.00    -0.261 NA
BRANCH   6  13
HETATM   13  C3  UNL     1      26.204   3.274  50.035  1.00  0.00     0.121 C 
BRANCH  13  14
HETATM   14  N2  UNL     1      26.467   3.157  51.409  1.00  0.00    -0.364 N 
HETATM   15  H2  UNL     1      26.865   3.862  52.071  1.00  0.00     0.165 HD
BRANCH  14  16
HETATM   16  C4  UNL     1      26.142   1.885  51.974  1.00  0.00     0.033 A 
HETATM   17  C5  UNL     1      27.091   0.909  52.161  1.00  0.00     0.029 A 
HETATM   18  C6  UNL     1      26.855  -0.341  52.700  1.00  0.00     0.004 A 
HETATM   19  C7  UNL     1      25.563  -0.623  53.077  1.00  0.00     0.019 A 
HETATM   20  C8  UNL     1      24.561   0.310  52.919  1.00  0.00     0.013 A 
HETATM   21 BR1  UNL     1      22.756  -0.033  53.425  1.00  0.00    -0.051 Br
HETATM   22  C9  UNL     1      24.865   1.541  52.374  1.00  0.00     0.048 A 
ENDBRANCH  14  16
ENDBRANCH  13  14
ENDBRANCH   6  13
ENDBRANCH   5   6
ENDBRANCH   3   5
TORSDOF 5
ENDMDL
MODEL 8
REMARK VINA RESULT:      -6.3      3.102      4.254
REMARK  5 active torsions:
REMARK  status: ('A' for Active; 'I' for Inactive)
REMARK    1  A    between atoms: S1_3  and  N1_5 
REMARK    2  A    between atoms: N1_5  and  C2_6 
REMARK    3  A    between atoms: C2_6  and  C3_7 
REMARK    4  A    between atoms: C3_7  and  N2_8 
REMARK    5  A    between atoms: N2_8  and  C4_9 
ROOT
HETATM    1  O1  UNL     1      20.797  -1.011  53.921  1.00  0.00    -0.271 OA
HETATM    2  C1  UNL     1      21.581  -0.353  53.197  1.00  0.00     0.321 C 
HETATM    3  S1  UNL     1      22.536   0.505  52.203  1.00  0.00     0.219 S 
HETATM    4  O2  UNL     1      21.849   1.035  50.895  1.00  0.00    -0.225 OA
ENDROOT
BRANCH   3   5
HETATM    5  N1  UNL     1      23.364   1.696  52.968  1.00  0.00    -0.179 NA
BRANCH   5   6
HETATM    6  C2  UNL     1      24.675   1.824  52.422  1.00  0.00     0.091 C 
HETATM    7  C10 UNL     1      25.796   1.250  53.119  1.00  0.00     0.023 A 
HETATM    8  C11 UNL     1      26.316   0.536  54.208  1.00  0.00     0.152 A 
HETATM    9  C13 UNL     1      27.178   1.028  53.148  1.00  0.00     0.152 A 
HETATM   10  N3  UNL     1      27.066  -0.107  55.118  1.00  0.00    -0.261 NA
HETATM   11  C12 UNL     1      28.335  -0.031  54.667  1.00  0.00     0.223 A 
HETATM   12  N4  UNL     1      28.413   0.634  53.512  1.00  0.00    -0.261 NA
BRANCH   6  13
HETATM   13  C3  UNL     1      24.811   2.471  51.279  1.00  0.00     0.121 C 
BRANCH  13  14
HETATM   14  N2  UNL     1      25.653   3.587  51.138  1.00  0.00    -0.364 N 
HETATM   15  H2  UNL     1      26.541   3.815  51.640  1.00  0.00     0.165 HD
BRANCH  14  16
HETATM   16  C4  UNL     1      25.224   4.540  50.165  1.00  0.00     0.033 A 
HETATM   17  C5  UNL     1      23.907   4.650  49.786  1.00  0.00     0.029 A 
HETATM   18  C6  UNL     1      23.417   5.545  48.854  1.00  0.00     0.004 A 
HETATM   19  C7  UNL     1      24.326   6.391  48.263  1.00  0.00     0.019 A 
HETATM   20  C8  UNL     1      25.663   6.335  48.596  1.00  0.00     0.013 A 
HETATM   21 BR1  UNL     1      26.961   7.485  47.805  1.00  0.00    -0.051 Br
HETATM   22  C9  UNL     1      26.087   5.418  49.535  1.00  0.00     0.048 A 
ENDBRANCH  14  16
ENDBRANCH  13  14
ENDBRANCH   6  13
ENDBRANCH   5   6
ENDBRANCH   3   5
TORSDOF 5
ENDMDL
MODEL 9
REMARK VINA RESULT:      -6.3      3.221      4.204
REMARK  5 active torsions:
REMARK  status: ('A' for Active; 'I' for Inactive)
REMARK    1  A    between atoms: S1_3  and  N1_5 
REMARK    2  A    between atoms: N1_5  and  C2_6 
REMARK    3  A    between atoms: C2_6  and  C3_7 
REMARK    4  A    between atoms: C3_7  and  N2_8 
REMARK    5  A    between atoms: N2_8  and  C4_9 
ROOT
HETATM    1  O1  UNL     1      21.089   4.459  49.699  1.00  0.00    -0.271 OA
HETATM    2  C1  UNL     1      21.891   3.861  50.454  1.00  0.00     0.321 C 
HETATM    3  S1  UNL     1      22.865   3.056  51.475  1.00  0.00     0.219 S 
HETATM    4  O2  UNL     1      22.139   2.163  52.541  1.00  0.00    -0.225 OA
ENDROOT
BRANCH   3   5
HETATM    5  N1  UNL     1      24.059   2.228  50.714  1.00  0.00    -0.179 NA
BRANCH   5   6
HETATM    6  C2  UNL     1      25.312   2.457  51.354  1.00  0.00     0.091 C 
HETATM    7  C10 UNL     1      25.686   1.661  52.494  1.00  0.00     0.023 A 
HETATM    8  C11 UNL     1      25.399   0.642  53.412  1.00  0.00     0.152 A 
HETATM    9  C13 UNL     1      26.644   1.387  53.476  1.00  0.00     0.152 A 
HETATM   10  N3  UNL     1      25.383  -0.268  54.401  1.00  0.00    -0.261 NA
HETATM   11  C12 UNL     1      26.550  -0.113  55.060  1.00  0.00     0.223 A 
HETATM   12  N4  UNL     1      27.298   0.856  54.527  1.00  0.00    -0.261 NA
BRANCH   6  13
HETATM   13  C3  UNL     1      26.093   3.403  50.867  1.00  0.00     0.121 C 
BRANCH  13  14
HETATM   14  N2  UNL     1      26.587   3.374  49.552  1.00  0.00    -0.364 N 
HETATM   15  H2  UNL     1      26.760   2.555  48.927  1.00  0.00     0.165 HD
BRANCH  14  16
HETATM   16  C4  UNL     1      26.895   4.656  49.001  1.00  0.00     0.033 A 
HETATM   17  C5  UNL     1      28.160   4.978  48.572  1.00  0.00     0.029 A 
HETATM   18  C6  UNL     1      28.534   6.192  48.029  1.00  0.00     0.004 A 
HETATM   19  C7  UNL     1      27.554   7.151  47.911  1.00  0.00     0.019 A 
HETATM   20  C8  UNL     1      26.263   6.895  48.321  1.00  0.00     0.013 A 
HETATM   21 BR1  UNL     1      24.872   8.189  48.179  1.00  0.00    -0.051 Br
HETATM   22  C9  UNL     1      25.957   5.661  48.855  1.00  0.00     0.048 A 
ENDBRANCH  14  16
ENDBRANCH  13  14
ENDBRANCH   6  13
ENDBRANCH   5   6
ENDBRANCH   3   5
TORSDOF 5
ENDMDL
