MODEL 1
REMARK VINA RESULT:      -9.1      0.000      0.000
REMARK  1 active torsions:
REMARK  status: ('A' for Active; 'I' for Inactive)
REMARK    1  A    between atoms: C14_18  and  O4_20 
ROOT
HETATM    1  C1  UNL     1      29.797   0.243  53.831  1.00  0.00     0.017 C 
HETATM    2  C2  UNL     1      28.653   0.439  53.534  1.00  0.00    -0.082 C 
HETATM    3  C3  UNL     1      27.234   0.662  53.181  1.00  0.00     0.000 C 
HETATM    4  C4  UNL     1      27.169   1.583  52.259  1.00  0.00     0.017 C 
HETATM    5  C5  UNL     1      26.200   2.298  51.453  1.00  0.00     0.001 C 
HETATM    6  C6  UNL     1      24.932   2.439  51.194  1.00  0.00     0.000 C 
HETATM    7  O1  UNL     1      23.625   2.668  50.842  1.00  0.00     0.000 OA
HETATM    8  N1  UNL     1      23.236   2.634  49.484  1.00  0.00     0.338 N 
HETATM    9  C7  UNL     1      21.869   2.873  49.765  1.00  0.00     0.217 A 
HETATM   10  O2  UNL     1      22.652   2.825  50.755  1.00  0.00     0.000 OA
HETATM   11  C8  UNL     1      20.476   3.047  49.183  1.00  0.00     0.072 C 
HETATM   12  C9  UNL     1      19.547   3.283  50.352  1.00  0.00     0.006 C 
HETATM   13  C10 UNL     1      18.112   3.259  49.926  1.00  0.00     0.002 C 
HETATM   14  C11 UNL     1      17.752   1.936  49.273  1.00  0.00     0.027 C 
HETATM   15  C12 UNL     1      18.166   0.769  50.127  1.00  0.00     0.175 C 
HETATM   16  O3  UNL     1      17.664   0.785  51.437  1.00  0.00    -0.353 OA
HETATM   17  C13 UNL     1      18.204  -0.165  52.342  1.00  0.00     0.077 C 
HETATM   18  C14 UNL     1      17.442  -1.242  52.616  1.00  0.00     0.071 C 
HETATM   19  C15 UNL     1      17.802  -2.363  53.530  1.00  0.00     0.079 C 
HETATM   20  C17 UNL     1      19.558   0.288  52.797  1.00  0.00     0.102 C 
HETATM   21  C18 UNL     1      20.178  -0.619  53.802  1.00  0.00     0.187 A 
HETATM   22  N2  UNL     1      21.053  -1.638  53.542  1.00  0.00    -0.260 NA
HETATM   23  C19 UNL     1      21.647  -0.427  53.808  1.00  0.00     0.146 A 
HETATM   24  N3  UNL     1      23.060  -0.312  53.805  1.00  0.00    -0.248 NA
HETATM   25  C20 UNL     1      23.926  -0.921  54.509  1.00  0.00     0.093 C 
HETATM   26  C21 UNL     1      25.352  -0.726  54.425  1.00  0.00     0.022 C 
HETATM   27  C22 UNL     1      25.930   0.160  53.582  1.00  0.00     0.075 C 
HETATM   28  H5  UNL     1      23.570   2.508  48.479  1.00  0.00     0.366 HD
ENDROOT
BRANCH  18  29
HETATM   29  O4  UNL     1      16.207  -1.306  51.985  1.00  0.00    -0.358 OA
HETATM   30  C16 UNL     1      15.305  -2.333  52.310  1.00  0.00     0.209 C 
ENDBRANCH  18  29
TORSDOF 1
ENDMDL
MODEL 2
REMARK VINA RESULT:      -8.9      2.074      5.097
REMARK  1 active torsions:
REMARK  status: ('A' for Active; 'I' for Inactive)
REMARK    1  A    between atoms: C14_18  and  O4_20 
ROOT
HETATM    1  C1  UNL     1      29.846  -0.019  53.833  1.00  0.00     0.017 C 
HETATM    2  C2  UNL     1      28.711   0.143  53.487  1.00  0.00    -0.082 C 
HETATM    3  C3  UNL     1      27.316   0.364  53.048  1.00  0.00     0.000 C 
HETATM    4  C4  UNL     1      26.543  -0.502  53.647  1.00  0.00     0.017 C 
HETATM    5  C5  UNL     1      25.151  -0.893  53.733  1.00  0.00     0.001 C 
HETATM    6  C6  UNL     1      23.949  -0.640  53.303  1.00  0.00     0.000 C 
HETATM    7  O1  UNL     1      22.644  -0.460  52.917  1.00  0.00     0.000 OA
HETATM    8  N1  UNL     1      21.626  -0.320  53.887  1.00  0.00     0.338 N 
HETATM    9  C7  UNL     1      20.600  -0.125  52.931  1.00  0.00     0.217 A 
HETATM   10  O2  UNL     1      21.767  -0.311  52.483  1.00  0.00     0.000 OA
HETATM   11  C8  UNL     1      19.119   0.132  52.708  1.00  0.00     0.072 C 
HETATM   12  C9  UNL     1      18.915   0.204  51.213  1.00  0.00     0.006 C 
HETATM   13  C10 UNL     1      17.532   0.664  50.869  1.00  0.00     0.002 C 
HETATM   14  C11 UNL     1      17.238   2.027  51.471  1.00  0.00     0.027 C 
HETATM   15  C12 UNL     1      18.321   3.019  51.145  1.00  0.00     0.175 C 
HETATM   16  O3  UNL     1      18.594   3.171  49.777  1.00  0.00    -0.353 OA
HETATM   17  C13 UNL     1      19.750   3.917  49.433  1.00  0.00     0.077 C 
HETATM   18  C14 UNL     1      19.551   5.179  49.004  1.00  0.00     0.071 C 
HETATM   19  C15 UNL     1      20.610   6.144  48.592  1.00  0.00     0.079 C 
HETATM   20  C17 UNL     1      20.972   3.075  49.639  1.00  0.00     0.102 C 
HETATM   21  C18 UNL     1      22.234   3.757  49.242  1.00  0.00     0.187 A 
HETATM   22  N2  UNL     1      23.072   4.455  50.069  1.00  0.00    -0.260 NA
HETATM   23  C19 UNL     1      23.382   3.124  49.932  1.00  0.00     0.146 A 
HETATM   24  N3  UNL     1      24.500   2.580  50.614  1.00  0.00    -0.248 NA
HETATM   25  C20 UNL     1      25.728   2.900  50.545  1.00  0.00     0.093 C 
HETATM   26  C21 UNL     1      26.792   2.275  51.290  1.00  0.00     0.022 C 
HETATM   27  C22 UNL     1      26.594   1.246  52.146  1.00  0.00     0.075 C 
HETATM   28  H5  UNL     1      21.404  -0.313  54.931  1.00  0.00     0.366 HD
ENDROOT
BRANCH  18  29
HETATM   29  O4  UNL     1      18.234   5.614  48.942  1.00  0.00    -0.358 OA
HETATM   30  C16 UNL     1      17.649   5.904  47.698  1.00  0.00     0.209 C 
ENDBRANCH  18  29
TORSDOF 1
ENDMDL
MODEL 3
REMARK VINA RESULT:      -8.8      4.506      8.194
REMARK  1 active torsions:
REMARK  status: ('A' for Active; 'I' for Inactive)
REMARK    1  A    between atoms: C14_18  and  O4_20 
ROOT
HETATM    1  C1  UNL     1      21.710  -1.744  54.367  1.00  0.00     0.017 C 
HETATM    2  C2  UNL     1      22.085  -0.757  53.801  1.00  0.00    -0.082 C 
HETATM    3  C3  UNL     1      22.524   0.470  53.101  1.00  0.00     0.000 C 
HETATM    4  C4  UNL     1      23.788   0.351  52.796  1.00  0.00     0.017 C 
HETATM    5  C5  UNL     1      24.859   1.078  52.145  1.00  0.00     0.001 C 
HETATM    6  C6  UNL     1      25.173   2.185  51.537  1.00  0.00     0.000 C 
HETATM    7  O1  UNL     1      25.612   3.310  50.883  1.00  0.00     0.000 OA
HETATM    8  N1  UNL     1      26.289   3.198  49.648  1.00  0.00     0.338 N 
HETATM    9  C7  UNL     1      26.419   4.598  49.477  1.00  0.00     0.217 A 
HETATM   10  O2  UNL     1      25.839   4.206  50.528  1.00  0.00     0.000 OA
HETATM   11  C8  UNL     1      26.932   5.714  48.583  1.00  0.00     0.072 C 
HETATM   12  C9  UNL     1      26.588   7.012  49.275  1.00  0.00     0.006 C 
HETATM   13  C10 UNL     1      26.852   8.193  48.392  1.00  0.00     0.002 C 
HETATM   14  C11 UNL     1      26.062   8.102  47.098  1.00  0.00     0.027 C 
HETATM   15  C12 UNL     1      24.604   7.838  47.361  1.00  0.00     0.175 C 
HETATM   16  O3  UNL     1      23.979   8.756  48.217  1.00  0.00    -0.353 OA
HETATM   17  C13 UNL     1      22.677   8.425  48.672  1.00  0.00     0.077 C 
HETATM   18  C14 UNL     1      21.648   9.063  48.081  1.00  0.00     0.071 C 
HETATM   19  C15 UNL     1      20.203   8.876  48.393  1.00  0.00     0.079 C 
HETATM   20  C17 UNL     1      22.770   7.395  49.756  1.00  0.00     0.102 C 
HETATM   21  C18 UNL     1      21.451   7.030  50.341  1.00  0.00     0.187 A 
HETATM   22  N2  UNL     1      20.663   5.976  49.966  1.00  0.00    -0.260 NA
HETATM   23  C19 UNL     1      21.541   5.700  50.985  1.00  0.00     0.146 A 
HETATM   24  N3  UNL     1      21.573   4.406  51.566  1.00  0.00    -0.248 NA
HETATM   25  C20 UNL     1      20.650   3.755  52.149  1.00  0.00     0.093 C 
HETATM   26  C21 UNL     1      20.792   2.434  52.709  1.00  0.00     0.022 C 
HETATM   27  C22 UNL     1      21.953   1.741  52.688  1.00  0.00     0.075 C 
HETATM   28  H5  UNL     1      26.673   2.523  48.916  1.00  0.00     0.366 HD
ENDROOT
BRANCH  18  29
HETATM   29  O4  UNL     1      21.972   9.981  47.091  1.00  0.00    -0.358 OA
HETATM   30  C16 UNL     1      21.593   9.740  45.760  1.00  0.00     0.209 C 
ENDBRANCH  18  29
TORSDOF 1
ENDMDL
MODEL 4
REMARK VINA RESULT:      -8.7      2.286      8.806
REMARK  1 active torsions:
REMARK  status: ('A' for Active; 'I' for Inactive)
REMARK    1  A    between atoms: C14_18  and  O4_20 
ROOT
HETATM    1  C1  UNL     1      14.549  -1.570  52.257  1.00  0.00     0.017 C 
HETATM    2  C2  UNL     1      15.665  -1.137  52.290  1.00  0.00    -0.082 C 
HETATM    3  C3  UNL     1      17.038  -0.586  52.311  1.00  0.00     0.000 C 
HETATM    4  C4  UNL     1      17.779  -1.333  53.083  1.00  0.00     0.017 C 
HETATM    5  C5  UNL     1      19.139  -1.438  53.573  1.00  0.00     0.001 C 
HETATM    6  C6  UNL     1      20.323  -0.898  53.543  1.00  0.00     0.000 C 
HETATM    7  O1  UNL     1      21.606  -0.413  53.583  1.00  0.00     0.000 OA
HETATM    8  N1  UNL     1      22.700  -1.267  53.319  1.00  0.00     0.338 N 
HETATM    9  C7  UNL     1      23.665  -0.240  53.451  1.00  0.00     0.217 A 
HETATM   10  O2  UNL     1      22.458   0.090  53.624  1.00  0.00     0.000 OA
HETATM   11  C8  UNL     1      25.142   0.114  53.396  1.00  0.00     0.072 C 
HETATM   12  C9  UNL     1      25.241   1.592  53.693  1.00  0.00     0.006 C 
HETATM   13  C10 UNL     1      26.628   2.107  53.460  1.00  0.00     0.002 C 
HETATM   14  C11 UNL     1      27.074   1.864  52.029  1.00  0.00     0.027 C 
HETATM   15  C12 UNL     1      26.053   2.361  51.042  1.00  0.00     0.175 C 
HETATM   16  O3  UNL     1      25.694   3.709  51.188  1.00  0.00    -0.353 OA
HETATM   17  C13 UNL     1      24.579   4.160  50.435  1.00  0.00     0.077 C 
HETATM   18  C14 UNL     1      24.847   4.888  49.332  1.00  0.00     0.071 C 
HETATM   19  C15 UNL     1      23.842   5.463  48.394  1.00  0.00     0.079 C 
HETATM   20  C17 UNL     1      23.312   3.696  51.085  1.00  0.00     0.102 C 
HETATM   21  C18 UNL     1      22.083   4.178  50.398  1.00  0.00     0.187 A 
HETATM   22  N2  UNL     1      21.367   3.499  49.450  1.00  0.00    -0.260 NA
HETATM   23  C19 UNL     1      20.942   3.298  50.741  1.00  0.00     0.146 A 
HETATM   24  N3  UNL     1      19.837   2.449  51.002  1.00  0.00    -0.248 NA
HETATM   25  C20 UNL     1      18.637   2.528  50.591  1.00  0.00     0.093 C 
HETATM   26  C21 UNL     1      17.582   1.602  50.921  1.00  0.00     0.022 C 
HETATM   27  C22 UNL     1      17.760   0.537  51.736  1.00  0.00     0.075 C 
HETATM   28  H5  UNL     1      22.997  -2.266  53.090  1.00  0.00     0.366 HD
ENDROOT
BRANCH  18  29
HETATM   29  O4  UNL     1      26.187   5.121  49.052  1.00  0.00    -0.358 OA
HETATM   30  C16 UNL     1      26.615   6.410  48.692  1.00  0.00     0.209 C 
ENDBRANCH  18  29
TORSDOF 1
ENDMDL
MODEL 5
REMARK VINA RESULT:      -8.6      3.057      7.985
REMARK  1 active torsions:
REMARK  status: ('A' for Active; 'I' for Inactive)
REMARK    1  A    between atoms: C14_18  and  O4_20 
ROOT
HETATM    1  C1  UNL     1      19.965   9.082  46.885  1.00  0.00     0.017 C 
HETATM    2  C2  UNL     1      20.201   8.168  47.622  1.00  0.00    -0.082 C 
HETATM    3  C3  UNL     1      20.516   7.042  48.528  1.00  0.00     0.000 C 
HETATM    4  C4  UNL     1      19.401   6.479  48.905  1.00  0.00     0.017 C 
HETATM    5  C5  UNL     1      18.915   5.391  49.729  1.00  0.00     0.001 C 
HETATM    6  C6  UNL     1      19.269   4.416  50.517  1.00  0.00     0.000 C 
HETATM    7  O1  UNL     1      19.528   3.364  51.359  1.00  0.00     0.000 OA
HETATM    8  N1  UNL     1      18.967   2.092  51.105  1.00  0.00     0.338 N 
HETATM    9  C7  UNL     1      19.606   1.477  52.209  1.00  0.00     0.217 A 
HETATM   10  O2  UNL     1      19.830   2.708  52.037  1.00  0.00     0.000 OA
HETATM   11  C8  UNL     1      19.813   0.187  52.985  1.00  0.00     0.072 C 
HETATM   12  C9  UNL     1      20.749   0.516  54.124  1.00  0.00     0.006 C 
HETATM   13  C10 UNL     1      21.199  -0.720  54.839  1.00  0.00     0.002 C 
HETATM   14  C11 UNL     1      21.896  -1.683  53.893  1.00  0.00     0.027 C 
HETATM   15  C12 UNL     1      22.977  -0.994  53.104  1.00  0.00     0.175 C 
HETATM   16  O3  UNL     1      23.941  -0.329  53.874  1.00  0.00    -0.353 OA
HETATM   17  C13 UNL     1      24.843   0.518  53.180  1.00  0.00     0.077 C 
HETATM   18  C14 UNL     1      26.087   0.040  52.975  1.00  0.00     0.071 C 
HETATM   19  C15 UNL     1      27.194   0.748  52.272  1.00  0.00     0.079 C 
HETATM   20  C17 UNL     1      24.158   1.803  52.830  1.00  0.00     0.102 C 
HETATM   21  C18 UNL     1      25.050   2.783  52.152  1.00  0.00     0.187 A 
HETATM   22  N2  UNL     1      25.182   2.958  50.801  1.00  0.00    -0.260 NA
HETATM   23  C19 UNL     1      24.233   3.757  51.391  1.00  0.00     0.146 A 
HETATM   24  N3  UNL     1      23.490   4.675  50.606  1.00  0.00    -0.248 NA
HETATM   25  C20 UNL     1      23.894   5.641  49.885  1.00  0.00     0.093 C 
HETATM   26  C21 UNL     1      23.045   6.521  49.122  1.00  0.00     0.022 C 
HETATM   27  C22 UNL     1      21.695   6.420  49.108  1.00  0.00     0.075 C 
HETATM   28  H5  UNL     1      18.327   1.528  50.464  1.00  0.00     0.366 HD
ENDROOT
BRANCH  18  29
HETATM   29  O4  UNL     1      26.353  -1.230  53.468  1.00  0.00    -0.358 OA
HETATM   30  C16 UNL     1      27.044  -2.160  52.673  1.00  0.00     0.209 C 
ENDBRANCH  18  29
TORSDOF 1
ENDMDL
MODEL 6
REMARK VINA RESULT:      -8.5      3.027      6.006
REMARK  1 active torsions:
REMARK  status: ('A' for Active; 'I' for Inactive)
REMARK    1  A    between atoms: C14_18  and  O4_20 
ROOT
HETATM    1  C1  UNL     1      25.308   8.754  46.435  1.00  0.00     0.017 C 
HETATM    2  C2  UNL     1      24.945   7.813  47.080  1.00  0.00    -0.082 C 
HETATM    3  C3  UNL     1      24.473   6.654  47.869  1.00  0.00     0.000 C 
HETATM    4  C4  UNL     1      25.423   6.283  48.684  1.00  0.00     0.017 C 
HETATM    5  C5  UNL     1      25.703   5.297  49.707  1.00  0.00     0.001 C 
HETATM    6  C6  UNL     1      25.220   4.281  50.363  1.00  0.00     0.000 C 
HETATM    7  O1  UNL     1      24.812   3.206  51.112  1.00  0.00     0.000 OA
HETATM    8  N1  UNL     1      24.926   3.232  52.520  1.00  0.00     0.338 N 
HETATM    9  C7  UNL     1      24.334   1.958  52.694  1.00  0.00     0.217 A 
HETATM   10  O2  UNL     1      24.452   2.372  51.506  1.00  0.00     0.000 OA
HETATM   11  C8  UNL     1      23.895   0.900  53.692  1.00  0.00     0.072 C 
HETATM   12  C9  UNL     1      23.302  -0.232  52.886  1.00  0.00     0.006 C 
HETATM   13  C10 UNL     1      22.640  -1.246  53.767  1.00  0.00     0.002 C 
HETATM   14  C11 UNL     1      21.542  -0.614  54.607  1.00  0.00     0.027 C 
HETATM   15  C12 UNL     1      20.592   0.187  53.759  1.00  0.00     0.175 C 
HETATM   16  O3  UNL     1      20.009  -0.517  52.695  1.00  0.00    -0.353 OA
HETATM   17  C13 UNL     1      19.289   0.246  51.741  1.00  0.00     0.077 C 
HETATM   18  C14 UNL     1      17.944   0.208  51.824  1.00  0.00     0.071 C 
HETATM   19  C15 UNL     1      16.988   0.926  50.934  1.00  0.00     0.079 C 
HETATM   20  C17 UNL     1      20.249   0.942  50.825  1.00  0.00     0.102 C 
HETATM   21  C18 UNL     1      19.580   1.719  49.746  1.00  0.00     0.187 A 
HETATM   22  N2  UNL     1      19.276   3.053  49.779  1.00  0.00    -0.260 NA
HETATM   23  C19 UNL     1      20.503   2.759  49.235  1.00  0.00     0.146 A 
HETATM   24  N3  UNL     1      21.337   3.801  48.756  1.00  0.00    -0.248 NA
HETATM   25  C20 UNL     1      21.115   4.668  47.854  1.00  0.00     0.093 C 
HETATM   26  C21 UNL     1      22.042   5.692  47.440  1.00  0.00     0.022 C 
HETATM   27  C22 UNL     1      23.280   5.829  47.968  1.00  0.00     0.075 C 
HETATM   28  H5  UNL     1      25.256   3.798  53.362  1.00  0.00     0.366 HD
ENDROOT
BRANCH  18  29
HETATM   29  O4  UNL     1      17.406  -0.578  52.834  1.00  0.00    -0.358 OA
HETATM   30  C16 UNL     1      16.238  -1.323  52.599  1.00  0.00     0.209 C 
ENDBRANCH  18  29
TORSDOF 1
ENDMDL
MODEL 7
REMARK VINA RESULT:      -8.3      3.669      6.911
REMARK  1 active torsions:
REMARK  status: ('A' for Active; 'I' for Inactive)
REMARK    1  A    between atoms: C14_18  and  O4_20 
ROOT
HETATM    1  C1  UNL     1      21.310  11.286  48.216  1.00  0.00     0.017 C 
HETATM    2  C2  UNL     1      21.426  10.170  48.635  1.00  0.00    -0.082 C 
HETATM    3  C3  UNL     1      21.545   8.787  49.148  1.00  0.00     0.000 C 
HETATM    4  C4  UNL     1      22.721   8.640  49.693  1.00  0.00     0.017 C 
HETATM    5  C5  UNL     1      23.528   7.645  50.370  1.00  0.00     0.001 C 
HETATM    6  C6  UNL     1      23.561   6.415  50.796  1.00  0.00     0.000 C 
HETATM    7  O1  UNL     1      23.702   5.140  51.284  1.00  0.00     0.000 OA
HETATM    8  N1  UNL     1      24.115   4.929  52.618  1.00  0.00     0.338 N 
HETATM    9  C7  UNL     1      24.022   3.518  52.531  1.00  0.00     0.217 A 
HETATM   10  O2  UNL     1      23.730   4.172  51.491  1.00  0.00     0.000 OA
HETATM   11  C8  UNL     1      24.186   2.198  53.266  1.00  0.00     0.072 C 
HETATM   12  C9  UNL     1      23.826   1.110  52.282  1.00  0.00     0.006 C 
HETATM   13  C10 UNL     1      23.743  -0.228  52.948  1.00  0.00     0.002 C 
HETATM   14  C11 UNL     1      22.719  -0.224  54.070  1.00  0.00     0.027 C 
HETATM   15  C12 UNL     1      21.396   0.322  53.606  1.00  0.00     0.175 C 
HETATM   16  O3  UNL     1      20.848  -0.323  52.488  1.00  0.00    -0.353 OA
HETATM   17  C13 UNL     1      19.725   0.293  51.880  1.00  0.00     0.077 C 
HETATM   18  C14 UNL     1      18.520  -0.253  52.138  1.00  0.00     0.071 C 
HETATM   19  C15 UNL     1      17.209   0.223  51.614  1.00  0.00     0.079 C 
HETATM   20  C17 UNL     1      20.176   1.459  51.055  1.00  0.00     0.102 C 
HETATM   21  C18 UNL     1      19.067   2.132  50.325  1.00  0.00     0.187 A 
HETATM   22  N2  UNL     1      18.364   3.226  50.751  1.00  0.00    -0.260 NA
HETATM   23  C19 UNL     1      19.464   3.517  49.981  1.00  0.00     0.146 A 
HETATM   24  N3  UNL     1      19.785   4.866  49.682  1.00  0.00    -0.248 NA
HETATM   25  C20 UNL     1      19.098   5.750  49.081  1.00  0.00     0.093 C 
HETATM   26  C21 UNL     1      19.525   7.104  48.827  1.00  0.00     0.022 C 
HETATM   27  C22 UNL     1      20.738   7.579  49.193  1.00  0.00     0.075 C 
HETATM   28  H5  UNL     1      24.425   5.398  53.525  1.00  0.00     0.366 HD
ENDROOT
BRANCH  18  29
HETATM   29  O4  UNL     1      18.507  -1.364  52.971  1.00  0.00    -0.358 OA
HETATM   30  C16 UNL     1      17.290  -1.987  53.292  1.00  0.00     0.209 C 
ENDBRANCH  18  29
TORSDOF 1
ENDMDL
MODEL 8
REMARK VINA RESULT:      -8.2      2.236      5.313
REMARK  1 active torsions:
REMARK  status: ('A' for Active; 'I' for Inactive)
REMARK    1  A    between atoms: C14_18  and  O4_20 
ROOT
HETATM    1  C1  UNL     1      28.496   0.138  54.812  1.00  0.00     0.017 C 
HETATM    2  C2  UNL     1      27.446   0.292  54.257  1.00  0.00    -0.082 C 
HETATM    3  C3  UNL     1      26.159   0.503  53.560  1.00  0.00     0.000 C 
HETATM    4  C4  UNL     1      25.265  -0.298  54.073  1.00  0.00     0.017 C 
HETATM    5  C5  UNL     1      23.868  -0.656  53.937  1.00  0.00     0.001 C 
HETATM    6  C6  UNL     1      22.770  -0.416  53.280  1.00  0.00     0.000 C 
HETATM    7  O1  UNL     1      21.560  -0.244  52.654  1.00  0.00     0.000 OA
HETATM    8  N1  UNL     1      20.392  -0.010  53.413  1.00  0.00     0.338 N 
HETATM    9  C7  UNL     1      19.559   0.127  52.276  1.00  0.00     0.217 A 
HETATM   10  O2  UNL     1      20.780  -0.114  52.060  1.00  0.00     0.000 OA
HETATM   11  C8  UNL     1      18.150   0.392  51.773  1.00  0.00     0.072 C 
HETATM   12  C9  UNL     1      18.217   0.350  50.264  1.00  0.00     0.006 C 
HETATM   13  C10 UNL     1      16.932   0.807  49.644  1.00  0.00     0.002 C 
HETATM   14  C11 UNL     1      16.579   2.218  50.081  1.00  0.00     0.027 C 
HETATM   15  C12 UNL     1      17.734   3.161  49.881  1.00  0.00     0.175 C 
HETATM   16  O3  UNL     1      18.250   3.200  48.577  1.00  0.00    -0.353 OA
HETATM   17  C13 UNL     1      19.472   3.896  48.392  1.00  0.00     0.077 C 
HETATM   18  C14 UNL     1      19.393   5.124  47.842  1.00  0.00     0.071 C 
HETATM   19  C15 UNL     1      20.537   6.034  47.556  1.00  0.00     0.079 C 
HETATM   20  C17 UNL     1      20.610   3.051  48.876  1.00  0.00     0.102 C 
HETATM   21  C18 UNL     1      21.944   3.677  48.663  1.00  0.00     0.187 A 
HETATM   22  N2  UNL     1      22.643   4.423  49.572  1.00  0.00    -0.260 NA
HETATM   23  C19 UNL     1      22.930   3.079  49.592  1.00  0.00     0.146 A 
HETATM   24  N3  UNL     1      23.891   2.571  50.503  1.00  0.00    -0.248 NA
HETATM   25  C20 UNL     1      25.122   2.862  50.632  1.00  0.00     0.093 C 
HETATM   26  C21 UNL     1      26.017   2.279  51.599  1.00  0.00     0.022 C 
HETATM   27  C22 UNL     1      25.637   1.324  52.480  1.00  0.00     0.075 C 
HETATM   28  H5  UNL     1      19.989   0.083  54.397  1.00  0.00     0.366 HD
ENDROOT
BRANCH  18  29
HETATM   29  O4  UNL     1      18.122   5.575  47.512  1.00  0.00    -0.358 OA
HETATM   30  C16 UNL     1      17.795   5.832  46.170  1.00  0.00     0.209 C 
ENDBRANCH  18  29
TORSDOF 1
ENDMDL
MODEL 9
REMARK VINA RESULT:      -8.1      4.346      8.133
REMARK  1 active torsions:
REMARK  status: ('A' for Active; 'I' for Inactive)
REMARK    1  A    between atoms: C14_18  and  O4_20 
ROOT
HETATM    1  C1  UNL     1      22.311  -1.417  55.051  1.00  0.00     0.017 C 
HETATM    2  C2  UNL     1      22.347  -0.674  54.112  1.00  0.00    -0.082 C 
HETATM    3  C3  UNL     1      22.405   0.260  52.966  1.00  0.00     0.000 C 
HETATM    4  C4  UNL     1      21.570  -0.146  52.049  1.00  0.00     0.017 C 
HETATM    5  C5  UNL     1      21.088   0.214  50.730  1.00  0.00     0.001 C 
HETATM    6  C6  UNL     1      21.192   1.076  49.761  1.00  0.00     0.000 C 
HETATM    7  O1  UNL     1      21.222   1.924  48.682  1.00  0.00     0.000 OA
HETATM    8  N1  UNL     1      20.023   2.472  48.173  1.00  0.00     0.338 N 
HETATM    9  C7  UNL     1      20.677   3.242  47.181  1.00  0.00     0.217 A 
HETATM   10  O2  UNL     1      21.411   2.534  47.926  1.00  0.00     0.000 OA
HETATM   11  C8  UNL     1      20.506   4.231  46.039  1.00  0.00     0.072 C 
HETATM   12  C9  UNL     1      21.893   4.529  45.518  1.00  0.00     0.006 C 
HETATM   13  C10 UNL     1      21.877   5.653  44.529  1.00  0.00     0.002 C 
HETATM   14  C11 UNL     1      21.299   6.918  45.139  1.00  0.00     0.027 C 
HETATM   15  C12 UNL     1      21.964   7.252  46.447  1.00  0.00     0.175 C 
HETATM   16  O3  UNL     1      23.361   7.366  46.391  1.00  0.00    -0.353 OA
HETATM   17  C13 UNL     1      24.047   7.453  47.629  1.00  0.00     0.077 C 
HETATM   18  C14 UNL     1      24.481   8.676  47.997  1.00  0.00     0.071 C 
HETATM   19  C15 UNL     1      25.219   9.006  49.248  1.00  0.00     0.079 C 
HETATM   20  C17 UNL     1      24.129   6.095  48.255  1.00  0.00     0.102 C 
HETATM   21  C18 UNL     1      24.892   6.079  49.534  1.00  0.00     0.187 A 
HETATM   22  N2  UNL     1      24.364   6.181  50.792  1.00  0.00    -0.260 NA
HETATM   23  C19 UNL     1      24.501   4.894  50.332  1.00  0.00     0.146 A 
HETATM   24  N3  UNL     1      24.115   3.801  51.150  1.00  0.00    -0.248 NA
HETATM   25  C20 UNL     1      24.531   3.462  52.302  1.00  0.00     0.093 C 
HETATM   26  C21 UNL     1      24.066   2.321  53.051  1.00  0.00     0.022 C 
HETATM   27  C22 UNL     1      23.130   1.462  52.588  1.00  0.00     0.075 C 
HETATM   28  H5  UNL     1      18.960   2.496  48.267  1.00  0.00     0.366 HD
ENDROOT
BRANCH  18  29
HETATM   29  O4  UNL     1      24.211   9.719  47.122  1.00  0.00    -0.358 OA
HETATM   30  C16 UNL     1      25.268  10.427  46.526  1.00  0.00     0.209 C 
ENDBRANCH  18  29
TORSDOF 1
ENDMDL
