MODEL 1
REMARK VINA RESULT:      -8.7      0.000      0.000
REMARK  4 active torsions:
REMARK  status: ('A' for Active; 'I' for Inactive)
REMARK    1  A    between atoms: O1_2  and  C2_3 
REMARK    2  A    between atoms: N1_10  and  C9_11 
REMARK    3  A    between atoms: C12_16  and  N4_17 
REMARK    4  A    between atoms: N4_17  and  C13_18 
ROOT
HETATM    1  C9  UNL     1      26.139   1.117  53.453  1.00  0.00     0.121 A 
HETATM    2  C10 UNL     1      26.839   0.780  54.593  1.00  0.00     0.153 A 
HETATM    3  N2  UNL     1      28.141   1.124  54.714  1.00  0.00    -0.252 NA
HETATM    4  C11 UNL     1      28.672   1.788  53.681  1.00  0.00     0.235 A 
HETATM    5  N3  UNL     1      28.008   2.123  52.566  1.00  0.00    -0.222 NA
HETATM    6  C12 UNL     1      26.716   1.802  52.405  1.00  0.00     0.160 A 
ENDROOT
BRANCH   1   7
HETATM    7  N1  UNL     1      24.792   0.635  53.499  1.00  0.00    -0.243 N 
HETATM    8  C8  UNL     1      24.153  -0.615  53.852  1.00  0.00     0.198 A 
HETATM    9  C6  UNL     1      22.703  -0.289  53.605  1.00  0.00     0.001 A 
HETATM   10  C5  UNL     1      22.572   1.011  53.168  1.00  0.00     0.107 A 
HETATM   11  C7  UNL     1      21.641  -1.151  53.788  1.00  0.00     0.048 A 
HETATM   12  C4  UNL     1      21.292   1.451  52.906  1.00  0.00     0.043 A 
HETATM   13  O2  UNL     1      23.854   1.584  53.102  1.00  0.00    -0.234 OA
HETATM   14  C3  UNL     1      20.187   0.624  53.073  1.00  0.00     0.039 A 
HETATM   15  C2  UNL     1      20.355  -0.679  53.513  1.00  0.00     0.069 A 
BRANCH  15  16
HETATM   16  O1  UNL     1      19.326  -1.601  53.718  1.00  0.00    -0.356 OA
HETATM   17  C1  UNL     1      18.063  -1.331  53.185  1.00  0.00     0.210 C 
ENDBRANCH  15  16
ENDBRANCH   1   7
BRANCH   6  18
HETATM   18  N4  UNL     1      25.914   2.130  51.286  1.00  0.00    -0.339 N 
HETATM   19  H11 UNL     1      25.248   1.416  50.925  1.00  0.00     0.167 HD
BRANCH  18  20
HETATM   20  C13 UNL     1      25.898   3.352  50.577  1.00  0.00     0.035 A 
HETATM   21  C14 UNL     1      26.754   3.711  49.559  1.00  0.00     0.029 A 
HETATM   22  C15 UNL     1      26.731   4.903  48.885  1.00  0.00     0.004 A 
HETATM   23  C16 UNL     1      25.789   5.846  49.229  1.00  0.00     0.019 A 
HETATM   24  C17 UNL     1      24.898   5.557  50.240  1.00  0.00     0.013 A 
HETATM   25 BR1  UNL     1      23.583   6.828  50.747  1.00  0.00    -0.051 Br
HETATM   26  C18 UNL     1      24.982   4.339  50.869  1.00  0.00     0.048 A 
ENDBRANCH  18  20
ENDBRANCH   6  18
TORSDOF 4
ENDMDL
MODEL 2
REMARK VINA RESULT:      -8.7      2.559      5.851
REMARK  4 active torsions:
REMARK  status: ('A' for Active; 'I' for Inactive)
REMARK    1  A    between atoms: O1_2  and  C2_3 
REMARK    2  A    between atoms: N1_10  and  C9_11 
REMARK    3  A    between atoms: C12_16  and  N4_17 
REMARK    4  A    between atoms: N4_17  and  C13_18 
ROOT
HETATM    1  C9  UNL     1      27.113   1.514  53.114  1.00  0.00     0.121 A 
HETATM    2  C10 UNL     1      28.213   2.224  53.549  1.00  0.00     0.153 A 
HETATM    3  N2  UNL     1      29.045   1.686  54.469  1.00  0.00    -0.252 NA
HETATM    4  C11 UNL     1      28.727   0.461  54.905  1.00  0.00     0.235 A 
HETATM    5  N3  UNL     1      27.664  -0.242  54.494  1.00  0.00    -0.222 NA
HETATM    6  C12 UNL     1      26.813   0.252  53.583  1.00  0.00     0.160 A 
ENDROOT
BRANCH   1   7
HETATM    7  N1  UNL     1      26.339   2.265  52.173  1.00  0.00    -0.243 N 
HETATM    8  C8  UNL     1      26.508   2.687  50.800  1.00  0.00     0.198 A 
HETATM    9  C6  UNL     1      25.236   3.459  50.565  1.00  0.00     0.001 A 
HETATM   10  C5  UNL     1      24.454   3.447  51.700  1.00  0.00     0.107 A 
HETATM   11  C7  UNL     1      24.880   4.089  49.391  1.00  0.00     0.048 A 
HETATM   12  C4  UNL     1      23.249   4.115  51.629  1.00  0.00     0.043 A 
HETATM   13  O2  UNL     1      25.128   2.714  52.692  1.00  0.00    -0.234 OA
HETATM   14  C3  UNL     1      22.843   4.768  50.470  1.00  0.00     0.039 A 
HETATM   15  C2  UNL     1      23.654   4.759  49.347  1.00  0.00     0.069 A 
BRANCH  15  16
HETATM   16  O1  UNL     1      23.356   5.376  48.130  1.00  0.00    -0.356 OA
HETATM   17  C1  UNL     1      22.396   4.795  47.299  1.00  0.00     0.210 C 
ENDBRANCH  15  16
ENDBRANCH   1   7
BRANCH   6  18
HETATM   18  N4  UNL     1      25.679  -0.413  53.061  1.00  0.00    -0.339 N 
HETATM   19  H11 UNL     1      25.760  -0.884  52.136  1.00  0.00     0.167 HD
BRANCH  18  20
HETATM   20  C13 UNL     1      24.407  -0.532  53.664  1.00  0.00     0.035 A 
HETATM   21  C14 UNL     1      24.129  -1.169  54.853  1.00  0.00     0.029 A 
HETATM   22  C15 UNL     1      22.888  -1.284  55.422  1.00  0.00     0.004 A 
HETATM   23  C16 UNL     1      21.805  -0.730  54.778  1.00  0.00     0.019 A 
HETATM   24  C17 UNL     1      22.006  -0.077  53.581  1.00  0.00     0.013 A 
HETATM   25 BR1  UNL     1      20.541   0.700  52.658  1.00  0.00    -0.051 Br
HETATM   26  C18 UNL     1      23.280  -0.002  53.073  1.00  0.00     0.048 A 
ENDBRANCH  18  20
ENDBRANCH   6  18
TORSDOF 4
ENDMDL
MODEL 3
REMARK VINA RESULT:      -7.9      3.631      8.023
REMARK  4 active torsions:
REMARK  status: ('A' for Active; 'I' for Inactive)
REMARK    1  A    between atoms: O1_2  and  C2_3 
REMARK    2  A    between atoms: N1_10  and  C9_11 
REMARK    3  A    between atoms: C12_16  and  N4_17 
REMARK    4  A    between atoms: N4_17  and  C13_18 
ROOT
HETATM    1  C9  UNL     1      24.167   3.009  50.796  1.00  0.00     0.121 A 
HETATM    2  C10 UNL     1      23.052   2.749  50.027  1.00  0.00     0.153 A 
HETATM    3  N2  UNL     1      22.191   1.772  50.391  1.00  0.00    -0.252 NA
HETATM    4  C11 UNL     1      22.497   1.106  51.510  1.00  0.00     0.235 A 
HETATM    5  N3  UNL     1      23.575   1.344  52.269  1.00  0.00    -0.222 NA
HETATM    6  C12 UNL     1      24.455   2.304  51.945  1.00  0.00     0.160 A 
ENDROOT
BRANCH   1   7
HETATM    7  N1  UNL     1      24.970   4.048  50.227  1.00  0.00    -0.243 N 
HETATM    8  C8  UNL     1      24.839   5.479  50.055  1.00  0.00     0.198 A 
HETATM    9  C6  UNL     1      26.122   5.813  49.341  1.00  0.00     0.001 A 
HETATM   10  C5  UNL     1      26.875   4.675  49.152  1.00  0.00     0.107 A 
HETATM   11  C7  UNL     1      26.512   7.071  48.930  1.00  0.00     0.048 A 
HETATM   12  C4  UNL     1      28.086   4.832  48.510  1.00  0.00     0.043 A 
HETATM   13  O2  UNL     1      26.171   3.586  49.695  1.00  0.00    -0.234 OA
HETATM   14  C3  UNL     1      28.525   6.077  48.075  1.00  0.00     0.039 A 
HETATM   15  C2  UNL     1      27.743   7.201  48.282  1.00  0.00     0.069 A 
BRANCH  15  16
HETATM   16  O1  UNL     1      28.076   8.501  47.892  1.00  0.00    -0.356 OA
HETATM   17  C1  UNL     1      28.348   9.450  48.880  1.00  0.00     0.210 C 
ENDBRANCH  15  16
ENDBRANCH   1   7
BRANCH   6  18
HETATM   18  N4  UNL     1      25.606   2.657  52.687  1.00  0.00    -0.339 N 
HETATM   19  H11 UNL     1      25.680   3.625  53.062  1.00  0.00     0.167 HD
BRANCH  18  20
HETATM   20  C13 UNL     1      26.706   1.827  53.003  1.00  0.00     0.035 A 
HETATM   21  C14 UNL     1      27.901   2.237  53.550  1.00  0.00     0.029 A 
HETATM   22  C15 UNL     1      28.962   1.422  53.843  1.00  0.00     0.004 A 
HETATM   23  C16 UNL     1      28.860   0.074  53.580  1.00  0.00     0.019 A 
HETATM   24  C17 UNL     1      27.692  -0.409  53.032  1.00  0.00     0.013 A 
HETATM   25 BR1  UNL     1      27.509  -2.260  52.652  1.00  0.00    -0.051 Br
HETATM   26  C18 UNL     1      26.671   0.470  52.765  1.00  0.00     0.048 A 
ENDBRANCH  18  20
ENDBRANCH   6  18
TORSDOF 4
ENDMDL
MODEL 4
REMARK VINA RESULT:      -7.9      3.492      7.117
REMARK  4 active torsions:
REMARK  status: ('A' for Active; 'I' for Inactive)
REMARK    1  A    between atoms: O1_2  and  C2_3 
REMARK    2  A    between atoms: N1_10  and  C9_11 
REMARK    3  A    between atoms: C12_16  and  N4_17 
REMARK    4  A    between atoms: N4_17  and  C13_18 
ROOT
HETATM    1  C9  UNL     1      22.329   3.871  51.032  1.00  0.00     0.121 A 
HETATM    2  C10 UNL     1      22.406   5.247  51.086  1.00  0.00     0.153 A 
HETATM    3  N2  UNL     1      21.485   6.002  50.445  1.00  0.00    -0.252 NA
HETATM    4  C11 UNL     1      20.534   5.333  49.783  1.00  0.00     0.235 A 
HETATM    5  N3  UNL     1      20.444   3.997  49.719  1.00  0.00    -0.222 NA
HETATM    6  C12 UNL     1      21.336   3.211  50.339  1.00  0.00     0.160 A 
ENDROOT
BRANCH   1   7
HETATM    7  N1  UNL     1      23.411   3.254  51.738  1.00  0.00    -0.243 N 
HETATM    8  C8  UNL     1      23.990   3.382  53.057  1.00  0.00     0.198 A 
HETATM    9  C6  UNL     1      25.114   2.381  52.989  1.00  0.00     0.001 A 
HETATM   10  C5  UNL     1      25.134   1.768  51.755  1.00  0.00     0.107 A 
HETATM   11  C7  UNL     1      26.004   2.098  54.004  1.00  0.00     0.048 A 
HETATM   12  C4  UNL     1      26.113   0.818  51.551  1.00  0.00     0.043 A 
HETATM   13  O2  UNL     1      24.088   2.301  50.982  1.00  0.00    -0.234 OA
HETATM   14  C3  UNL     1      27.035   0.496  52.540  1.00  0.00     0.039 A 
HETATM   15  C2  UNL     1      26.986   1.132  53.770  1.00  0.00     0.069 A 
BRANCH  15  16
HETATM   16  O1  UNL     1      27.854   0.895  54.838  1.00  0.00    -0.356 OA
HETATM   17  C1  UNL     1      28.944   0.042  54.642  1.00  0.00     0.210 C 
ENDBRANCH  15  16
ENDBRANCH   1   7
BRANCH   6  18
HETATM   18  N4  UNL     1      21.319   1.796  50.361  1.00  0.00    -0.339 N 
HETATM   19  H11 UNL     1      21.818   1.281  49.606  1.00  0.00     0.167 HD
BRANCH  18  20
HETATM   20  C13 UNL     1      20.696   0.965  51.319  1.00  0.00     0.035 A 
HETATM   21  C14 UNL     1      19.371   0.589  51.327  1.00  0.00     0.029 A 
HETATM   22  C15 UNL     1      18.778  -0.211  52.268  1.00  0.00     0.004 A 
HETATM   23  C16 UNL     1      19.541  -0.698  53.305  1.00  0.00     0.019 A 
HETATM   24  C17 UNL     1      20.876  -0.364  53.363  1.00  0.00     0.013 A 
HETATM   25 BR1  UNL     1      21.964  -1.012  54.777  1.00  0.00    -0.051 Br
HETATM   26  C18 UNL     1      21.400   0.444  52.383  1.00  0.00     0.048 A 
ENDBRANCH  18  20
ENDBRANCH   6  18
TORSDOF 4
ENDMDL
MODEL 5
REMARK VINA RESULT:      -7.9      3.686      5.816
REMARK  4 active torsions:
REMARK  status: ('A' for Active; 'I' for Inactive)
REMARK    1  A    between atoms: O1_2  and  C2_3 
REMARK    2  A    between atoms: N1_10  and  C9_11 
REMARK    3  A    between atoms: C12_16  and  N4_17 
REMARK    4  A    between atoms: N4_17  and  C13_18 
ROOT
HETATM    1  C9  UNL     1      22.686  -0.077  53.114  1.00  0.00     0.121 A 
HETATM    2  C10 UNL     1      21.594  -0.365  53.906  1.00  0.00     0.153 A 
HETATM    3  N2  UNL     1      21.764  -0.987  55.094  1.00  0.00    -0.252 NA
HETATM    4  C11 UNL     1      23.025  -1.289  55.425  1.00  0.00     0.235 A 
HETATM    5  N3  UNL     1      24.098  -1.018  54.668  1.00  0.00    -0.222 NA
HETATM    6  C12 UNL     1      23.975  -0.401  53.484  1.00  0.00     0.160 A 
ENDROOT
BRANCH   1   7
HETATM    7  N1  UNL     1      22.298   0.546  51.886  1.00  0.00    -0.243 N 
HETATM    8  C8  UNL     1      21.222   0.373  50.934  1.00  0.00     0.198 A 
HETATM    9  C6  UNL     1      21.559   1.421  49.906  1.00  0.00     0.001 A 
HETATM   10  C5  UNL     1      22.703   2.098  50.272  1.00  0.00     0.107 A 
HETATM   11  C7  UNL     1      20.841   1.687  48.760  1.00  0.00     0.048 A 
HETATM   12  C4  UNL     1      23.131   3.096  49.422  1.00  0.00     0.043 A 
HETATM   13  O2  UNL     1      23.161   1.564  51.489  1.00  0.00    -0.234 OA
HETATM   14  C3  UNL     1      22.443   3.404  48.253  1.00  0.00     0.039 A 
HETATM   15  C2  UNL     1      21.297   2.703  47.916  1.00  0.00     0.069 A 
BRANCH  15  16
HETATM   16  O1  UNL     1      20.524   2.920  46.773  1.00  0.00    -0.356 OA
HETATM   17  C1  UNL     1      20.835   4.002  45.945  1.00  0.00     0.210 C 
ENDBRANCH  15  16
ENDBRANCH   1   7
BRANCH   6  18
HETATM   18  N4  UNL     1      25.038  -0.044  52.621  1.00  0.00    -0.339 N 
HETATM   19  H11 UNL     1      24.902  -0.148  51.594  1.00  0.00     0.167 HD
BRANCH  18  20
HETATM   20  C13 UNL     1      26.303   0.465  52.992  1.00  0.00     0.035 A 
HETATM   21  C14 UNL     1      26.611   1.789  53.213  1.00  0.00     0.029 A 
HETATM   22  C15 UNL     1      27.845   2.270  53.564  1.00  0.00     0.004 A 
HETATM   23  C16 UNL     1      28.887   1.383  53.717  1.00  0.00     0.019 A 
HETATM   24  C17 UNL     1      28.653   0.041  53.512  1.00  0.00     0.013 A 
HETATM   25 BR1  UNL     1      30.062  -1.216  53.711  1.00  0.00    -0.051 Br
HETATM   26  C18 UNL     1      27.388  -0.365  53.162  1.00  0.00     0.048 A 
ENDBRANCH  18  20
ENDBRANCH   6  18
TORSDOF 4
ENDMDL
MODEL 6
REMARK VINA RESULT:      -7.8      2.890      5.576
REMARK  4 active torsions:
REMARK  status: ('A' for Active; 'I' for Inactive)
REMARK    1  A    between atoms: O1_2  and  C2_3 
REMARK    2  A    between atoms: N1_10  and  C9_11 
REMARK    3  A    between atoms: C12_16  and  N4_17 
REMARK    4  A    between atoms: N4_17  and  C13_18 
ROOT
HETATM    1  C9  UNL     1      22.263   2.632  51.979  1.00  0.00     0.121 A 
HETATM    2  C10 UNL     1      21.204   2.289  52.792  1.00  0.00     0.153 A 
HETATM    3  N2  UNL     1      20.007   2.900  52.638  1.00  0.00    -0.252 NA
HETATM    4  C11 UNL     1      19.939   3.825  51.674  1.00  0.00     0.235 A 
HETATM    5  N3  UNL     1      20.958   4.171  50.875  1.00  0.00    -0.222 NA
HETATM    6  C12 UNL     1      22.161   3.591  50.993  1.00  0.00     0.160 A 
ENDROOT
BRANCH   1   7
HETATM    7  N1  UNL     1      23.448   1.905  52.321  1.00  0.00    -0.243 N 
HETATM    8  C8  UNL     1      23.828   0.509  52.363  1.00  0.00     0.198 A 
HETATM    9  C6  UNL     1      25.250   0.601  52.852  1.00  0.00     0.001 A 
HETATM   10  C5  UNL     1      25.604   1.918  53.047  1.00  0.00     0.107 A 
HETATM   11  C7  UNL     1      26.096  -0.465  53.074  1.00  0.00     0.048 A 
HETATM   12  C4  UNL     1      26.888   2.155  53.493  1.00  0.00     0.043 A 
HETATM   13  O2  UNL     1      24.500   2.724  52.722  1.00  0.00    -0.234 OA
HETATM   14  C3  UNL     1      27.781   1.116  53.733  1.00  0.00     0.039 A 
HETATM   15  C2  UNL     1      27.391  -0.196  53.526  1.00  0.00     0.069 A 
BRANCH  15  16
HETATM   16  O1  UNL     1      28.195  -1.320  53.731  1.00  0.00    -0.356 OA
HETATM   17  C1  UNL     1      29.581  -1.185  53.621  1.00  0.00     0.210 C 
ENDBRANCH  15  16
ENDBRANCH   1   7
BRANCH   6  18
HETATM   18  N4  UNL     1      23.293   3.859  50.187  1.00  0.00    -0.339 N 
HETATM   19  H11 UNL     1      23.590   3.143  49.492  1.00  0.00     0.167 HD
BRANCH  18  20
HETATM   20  C13 UNL     1      24.093   5.024  50.201  1.00  0.00     0.035 A 
HETATM   21  C14 UNL     1      23.827   6.182  50.897  1.00  0.00     0.029 A 
HETATM   22  C15 UNL     1      24.608   7.307  50.894  1.00  0.00     0.004 A 
HETATM   23  C16 UNL     1      25.762   7.316  50.143  1.00  0.00     0.019 A 
HETATM   24  C17 UNL     1      26.093   6.192  49.420  1.00  0.00     0.013 A 
HETATM   25 BR1  UNL     1      27.674   6.162  48.369  1.00  0.00    -0.051 Br
HETATM   26  C18 UNL     1      25.259   5.101  49.472  1.00  0.00     0.048 A 
ENDBRANCH  18  20
ENDBRANCH   6  18
TORSDOF 4
ENDMDL
MODEL 7
REMARK VINA RESULT:      -7.7      2.966      5.392
REMARK  4 active torsions:
REMARK  status: ('A' for Active; 'I' for Inactive)
REMARK    1  A    between atoms: O1_2  and  C2_3 
REMARK    2  A    between atoms: N1_10  and  C9_11 
REMARK    3  A    between atoms: C12_16  and  N4_17 
REMARK    4  A    between atoms: N4_17  and  C13_18 
ROOT
HETATM    1  C9  UNL     1      22.592   3.904  51.749  1.00  0.00     0.121 A 
HETATM    2  C10 UNL     1      21.359   3.300  51.624  1.00  0.00     0.153 A 
HETATM    3  N2  UNL     1      20.332   3.969  51.053  1.00  0.00    -0.252 NA
HETATM    4  C11 UNL     1      20.599   5.213  50.638  1.00  0.00     0.235 A 
HETATM    5  N3  UNL     1      21.791   5.816  50.751  1.00  0.00    -0.222 NA
HETATM    6  C12 UNL     1      22.836   5.188  51.310  1.00  0.00     0.160 A 
ENDROOT
BRANCH   1   7
HETATM    7  N1  UNL     1      23.533   3.051  52.409  1.00  0.00    -0.243 N 
HETATM    8  C8  UNL     1      24.732   3.248  53.195  1.00  0.00     0.198 A 
HETATM    9  C6  UNL     1      25.130   1.826  53.495  1.00  0.00     0.001 A 
HETATM   10  C5  UNL     1      24.229   0.948  52.931  1.00  0.00     0.107 A 
HETATM   11  C7  UNL     1      26.229   1.434  54.230  1.00  0.00     0.048 A 
HETATM   12  C4  UNL     1      24.466  -0.396  53.129  1.00  0.00     0.043 A 
HETATM   13  O2  UNL     1      23.245   1.697  52.262  1.00  0.00    -0.234 OA
HETATM   14  C3  UNL     1      25.561  -0.844  53.861  1.00  0.00     0.039 A 
HETATM   15  C2  UNL     1      26.446   0.066  54.414  1.00  0.00     0.069 A 
BRANCH  15  16
HETATM   16  O1  UNL     1      27.576  -0.261  55.166  1.00  0.00    -0.356 OA
HETATM   17  C1  UNL     1      28.840  -0.062  54.604  1.00  0.00     0.210 C 
ENDBRANCH  15  16
ENDBRANCH   1   7
BRANCH   6  18
HETATM   18  N4  UNL     1      24.140   5.718  51.454  1.00  0.00    -0.339 N 
HETATM   19  H11 UNL     1      24.418   6.113  52.376  1.00  0.00     0.167 HD
BRANCH  18  20
HETATM   20  C13 UNL     1      25.153   5.772  50.470  1.00  0.00     0.035 A 
HETATM   21  C14 UNL     1      25.714   4.693  49.824  1.00  0.00     0.029 A 
HETATM   22  C15 UNL     1      26.702   4.759  48.878  1.00  0.00     0.004 A 
HETATM   23  C16 UNL     1      27.199   5.991  48.518  1.00  0.00     0.019 A 
HETATM   24  C17 UNL     1      26.685   7.117  49.122  1.00  0.00     0.013 A 
HETATM   25 BR1  UNL     1      27.342   8.837  48.656  1.00  0.00    -0.051 Br
HETATM   26  C18 UNL     1      25.695   6.971  50.063  1.00  0.00     0.048 A 
ENDBRANCH  18  20
ENDBRANCH   6  18
TORSDOF 4
ENDMDL
MODEL 8
REMARK VINA RESULT:      -7.5      2.834      5.297
REMARK  4 active torsions:
REMARK  status: ('A' for Active; 'I' for Inactive)
REMARK    1  A    between atoms: O1_2  and  C2_3 
REMARK    2  A    between atoms: N1_10  and  C9_11 
REMARK    3  A    between atoms: C12_16  and  N4_17 
REMARK    4  A    between atoms: N4_17  and  C13_18 
ROOT
HETATM    1  C9  UNL     1      21.492   2.673  51.621  1.00  0.00     0.121 A 
HETATM    2  C10 UNL     1      20.482   2.633  52.560  1.00  0.00     0.153 A 
HETATM    3  N2  UNL     1      19.320   3.286  52.334  1.00  0.00    -0.252 NA
HETATM    4  C11 UNL     1      19.234   3.948  51.174  1.00  0.00     0.235 A 
HETATM    5  N3  UNL     1      20.204   4.000  50.251  1.00  0.00    -0.222 NA
HETATM    6  C12 UNL     1      21.372   3.366  50.434  1.00  0.00     0.160 A 
ENDROOT
BRANCH   1   7
HETATM    7  N1  UNL     1      22.649   1.955  52.059  1.00  0.00    -0.243 N 
HETATM    8  C8  UNL     1      23.079   0.574  52.034  1.00  0.00     0.198 A 
HETATM    9  C6  UNL     1      24.418   0.664  52.719  1.00  0.00     0.001 A 
HETATM   10  C5  UNL     1      24.686   1.968  53.073  1.00  0.00     0.107 A 
HETATM   11  C7  UNL     1      25.271  -0.392  52.963  1.00  0.00     0.048 A 
HETATM   12  C4  UNL     1      25.887   2.203  53.709  1.00  0.00     0.043 A 
HETATM   13  O2  UNL     1      23.602   2.767  52.669  1.00  0.00    -0.234 OA
HETATM   14  C3  UNL     1      26.783   1.174  53.980  1.00  0.00     0.039 A 
HETATM   15  C2  UNL     1      26.481  -0.126  53.610  1.00  0.00     0.069 A 
BRANCH  15  16
HETATM   16  O1  UNL     1      27.297  -1.238  53.827  1.00  0.00    -0.356 OA
HETATM   17  C1  UNL     1      27.378  -2.217  52.833  1.00  0.00     0.210 C 
ENDBRANCH  15  16
ENDBRANCH   1   7
BRANCH   6  18
HETATM   18  N4  UNL     1      22.448   3.330  49.517  1.00  0.00    -0.339 N 
HETATM   19  H11 UNL     1      22.403   2.661  48.721  1.00  0.00     0.167 HD
BRANCH  18  20
HETATM   20  C13 UNL     1      23.616   4.126  49.541  1.00  0.00     0.035 A 
HETATM   21  C14 UNL     1      24.909   3.673  49.404  1.00  0.00     0.029 A 
HETATM   22  C15 UNL     1      26.033   4.455  49.437  1.00  0.00     0.004 A 
HETATM   23  C16 UNL     1      25.896   5.812  49.624  1.00  0.00     0.019 A 
HETATM   24  C17 UNL     1      24.631   6.338  49.769  1.00  0.00     0.013 A 
HETATM   25 BR1  UNL     1      24.395   8.204  50.029  1.00  0.00    -0.051 Br
HETATM   26  C18 UNL     1      23.551   5.490  49.724  1.00  0.00     0.048 A 
ENDBRANCH  18  20
ENDBRANCH   6  18
TORSDOF 4
ENDMDL
MODEL 9
REMARK VINA RESULT:      -7.5      2.611      4.651
REMARK  4 active torsions:
REMARK  status: ('A' for Active; 'I' for Inactive)
REMARK    1  A    between atoms: O1_2  and  C2_3 
REMARK    2  A    between atoms: N1_10  and  C9_11 
REMARK    3  A    between atoms: C12_16  and  N4_17 
REMARK    4  A    between atoms: N4_17  and  C13_18 
ROOT
HETATM    1  C9  UNL     1      23.641   2.725  50.776  1.00  0.00     0.121 A 
HETATM    2  C10 UNL     1      23.258   3.251  49.560  1.00  0.00     0.153 A 
HETATM    3  N2  UNL     1      24.096   4.064  48.879  1.00  0.00    -0.252 NA
HETATM    4  C11 UNL     1      25.279   4.306  49.457  1.00  0.00     0.235 A 
HETATM    5  N3  UNL     1      25.668   3.805  50.637  1.00  0.00    -0.222 NA
HETATM    6  C12 UNL     1      24.868   2.994  51.346  1.00  0.00     0.160 A 
ENDROOT
BRANCH   1   7
HETATM    7  N1  UNL     1      22.606   1.924  51.355  1.00  0.00    -0.243 N 
HETATM    8  C8  UNL     1      21.160   1.916  51.313  1.00  0.00     0.198 A 
HETATM    9  C6  UNL     1      20.840   0.755  52.218  1.00  0.00     0.001 A 
HETATM   10  C5  UNL     1      22.002   0.188  52.696  1.00  0.00     0.107 A 
HETATM   11  C7  UNL     1      19.576   0.303  52.533  1.00  0.00     0.048 A 
HETATM   12  C4  UNL     1      21.862  -0.895  53.538  1.00  0.00     0.043 A 
HETATM   13  O2  UNL     1      23.091   0.903  52.167  1.00  0.00    -0.234 OA
HETATM   14  C3  UNL     1      20.611  -1.391  53.888  1.00  0.00     0.039 A 
HETATM   15  C2  UNL     1      19.463  -0.796  53.389  1.00  0.00     0.069 A 
BRANCH  15  16
HETATM   16  O1  UNL     1      18.156  -1.202  53.668  1.00  0.00    -0.356 OA
HETATM   17  C1  UNL     1      17.853  -2.565  53.632  1.00  0.00     0.210 C 
ENDBRANCH  15  16
ENDBRANCH   1   7
BRANCH   6  18
HETATM   18  N4  UNL     1      25.188   2.389  52.584  1.00  0.00    -0.339 N 
HETATM   19  H11 UNL     1      24.503   2.459  53.364  1.00  0.00     0.167 HD
BRANCH  18  20
HETATM   20  C13 UNL     1      26.360   1.667  52.902  1.00  0.00     0.035 A 
HETATM   21  C14 UNL     1      27.523   2.195  53.417  1.00  0.00     0.029 A 
HETATM   22  C15 UNL     1      28.656   1.484  53.714  1.00  0.00     0.004 A 
HETATM   23  C16 UNL     1      28.668   0.126  53.490  1.00  0.00     0.019 A 
HETATM   24  C17 UNL     1      27.539  -0.473  52.975  1.00  0.00     0.013 A 
HETATM   25 BR1  UNL     1      27.513  -2.343  52.649  1.00  0.00    -0.051 Br
HETATM   26  C18 UNL     1      26.441   0.306  52.703  1.00  0.00     0.048 A 
ENDBRANCH  18  20
ENDBRANCH   6  18
TORSDOF 4
ENDMDL
