MODEL 1
REMARK VINA RESULT:      -9.5      0.000      0.000
REMARK  3 active torsions:
REMARK  status: ('A' for Active; 'I' for Inactive)
REMARK    1  A    between atoms: N1_2  and  C2_3 
REMARK    2  A    between atoms: C2_3  and  C3_4 
REMARK    3  A    between atoms: C3_4  and  C4_5 
ROOT
HETATM    1  C4  UNL     1      25.679   1.045  52.460  1.00  0.00     0.111 C 
HETATM    2  C5  UNL     1      25.497   2.066  51.412  1.00  0.00     0.029 C 
HETATM    3  C6  UNL     1      26.708   2.584  50.704  1.00  0.00     0.022 C 
HETATM    4  C7  UNL     1      26.306   3.768  49.795  1.00  0.00     0.121 C 
HETATM    5  N2  UNL     1      25.765   4.840  50.601  1.00  0.00    -0.374 N 
HETATM    6  C8  UNL     1      25.178   6.099  50.276  1.00  0.00     0.132 A 
HETATM    7  N3  UNL     1      26.089   6.818  49.599  1.00  0.00    -0.224 NA
HETATM    8  C9  UNL     1      25.756   8.077  49.169  1.00  0.00     0.234 A 
HETATM    9  N4  UNL     1      24.543   8.603  49.408  1.00  0.00    -0.253 NA
HETATM   10  C10 UNL     1      23.660   7.853  50.087  1.00  0.00     0.129 A 
HETATM   11  C11 UNL     1      23.896   6.579  50.563  1.00  0.00     0.009 A 
HETATM   12  C12 UNL     1      23.004   5.711  51.316  1.00  0.00     0.080 C 
HETATM   13  P1  UNL     1      21.906   4.724  50.204  1.00  0.00    -0.088 P 
HETATM   14  C13 UNL     1      20.572   3.926  51.204  1.00  0.00    -0.009 C 
HETATM   15  C14 UNL     1      19.284   4.140  51.292  1.00  0.00     0.012 C 
HETATM   16  C15 UNL     1      18.892   2.801  51.676  1.00  0.00     0.109 C 
HETATM   17  C16 UNL     1      19.323   1.701  50.775  1.00  0.00     0.056 C 
HETATM   18  C17 UNL     1      18.592   0.448  50.982  1.00  0.00    -0.024 C 
HETATM   19  C18 UNL     1      19.301  -0.305  51.858  1.00  0.00    -0.001 C 
HETATM   20  C19 UNL     1      20.531  -0.109  52.609  1.00  0.00     0.037 C 
HETATM   21  C20 UNL     1      21.563   0.615  53.000  1.00  0.00     0.079 C 
HETATM   22  C21 UNL     1      21.944   2.027  52.690  1.00  0.00     0.067 C 
HETATM   23  C22 UNL     1      21.312   2.964  51.981  1.00  0.00     0.042 C 
HETATM   24  N5  UNL     1      20.033   2.569  52.710  1.00  0.00    -0.381 N 
HETATM   25  O1  UNL     1      22.570   0.171  53.832  1.00  0.00    -0.304 OA
HETATM   26  C23 UNL     1      23.781  -0.254  53.231  1.00  0.00     0.253 C 
HETATM   27  N6  UNL     1      24.339   0.873  53.070  1.00  0.00    -0.273 NA
HETATM   28  H16 UNL     1      25.661   5.001  51.624  1.00  0.00     0.161 HD
HETATM   29  H21 UNL     1      22.693   3.787  49.457  1.00  0.00     0.063 HD
HETATM   30  H30 UNL     1      19.627   2.210  53.634  1.00  0.00     0.160 HD
ENDROOT
BRANCH   1  31
HETATM   31  C3  UNL     1      26.291  -0.245  52.150  1.00  0.00     0.057 C 
BRANCH  31  32
HETATM   32  C2  UNL     1      27.435  -0.744  52.954  1.00  0.00     0.271 C 
BRANCH  32  33
HETATM   33  N1  UNL     1      27.259  -0.320  54.341  1.00  0.00     0.079 N 
HETATM   34  C1  UNL     1      28.523   0.149  54.882  1.00  0.00     0.306 C 
HETATM   35  H4  UNL     1      26.950  -1.112  54.934  1.00  0.00     0.315 HD
ENDBRANCH  32  33
ENDBRANCH  31  32
ENDBRANCH   1  31
TORSDOF 3
ENDMDL
MODEL 2
REMARK VINA RESULT:      -8.8      2.176      6.392
REMARK  3 active torsions:
REMARK  status: ('A' for Active; 'I' for Inactive)
REMARK    1  A    between atoms: N1_2  and  C2_3 
REMARK    2  A    between atoms: C2_3  and  C3_4 
REMARK    3  A    between atoms: C3_4  and  C4_5 
ROOT
HETATM    1  C4  UNL     1      24.855   0.578  52.684  1.00  0.00     0.111 C 
HETATM    2  C5  UNL     1      23.458   0.662  53.149  1.00  0.00     0.029 C 
HETATM    3  C6  UNL     1      22.971  -0.357  54.128  1.00  0.00     0.022 C 
HETATM    4  C7  UNL     1      21.446  -0.193  54.324  1.00  0.00     0.121 C 
HETATM    5  N2  UNL     1      20.766  -0.417  53.069  1.00  0.00    -0.374 N 
HETATM    6  C8  UNL     1      19.399  -0.313  52.671  1.00  0.00     0.132 A 
HETATM    7  N3  UNL     1      18.683  -1.166  53.424  1.00  0.00    -0.224 NA
HETATM    8  C9  UNL     1      17.328  -1.246  53.231  1.00  0.00     0.234 A 
HETATM    9  N4  UNL     1      16.704  -0.493  52.310  1.00  0.00    -0.253 NA
HETATM   10  C10 UNL     1      17.454   0.347  51.577  1.00  0.00     0.129 A 
HETATM   11  C11 UNL     1      18.820   0.501  51.693  1.00  0.00     0.009 A 
HETATM   12  C12 UNL     1      19.704   1.372  50.932  1.00  0.00     0.080 C 
HETATM   13  P1  UNL     1      19.793   3.067  51.664  1.00  0.00    -0.088 P 
HETATM   14  C13 UNL     1      20.626   4.209  50.474  1.00  0.00    -0.009 C 
HETATM   15  C14 UNL     1      20.185   5.201  49.741  1.00  0.00     0.012 C 
HETATM   16  C15 UNL     1      21.420   5.950  49.666  1.00  0.00     0.109 C 
HETATM   17  C16 UNL     1      22.056   6.311  50.960  1.00  0.00     0.056 C 
HETATM   18  C17 UNL     1      23.059   7.373  50.848  1.00  0.00    -0.024 C 
HETATM   19  C18 UNL     1      24.269   6.785  50.683  1.00  0.00    -0.001 C 
HETATM   20  C19 UNL     1      24.726   5.409  50.563  1.00  0.00     0.037 C 
HETATM   21  C20 UNL     1      24.520   4.108  50.483  1.00  0.00     0.079 C 
HETATM   22  C21 UNL     1      23.252   3.315  50.469  1.00  0.00     0.067 C 
HETATM   23  C22 UNL     1      21.978   3.711  50.472  1.00  0.00     0.042 C 
HETATM   24  N5  UNL     1      22.354   4.731  49.404  1.00  0.00    -0.381 N 
HETATM   25  O1  UNL     1      25.513   3.155  50.394  1.00  0.00    -0.304 OA
HETATM   26  C23 UNL     1      25.885   2.479  51.582  1.00  0.00     0.253 C 
HETATM   27  N6  UNL     1      24.971   1.600  51.617  1.00  0.00    -0.273 NA
HETATM   28  H16 UNL     1      21.068  -0.722  52.120  1.00  0.00     0.161 HD
HETATM   29  H21 UNL     1      20.441   3.008  52.941  1.00  0.00     0.063 HD
HETATM   30  H30 UNL     1      22.989   4.926  48.564  1.00  0.00     0.160 HD
ENDROOT
BRANCH   1  31
HETATM   31  C3  UNL     1      25.965   0.670  53.630  1.00  0.00     0.057 C 
BRANCH  31  32
HETATM   32  C2  UNL     1      26.917  -0.460  53.780  1.00  0.00     0.271 C 
BRANCH  32  33
HETATM   33  N1  UNL     1      27.753  -0.221  54.953  1.00  0.00     0.079 N 
HETATM   34  C1  UNL     1      28.937   0.532  54.575  1.00  0.00     0.306 C 
HETATM   35  H4  UNL     1      28.081  -1.116  55.363  1.00  0.00     0.315 HD
ENDBRANCH  32  33
ENDBRANCH  31  32
ENDBRANCH   1  31
TORSDOF 3
ENDMDL
MODEL 3
REMARK VINA RESULT:      -8.8      2.259      6.484
REMARK  3 active torsions:
REMARK  status: ('A' for Active; 'I' for Inactive)
REMARK    1  A    between atoms: N1_2  and  C2_3 
REMARK    2  A    between atoms: C2_3  and  C3_4 
REMARK    3  A    between atoms: C3_4  and  C4_5 
ROOT
HETATM    1  C4  UNL     1      20.779   0.646  53.379  1.00  0.00     0.111 C 
HETATM    2  C5  UNL     1      22.191   0.322  53.105  1.00  0.00     0.029 C 
HETATM    3  C6  UNL     1      22.764  -0.926  53.696  1.00  0.00     0.022 C 
HETATM    4  C7  UNL     1      24.288  -0.963  53.441  1.00  0.00     0.121 C 
HETATM    5  N2  UNL     1      24.919   0.167  54.084  1.00  0.00    -0.374 N 
HETATM    6  C8  UNL     1      26.260   0.653  54.100  1.00  0.00     0.132 A 
HETATM    7  N3  UNL     1      27.044  -0.311  54.612  1.00  0.00    -0.224 NA
HETATM    8  C9  UNL     1      28.391  -0.082  54.727  1.00  0.00     0.234 A 
HETATM    9  N4  UNL     1      28.941   1.081  54.339  1.00  0.00    -0.253 NA
HETATM   10  C10 UNL     1      28.125   2.020  53.833  1.00  0.00     0.129 A 
HETATM   11  C11 UNL     1      26.760   1.889  53.676  1.00  0.00     0.009 A 
HETATM   12  C12 UNL     1      25.808   2.857  53.154  1.00  0.00     0.080 C 
HETATM   13  P1  UNL     1      25.684   2.772  51.311  1.00  0.00    -0.088 P 
HETATM   14  C13 UNL     1      24.752   4.241  50.687  1.00  0.00    -0.009 C 
HETATM   15  C14 UNL     1      25.118   5.302  50.013  1.00  0.00     0.012 C 
HETATM   16  C15 UNL     1      23.852   5.568  49.368  1.00  0.00     0.109 C 
HETATM   17  C16 UNL     1      23.262   4.452  48.582  1.00  0.00     0.056 C 
HETATM   18  C17 UNL     1      22.213   4.877  47.652  1.00  0.00    -0.024 C 
HETATM   19  C18 UNL     1      21.021   4.752  48.285  1.00  0.00    -0.001 C 
HETATM   20  C19 UNL     1      20.615   4.349  49.623  1.00  0.00     0.037 C 
HETATM   21  C20 UNL     1      20.870   3.973  50.862  1.00  0.00     0.079 C 
HETATM   22  C21 UNL     1      22.167   3.777  51.580  1.00  0.00     0.067 C 
HETATM   23  C22 UNL     1      23.422   3.988  51.183  1.00  0.00     0.042 C 
HETATM   24  N5  UNL     1      22.957   5.325  50.619  1.00  0.00    -0.381 N 
HETATM   25  O1  UNL     1      19.913   3.660  51.806  1.00  0.00    -0.304 OA
HETATM   26  C23 UNL     1      19.623   2.290  52.020  1.00  0.00     0.253 C 
HETATM   27  N6  UNL     1      20.573   1.998  52.809  1.00  0.00    -0.273 NA
HETATM   28  H16 UNL     1      24.585   0.926  54.714  1.00  0.00     0.161 HD
HETATM   29  H21 UNL     1      25.098   1.523  50.925  1.00  0.00     0.063 HD
HETATM   30  H30 UNL     1      22.277   6.142  50.751  1.00  0.00     0.160 HD
ENDROOT
BRANCH   1  31
HETATM   31  C3  UNL     1      19.710  -0.268  52.980  1.00  0.00     0.057 C 
BRANCH  31  32
HETATM   32  C2  UNL     1      19.362  -1.432  53.833  1.00  0.00     0.271 C 
BRANCH  32  33
HETATM   33  N1  UNL     1      17.911  -1.602  53.833  1.00  0.00     0.079 N 
HETATM   34  C1  UNL     1      17.328  -0.895  52.705  1.00  0.00     0.306 C 
HETATM   35  H4  UNL     1      17.492  -1.201  54.693  1.00  0.00     0.315 HD
ENDBRANCH  32  33
ENDBRANCH  31  32
ENDBRANCH   1  31
TORSDOF 3
ENDMDL
MODEL 4
REMARK VINA RESULT:      -8.2      1.873      5.946
REMARK  3 active torsions:
REMARK  status: ('A' for Active; 'I' for Inactive)
REMARK    1  A    between atoms: N1_2  and  C2_3 
REMARK    2  A    between atoms: C2_3  and  C3_4 
REMARK    3  A    between atoms: C3_4  and  C4_5 
ROOT
HETATM    1  C4  UNL     1      20.784   2.836  51.350  1.00  0.00     0.111 C 
HETATM    2  C5  UNL     1      21.994   3.677  51.319  1.00  0.00     0.029 C 
HETATM    3  C6  UNL     1      21.870   5.087  50.836  1.00  0.00     0.022 C 
HETATM    4  C7  UNL     1      23.278   5.712  50.708  1.00  0.00     0.121 C 
HETATM    5  N2  UNL     1      24.054   4.973  49.738  1.00  0.00    -0.374 N 
HETATM    6  C8  UNL     1      25.410   5.066  49.304  1.00  0.00     0.132 A 
HETATM    7  N3  UNL     1      25.598   6.295  48.793  1.00  0.00    -0.224 NA
HETATM    8  C9  UNL     1      26.837   6.631  48.309  1.00  0.00     0.234 A 
HETATM    9  N4  UNL     1      27.860   5.761  48.335  1.00  0.00    -0.253 NA
HETATM   10  C10 UNL     1      27.632   4.542  48.852  1.00  0.00     0.129 A 
HETATM   11  C11 UNL     1      26.426   4.107  49.363  1.00  0.00     0.009 A 
HETATM   12  C12 UNL     1      26.094   2.806  49.924  1.00  0.00     0.080 C 
HETATM   13  P1  UNL     1      26.503   2.711  51.724  1.00  0.00    -0.088 P 
HETATM   14  C13 UNL     1      26.399   0.954  52.288  1.00  0.00    -0.009 C 
HETATM   15  C14 UNL     1      27.309   0.085  52.650  1.00  0.00     0.012 C 
HETATM   16  C15 UNL     1      26.480  -0.707  53.532  1.00  0.00     0.109 C 
HETATM   17  C16 UNL     1      25.788   0.025  54.625  1.00  0.00     0.056 C 
HETATM   18  C17 UNL     1      25.294  -0.845  55.695  1.00  0.00    -0.024 C 
HETATM   19  C18 UNL     1      24.008  -1.164  55.410  1.00  0.00    -0.001 C 
HETATM   20  C19 UNL     1      23.104  -0.868  54.308  1.00  0.00     0.037 C 
HETATM   21  C20 UNL     1      22.824  -0.339  53.132  1.00  0.00     0.079 C 
HETATM   22  C21 UNL     1      23.683   0.406  52.162  1.00  0.00     0.067 C 
HETATM   23  C22 UNL     1      24.986   0.688  52.191  1.00  0.00     0.042 C 
HETATM   24  N5  UNL     1      25.230  -0.758  52.605  1.00  0.00    -0.381 N 
HETATM   25  O1  UNL     1      21.585  -0.372  52.527  1.00  0.00    -0.304 OA
HETATM   26  C23 UNL     1      20.767   0.780  52.639  1.00  0.00     0.253 C 
HETATM   27  N6  UNL     1      21.264   1.479  51.704  1.00  0.00    -0.273 NA
HETATM   28  H16 UNL     1      23.848   4.188  49.085  1.00  0.00     0.161 HD
HETATM   29  H21 UNL     1      25.646   3.594  52.460  1.00  0.00     0.063 HD
HETATM   30  H30 UNL     1      24.887  -1.768  52.503  1.00  0.00     0.160 HD
ENDROOT
BRANCH   1  31
HETATM   31  C3  UNL     1      19.627   3.218  52.159  1.00  0.00     0.057 C 
BRANCH  31  32
HETATM   32  C2  UNL     1      18.317   3.483  51.513  1.00  0.00     0.271 C 
BRANCH  32  33
HETATM   33  N1  UNL     1      18.498   3.495  50.064  1.00  0.00     0.079 N 
HETATM   34  C1  UNL     1      18.298   4.839  49.549  1.00  0.00     0.306 C 
HETATM   35  H4  UNL     1      17.800   2.885  49.598  1.00  0.00     0.315 HD
ENDBRANCH  32  33
ENDBRANCH  31  32
ENDBRANCH   1  31
TORSDOF 3
ENDMDL
MODEL 5
REMARK VINA RESULT:      -7.8      7.100     10.415
REMARK  3 active torsions:
REMARK  status: ('A' for Active; 'I' for Inactive)
REMARK    1  A    between atoms: N1_2  and  C2_3 
REMARK    2  A    between atoms: C2_3  and  C3_4 
REMARK    3  A    between atoms: C3_4  and  C4_5 
ROOT
HETATM    1  C4  UNL     1      32.708   6.278  45.553  1.00  0.00     0.111 C 
HETATM    2  C5  UNL     1      32.030   7.433  44.937  1.00  0.00     0.029 C 
HETATM    3  C6  UNL     1      32.632   8.042  43.712  1.00  0.00     0.022 C 
HETATM    4  C7  UNL     1      31.871   9.340  43.356  1.00  0.00     0.121 C 
HETATM    5  N2  UNL     1      31.997  10.292  44.437  1.00  0.00    -0.374 N 
HETATM    6  C8  UNL     1      31.437  11.584  44.664  1.00  0.00     0.132 A 
HETATM    7  N3  UNL     1      31.832  12.388  43.662  1.00  0.00    -0.224 NA
HETATM    8  C9  UNL     1      31.415  13.695  43.655  1.00  0.00     0.234 A 
HETATM    9  N4  UNL     1      30.622  14.184  44.624  1.00  0.00    -0.253 NA
HETATM   10  C10 UNL     1      30.249  13.349  45.607  1.00  0.00     0.129 A 
HETATM   11  C11 UNL     1      30.614  12.022  45.706  1.00  0.00     0.009 A 
HETATM   12  C12 UNL     1      30.268  11.059  46.741  1.00  0.00     0.080 C 
HETATM   13  P1  UNL     1      28.648  10.236  46.398  1.00  0.00    -0.088 P 
HETATM   14  C13 UNL     1      28.097   9.310  47.899  1.00  0.00    -0.009 C 
HETATM   15  C14 UNL     1      27.130   9.510  48.758  1.00  0.00     0.012 C 
HETATM   16  C15 UNL     1      26.930   8.132  49.149  1.00  0.00     0.109 C 
HETATM   17  C16 UNL     1      26.657   7.165  48.054  1.00  0.00     0.056 C 
HETATM   18  C17 UNL     1      26.087   5.897  48.516  1.00  0.00    -0.024 C 
HETATM   19  C18 UNL     1      27.110   5.030  48.711  1.00  0.00    -0.001 C 
HETATM   20  C19 UNL     1      28.558   5.120  48.601  1.00  0.00     0.037 C 
HETATM   21  C20 UNL     1      29.678   5.782  48.380  1.00  0.00     0.079 C 
HETATM   22  C21 UNL     1      29.918   7.223  48.062  1.00  0.00     0.067 C 
HETATM   23  C22 UNL     1      29.070   8.249  47.974  1.00  0.00     0.042 C 
HETATM   24  N5  UNL     1      28.437   7.759  49.271  1.00  0.00    -0.381 N 
HETATM   25  O1  UNL     1      30.941   5.227  48.397  1.00  0.00    -0.304 OA
HETATM   26  C23 UNL     1      31.527   4.887  47.153  1.00  0.00     0.253 C 
HETATM   27  N6  UNL     1      31.975   6.026  46.816  1.00  0.00    -0.273 NA
HETATM   28  H16 UNL     1      32.528  10.311  45.332  1.00  0.00     0.161 HD
HETATM   29  H21 UNL     1      28.766   9.409  45.233  1.00  0.00     0.063 HD
HETATM   30  H30 UNL     1      28.624   7.277  50.209  1.00  0.00     0.160 HD
ENDROOT
BRANCH   1  31
HETATM   31  C3  UNL     1      32.913   5.041  44.801  1.00  0.00     0.057 C 
BRANCH  31  32
HETATM   32  C2  UNL     1      34.250   4.397  44.769  1.00  0.00     0.271 C 
BRANCH  32  33
HETATM   33  N1  UNL     1      34.944   4.684  46.023  1.00  0.00     0.079 N 
HETATM   34  C1  UNL     1      34.986   3.492  46.852  1.00  0.00     0.306 C 
HETATM   35  H4  UNL     1      34.443   5.414  46.564  1.00  0.00     0.315 HD
ENDBRANCH  32  33
ENDBRANCH  31  32
ENDBRANCH   1  31
TORSDOF 3
ENDMDL
MODEL 6
REMARK VINA RESULT:      -7.7      5.643     10.485
REMARK  3 active torsions:
REMARK  status: ('A' for Active; 'I' for Inactive)
REMARK    1  A    between atoms: N1_2  and  C2_3 
REMARK    2  A    between atoms: C2_3  and  C3_4 
REMARK    3  A    between atoms: C3_4  and  C4_5 
ROOT
HETATM    1  C4  UNL     1      26.617   6.586  49.234  1.00  0.00     0.111 C 
HETATM    2  C5  UNL     1      27.921   6.497  48.553  1.00  0.00     0.029 C 
HETATM    3  C6  UNL     1      28.478   5.143  48.253  1.00  0.00     0.022 C 
HETATM    4  C7  UNL     1      29.921   5.287  47.717  1.00  0.00     0.121 C 
HETATM    5  N2  UNL     1      30.756   5.901  48.725  1.00  0.00    -0.374 N 
HETATM    6  C8  UNL     1      32.116   6.333  48.729  1.00  0.00     0.132 A 
HETATM    7  N3  UNL     1      32.890   5.264  48.474  1.00  0.00    -0.224 NA
HETATM    8  C9  UNL     1      34.251   5.427  48.421  1.00  0.00     0.234 A 
HETATM    9  N4  UNL     1      34.823   6.627  48.616  1.00  0.00    -0.253 NA
HETATM   10  C10 UNL     1      34.015   7.670  48.869  1.00  0.00     0.129 A 
HETATM   11  C11 UNL     1      32.639   7.612  48.944  1.00  0.00     0.009 A 
HETATM   12  C12 UNL     1      31.698   8.686  49.226  1.00  0.00     0.080 C 
HETATM   13  P1  UNL     1      31.235   9.612  47.695  1.00  0.00    -0.088 P 
HETATM   14  C13 UNL     1      30.340  11.161  48.158  1.00  0.00    -0.009 C 
HETATM   15  C14 UNL     1      30.671  12.427  48.101  1.00  0.00     0.012 C 
HETATM   16  C15 UNL     1      29.337  12.970  47.969  1.00  0.00     0.109 C 
HETATM   17  C16 UNL     1      28.517  12.446  46.845  1.00  0.00     0.056 C 
HETATM   18  C17 UNL     1      27.359  13.283  46.520  1.00  0.00    -0.024 C 
HETATM   19  C18 UNL     1      26.296  12.805  47.212  1.00  0.00    -0.001 C 
HETATM   20  C19 UNL     1      26.105  11.730  48.174  1.00  0.00     0.037 C 
HETATM   21  C20 UNL     1      26.546  10.748  48.937  1.00  0.00     0.079 C 
HETATM   22  C21 UNL     1      27.929  10.225  49.160  1.00  0.00     0.067 C 
HETATM   23  C22 UNL     1      29.105  10.648  48.696  1.00  0.00     0.042 C 
HETATM   24  N5  UNL     1      28.667  12.065  49.044  1.00  0.00    -0.381 N 
HETATM   25  O1  UNL     1      25.752   9.950  49.735  1.00  0.00    -0.304 OA
HETATM   26  C23 UNL     1      25.385   8.677  49.233  1.00  0.00     0.253 C 
HETATM   27  N6  UNL     1      26.432   8.026  49.533  1.00  0.00    -0.273 NA
HETATM   28  H16 UNL     1      30.611   6.188  49.715  1.00  0.00     0.161 HD
HETATM   29  H21 UNL     1      30.480   8.759  46.825  1.00  0.00     0.063 HD
HETATM   30  H30 UNL     1      28.097  12.663  49.727  1.00  0.00     0.160 HD
ENDROOT
BRANCH   1  31
HETATM   31  C3  UNL     1      25.416   6.010  48.631  1.00  0.00     0.057 C 
BRANCH  31  32
HETATM   32  C2  UNL     1      24.446   5.257  49.466  1.00  0.00     0.271 C 
BRANCH  32  33
HETATM   33  N1  UNL     1      24.849   5.358  50.867  1.00  0.00     0.079 N 
HETATM   34  C1  UNL     1      23.691   5.638  51.698  1.00  0.00     0.306 C 
HETATM   35  H4  UNL     1      25.518   6.140  51.004  1.00  0.00     0.315 HD
ENDBRANCH  32  33
ENDBRANCH  31  32
ENDBRANCH   1  31
TORSDOF 3
ENDMDL
MODEL 7
REMARK VINA RESULT:      -7.6      1.957      2.507
REMARK  3 active torsions:
REMARK  status: ('A' for Active; 'I' for Inactive)
REMARK    1  A    between atoms: N1_2  and  C2_3 
REMARK    2  A    between atoms: C2_3  and  C3_4 
REMARK    3  A    between atoms: C3_4  and  C4_5 
ROOT
HETATM    1  C4  UNL     1      24.358   1.884  52.448  1.00  0.00     0.111 C 
HETATM    2  C5  UNL     1      24.844   2.473  51.187  1.00  0.00     0.029 C 
HETATM    3  C6  UNL     1      26.301   2.376  50.869  1.00  0.00     0.022 C 
HETATM    4  C7  UNL     1      26.610   3.218  49.610  1.00  0.00     0.121 C 
HETATM    5  N2  UNL     1      26.299   4.607  49.864  1.00  0.00    -0.374 N 
HETATM    6  C8  UNL     1      26.315   5.772  49.041  1.00  0.00     0.132 A 
HETATM    7  N3  UNL     1      27.570   5.943  48.590  1.00  0.00    -0.224 NA
HETATM    8  C9  UNL     1      27.841   7.006  47.767  1.00  0.00     0.234 A 
HETATM    9  N4  UNL     1      26.883   7.874  47.402  1.00  0.00    -0.253 NA
HETATM   10  C10 UNL     1      25.642   7.670  47.874  1.00  0.00     0.129 A 
HETATM   11  C11 UNL     1      25.267   6.635  48.706  1.00  0.00     0.009 A 
HETATM   12  C12 UNL     1      23.956   6.352  49.270  1.00  0.00     0.080 C 
HETATM   13  P1  UNL     1      22.914   5.350  48.117  1.00  0.00    -0.088 P 
HETATM   14  C13 UNL     1      21.168   5.332  48.722  1.00  0.00    -0.009 C 
HETATM   15  C14 UNL     1      20.069   5.886  48.274  1.00  0.00     0.012 C 
HETATM   16  C15 UNL     1      19.134   4.921  48.809  1.00  0.00     0.109 C 
HETATM   17  C16 UNL     1      19.363   3.500  48.437  1.00  0.00     0.056 C 
HETATM   18  C17 UNL     1      18.202   2.637  48.667  1.00  0.00    -0.024 C 
HETATM   19  C18 UNL     1      18.330   2.091  49.902  1.00  0.00    -0.001 C 
HETATM   20  C19 UNL     1      19.301   2.220  50.977  1.00  0.00     0.037 C 
HETATM   21  C20 UNL     1      20.380   2.745  51.526  1.00  0.00     0.079 C 
HETATM   22  C21 UNL     1      21.313   3.806  51.034  1.00  0.00     0.067 C 
HETATM   23  C22 UNL     1      21.275   4.555  49.932  1.00  0.00     0.042 C 
HETATM   24  N5  UNL     1      19.795   4.789  50.213  1.00  0.00    -0.381 N 
HETATM   25  O1  UNL     1      20.898   2.385  52.752  1.00  0.00    -0.304 OA
HETATM   26  C23 UNL     1      21.987   1.478  52.767  1.00  0.00     0.253 C 
HETATM   27  N6  UNL     1      22.936   2.291  52.545  1.00  0.00    -0.273 NA
HETATM   28  H16 UNL     1      25.992   5.143  50.702  1.00  0.00     0.161 HD
HETATM   29  H21 UNL     1      23.478   4.041  47.974  1.00  0.00     0.063 HD
HETATM   30  H30 UNL     1      19.057   4.900  50.981  1.00  0.00     0.160 HD
ENDROOT
BRANCH   1  31
HETATM   31  C3  UNL     1      24.522   0.457  52.720  1.00  0.00     0.057 C 
BRANCH  31  32
HETATM   32  C2  UNL     1      25.594  -0.014  53.634  1.00  0.00     0.271 C 
BRANCH  32  33
HETATM   33  N1  UNL     1      26.486  -0.904  52.896  1.00  0.00     0.079 N 
HETATM   34  C1  UNL     1      27.870  -0.544  53.152  1.00  0.00     0.306 C 
HETATM   35  H4  UNL     1      26.334  -0.818  51.874  1.00  0.00     0.315 HD
ENDBRANCH  32  33
ENDBRANCH  31  32
ENDBRANCH   1  31
TORSDOF 3
ENDMDL
MODEL 8
REMARK VINA RESULT:      -7.5      2.647      6.291
REMARK  3 active torsions:
REMARK  status: ('A' for Active; 'I' for Inactive)
REMARK    1  A    between atoms: N1_2  and  C2_3 
REMARK    2  A    between atoms: C2_3  and  C3_4 
REMARK    3  A    between atoms: C3_4  and  C4_5 
ROOT
HETATM    1  C4  UNL     1      18.980   3.829  48.923  1.00  0.00     0.111 C 
HETATM    2  C5  UNL     1      20.196   4.538  49.359  1.00  0.00     0.029 C 
HETATM    3  C6  UNL     1      20.413   5.939  48.884  1.00  0.00     0.022 C 
HETATM    4  C7  UNL     1      21.825   6.411  49.302  1.00  0.00     0.121 C 
HETATM    5  N2  UNL     1      22.824   5.569  48.683  1.00  0.00    -0.374 N 
HETATM    6  C8  UNL     1      24.245   5.507  48.791  1.00  0.00     0.132 A 
HETATM    7  N3  UNL     1      24.741   6.695  48.405  1.00  0.00    -0.224 NA
HETATM    8  C9  UNL     1      26.099   6.887  48.425  1.00  0.00     0.234 A 
HETATM    9  N4  UNL     1      26.939   5.916  48.822  1.00  0.00    -0.253 NA
HETATM   10  C10 UNL     1      26.405   4.743  49.199  1.00  0.00     0.129 A 
HETATM   11  C11 UNL     1      25.057   4.450  49.215  1.00  0.00     0.009 A 
HETATM   12  C12 UNL     1      24.401   3.207  49.592  1.00  0.00     0.080 C 
HETATM   13  P1  UNL     1      24.094   3.120  51.413  1.00  0.00    -0.088 P 
HETATM   14  C13 UNL     1      23.600   1.400  51.873  1.00  0.00    -0.009 C 
HETATM   15  C14 UNL     1      24.210   0.451  52.539  1.00  0.00     0.012 C 
HETATM   16  C15 UNL     1      23.032  -0.226  53.034  1.00  0.00     0.109 C 
HETATM   17  C16 UNL     1      22.063   0.604  53.797  1.00  0.00     0.056 C 
HETATM   18  C17 UNL     1      21.114  -0.179  54.593  1.00  0.00    -0.024 C 
HETATM   19  C18 UNL     1      20.002  -0.371  53.842  1.00  0.00    -0.001 C 
HETATM   20  C19 UNL     1      19.614  -0.013  52.486  1.00  0.00     0.037 C 
HETATM   21  C20 UNL     1      19.852   0.509  51.297  1.00  0.00     0.079 C 
HETATM   22  C21 UNL     1      21.087   1.134  50.730  1.00  0.00     0.067 C 
HETATM   23  C22 UNL     1      22.306   1.279  51.250  1.00  0.00     0.042 C 
HETATM   24  N5  UNL     1      22.221  -0.173  51.706  1.00  0.00    -0.381 N 
HETATM   25  O1  UNL     1      18.934   0.589  50.271  1.00  0.00    -0.304 OA
HETATM   26  C23 UNL     1      18.262   1.822  50.084  1.00  0.00     0.253 C 
HETATM   27  N6  UNL     1      19.144   2.440  49.413  1.00  0.00    -0.273 NA
HETATM   28  H16 UNL     1      22.794   4.792  47.991  1.00  0.00     0.161 HD
HETATM   29  H21 UNL     1      23.124   4.107  51.786  1.00  0.00     0.063 HD
HETATM   30  H30 UNL     1      21.835  -1.144  51.469  1.00  0.00     0.160 HD
ENDROOT
BRANCH   1  31
HETATM   31  C3  UNL     1      17.653   4.351  49.244  1.00  0.00     0.057 C 
BRANCH  31  32
HETATM   32  C2  UNL     1      16.795   4.925  48.176  1.00  0.00     0.271 C 
BRANCH  32  33
HETATM   33  N1  UNL     1      15.456   5.149  48.714  1.00  0.00     0.079 N 
HETATM   34  C1  UNL     1      15.233   4.292  49.866  1.00  0.00     0.306 C 
HETATM   35  H4  UNL     1      14.730   4.911  48.013  1.00  0.00     0.315 HD
ENDBRANCH  32  33
ENDBRANCH  31  32
ENDBRANCH   1  31
TORSDOF 3
ENDMDL
MODEL 9
REMARK VINA RESULT:      -7.2      7.074     10.648
REMARK  3 active torsions:
REMARK  status: ('A' for Active; 'I' for Inactive)
REMARK    1  A    between atoms: N1_2  and  C2_3 
REMARK    2  A    between atoms: C2_3  and  C3_4 
REMARK    3  A    between atoms: C3_4  and  C4_5 
ROOT
HETATM    1  C4  UNL     1      32.273   8.340  45.668  1.00  0.00     0.111 C 
HETATM    2  C5  UNL     1      31.353   9.442  45.328  1.00  0.00     0.029 C 
HETATM    3  C6  UNL     1      31.760  10.406  44.261  1.00  0.00     0.022 C 
HETATM    4  C7  UNL     1      30.745  11.571  44.206  1.00  0.00     0.121 C 
HETATM    5  N2  UNL     1      30.743  12.275  45.469  1.00  0.00    -0.374 N 
HETATM    6  C8  UNL     1      29.958  13.351  45.981  1.00  0.00     0.132 A 
HETATM    7  N3  UNL     1      30.137  14.413  45.177  1.00  0.00    -0.224 NA
HETATM    8  C9  UNL     1      29.476  15.580  45.462  1.00  0.00     0.234 A 
HETATM    9  N4  UNL     1      28.656  15.683  46.522  1.00  0.00    -0.253 NA
HETATM   10  C10 UNL     1      28.504  14.600  47.301  1.00  0.00     0.129 A 
HETATM   11  C11 UNL     1      29.122  13.382  47.102  1.00  0.00     0.009 A 
HETATM   12  C12 UNL     1      29.024  12.171  47.903  1.00  0.00     0.080 C 
HETATM   13  P1  UNL     1      27.577  11.134  47.402  1.00  0.00    -0.088 P 
HETATM   14  C13 UNL     1      27.296   9.817  48.668  1.00  0.00    -0.009 C 
HETATM   15  C14 UNL     1      26.355   9.632  49.559  1.00  0.00     0.012 C 
HETATM   16  C15 UNL     1      26.445   8.191  49.640  1.00  0.00     0.109 C 
HETATM   17  C16 UNL     1      26.305   7.446  48.361  1.00  0.00     0.056 C 
HETATM   18  C17 UNL     1      26.016   6.021  48.538  1.00  0.00    -0.024 C 
HETATM   19  C18 UNL     1      27.196   5.354  48.527  1.00  0.00    -0.001 C 
HETATM   20  C19 UNL     1      28.592   5.753  48.425  1.00  0.00     0.037 C 
HETATM   21  C20 UNL     1      29.549   6.657  48.345  1.00  0.00     0.079 C 
HETATM   22  C21 UNL     1      29.490   8.151  48.349  1.00  0.00     0.067 C 
HETATM   23  C22 UNL     1      28.457   8.981  48.498  1.00  0.00     0.042 C 
HETATM   24  N5  UNL     1      28.000   8.109  49.662  1.00  0.00    -0.381 N 
HETATM   25  O1  UNL     1      30.895   6.375  48.227  1.00  0.00    -0.304 OA
HETATM   26  C23 UNL     1      31.469   6.432  46.933  1.00  0.00     0.253 C 
HETATM   27  N6  UNL     1      31.670   7.682  46.851  1.00  0.00    -0.273 NA
HETATM   28  H16 UNL     1      31.308  12.208  46.341  1.00  0.00     0.161 HD
HETATM   29  H21 UNL     1      27.790  10.616  46.083  1.00  0.00     0.063 HD
HETATM   30  H30 UNL     1      28.326   7.485  50.469  1.00  0.00     0.160 HD
ENDROOT
BRANCH   1  31
HETATM   31  C3  UNL     1      32.671   7.359  44.660  1.00  0.00     0.057 C 
BRANCH  31  32
HETATM   32  C2  UNL     1      34.085   7.277  44.212  1.00  0.00     0.271 C 
BRANCH  32  33
HETATM   33  N1  UNL     1      34.490   5.874  44.182  1.00  0.00     0.079 N 
HETATM   34  C1  UNL     1      33.326   5.024  43.997  1.00  0.00     0.306 C 
HETATM   35  H4  UNL     1      34.929   5.596  45.079  1.00  0.00     0.315 HD
ENDBRANCH  32  33
ENDBRANCH  31  32
ENDBRANCH   1  31
TORSDOF 3
ENDMDL
