MODEL 1
REMARK VINA RESULT:      -9.1      0.000      0.000
REMARK  3 active torsions:
REMARK  status: ('A' for Active; 'I' for Inactive)
REMARK    1  A    between atoms: O1_2  and  C2_3 
REMARK    2  A    between atoms: C6_9  and  N3_10 
REMARK    3  A    between atoms: N3_10  and  C7_11 
ROOT
HETATM    1  C2  UNL     1      20.572   0.516  53.236  1.00  0.00     0.164 C 
HETATM    2  C3  UNL     1      21.174   1.556  52.798  1.00  0.00     0.090 C 
HETATM    3  C4  UNL     1      21.809   2.678  52.253  1.00  0.00     0.076 A 
HETATM    4  N1  UNL     1      20.870   3.596  52.001  1.00  0.00    -0.241 NA
HETATM    5  C5  UNL     1      21.156   4.802  51.495  1.00  0.00     0.236 A 
HETATM    6  N2  UNL     1      22.415   5.133  51.221  1.00  0.00    -0.224 NA
HETATM    7  C6  UNL     1      23.388   4.234  51.462  1.00  0.00     0.142 A 
HETATM    8  C13 UNL     1      23.090   2.995  51.981  1.00  0.00     0.041 A 
HETATM    9  C14 UNL     1      24.201   2.112  52.218  1.00  0.00     0.045 C 
HETATM   10  C15 UNL     1      25.150   1.282  52.542  1.00  0.00     0.032 C 
HETATM   11  C16 UNL     1      26.443   0.800  51.927  1.00  0.00     0.224 C 
HETATM   12  O2  UNL     1      27.453   1.185  52.763  1.00  0.00    -0.384 OA
HETATM   13  C17 UNL     1      27.566   0.337  53.840  1.00  0.00     0.187 C 
HETATM   14  C18 UNL     1      26.266   0.193  54.606  1.00  0.00     0.149 C 
HETATM   15  N4  UNL     1      25.141   0.463  53.756  1.00  0.00    -0.380 N 
HETATM   16  C19 UNL     1      23.868  -0.063  53.987  1.00  0.00     0.125 C 
HETATM   17  C20 UNL     1      23.697  -1.257  54.889  1.00  0.00     0.048 C 
HETATM   18  C21 UNL     1      22.174  -1.533  54.750  1.00  0.00     0.203 C 
HETATM   19  O3  UNL     1      21.465  -0.390  55.108  1.00  0.00    -0.278 OA
HETATM   20  N5  UNL     1      20.314  -0.237  54.408  1.00  0.00    -0.245 N 
HETATM   21  H24 UNL     1      19.301  -0.514  54.491  1.00  0.00     0.196 HD
ENDROOT
BRANCH   7  22
HETATM   22  N3  UNL     1      24.739   4.588  51.163  1.00  0.00    -0.340 N 
HETATM   23  H6  UNL     1      25.650   4.228  51.519  1.00  0.00     0.167 HD
BRANCH  22  24
HETATM   24  C7  UNL     1      24.848   5.643  50.186  1.00  0.00     0.035 A 
HETATM   25  C8  UNL     1      24.398   5.447  48.873  1.00  0.00     0.029 A 
HETATM   26  C9  UNL     1      24.478   6.432  47.889  1.00  0.00     0.004 A 
HETATM   27  C10 UNL     1      25.032   7.626  48.279  1.00  0.00     0.024 A 
HETATM   28  C11 UNL     1      25.494   7.901  49.530  1.00  0.00     0.036 A 
HETATM   29 CL1  UNL     1      26.188   9.451  49.948  1.00  0.00    -0.084 Cl
HETATM   30  C12 UNL     1      25.396   6.895  50.484  1.00  0.00     0.053 A 
ENDBRANCH  22  24
ENDBRANCH   7  22
BRANCH   1  31
HETATM   31  O1  UNL     1      20.092   0.180  52.005  1.00  0.00    -0.340 OA
HETATM   32  C1  UNL     1      18.795   0.437  51.523  1.00  0.00     0.211 C 
ENDBRANCH   1  31
TORSDOF 3
ENDMDL
MODEL 2
REMARK VINA RESULT:      -9.0      2.563      5.334
REMARK  3 active torsions:
REMARK  status: ('A' for Active; 'I' for Inactive)
REMARK    1  A    between atoms: O1_2  and  C2_3 
REMARK    2  A    between atoms: C6_9  and  N3_10 
REMARK    3  A    between atoms: N3_10  and  C7_11 
ROOT
HETATM    1  C2  UNL     1      27.150   1.357  52.387  1.00  0.00     0.164 C 
HETATM    2  C3  UNL     1      26.663   2.218  51.577  1.00  0.00     0.090 C 
HETATM    3  C4  UNL     1      26.161   3.212  50.729  1.00  0.00     0.076 A 
HETATM    4  N1  UNL     1      27.167   3.636  49.958  1.00  0.00    -0.241 NA
HETATM    5  C5  UNL     1      27.008   4.574  49.015  1.00  0.00     0.236 A 
HETATM    6  N2  UNL     1      25.815   5.126  48.812  1.00  0.00    -0.224 NA
HETATM    7  C6  UNL     1      24.778   4.724  49.569  1.00  0.00     0.142 A 
HETATM    8  C13 UNL     1      24.944   3.759  50.538  1.00  0.00     0.041 A 
HETATM    9  C14 UNL     1      23.772   3.386  51.283  1.00  0.00     0.045 C 
HETATM   10  C15 UNL     1      22.750   2.928  51.947  1.00  0.00     0.032 C 
HETATM   11  C16 UNL     1      21.531   3.510  52.624  1.00  0.00     0.224 C 
HETATM   12  O2  UNL     1      20.436   3.019  51.970  1.00  0.00    -0.384 OA
HETATM   13  C17 UNL     1      20.138   1.739  52.375  1.00  0.00     0.187 C 
HETATM   14  C18 UNL     1      21.314   0.794  52.227  1.00  0.00     0.149 C 
HETATM   15  N4  UNL     1      22.556   1.514  52.275  1.00  0.00    -0.380 N 
HETATM   16  C19 UNL     1      23.759   0.930  52.676  1.00  0.00     0.125 C 
HETATM   17  C20 UNL     1      23.750  -0.352  53.465  1.00  0.00     0.048 C 
HETATM   18  C21 UNL     1      25.264  -0.541  53.765  1.00  0.00     0.203 C 
HETATM   19  O3  UNL     1      25.969  -0.566  52.565  1.00  0.00    -0.278 OA
HETATM   20  N5  UNL     1      27.211  -0.030  52.667  1.00  0.00    -0.245 N 
HETATM   21  H24 UNL     1      28.190  -0.352  52.891  1.00  0.00     0.196 HD
ENDROOT
BRANCH   7  22
HETATM   22  N3  UNL     1      23.498   5.319  49.354  1.00  0.00    -0.340 N 
HETATM   23  H6  UNL     1      22.917   5.956  49.939  1.00  0.00     0.167 HD
BRANCH  22  24
HETATM   24  C7  UNL     1      22.910   4.961  48.087  1.00  0.00     0.035 A 
HETATM   25  C8  UNL     1      22.530   3.637  47.827  1.00  0.00     0.029 A 
HETATM   26  C9  UNL     1      21.958   3.235  46.620  1.00  0.00     0.004 A 
HETATM   27  C10 UNL     1      21.783   4.222  45.682  1.00  0.00     0.024 A 
HETATM   28  C11 UNL     1      22.124   5.529  45.850  1.00  0.00     0.036 A 
HETATM   29 CL1  UNL     1      21.868   6.728  44.601  1.00  0.00    -0.084 Cl
HETATM   30  C12 UNL     1      22.690   5.892  47.066  1.00  0.00     0.053 A 
ENDBRANCH  22  24
ENDBRANCH   7  22
BRANCH   1  31
HETATM   31  O1  UNL     1      27.777   2.305  53.140  1.00  0.00    -0.340 OA
HETATM   32  C1  UNL     1      28.971   2.131  53.864  1.00  0.00     0.211 C 
ENDBRANCH   1  31
TORSDOF 3
ENDMDL
MODEL 3
REMARK VINA RESULT:      -8.8      2.085      4.862
REMARK  3 active torsions:
REMARK  status: ('A' for Active; 'I' for Inactive)
REMARK    1  A    between atoms: O1_2  and  C2_3 
REMARK    2  A    between atoms: C6_9  and  N3_10 
REMARK    3  A    between atoms: N3_10  and  C7_11 
ROOT
HETATM    1  C2  UNL     1      26.802   1.058  53.063  1.00  0.00     0.164 C 
HETATM    2  C3  UNL     1      26.361   1.802  52.121  1.00  0.00     0.090 C 
HETATM    3  C4  UNL     1      25.905   2.673  51.126  1.00  0.00     0.076 A 
HETATM    4  N1  UNL     1      26.964   3.067  50.411  1.00  0.00    -0.241 NA
HETATM    5  C5  UNL     1      26.861   3.891  49.360  1.00  0.00     0.236 A 
HETATM    6  N2  UNL     1      25.671   4.354  48.986  1.00  0.00    -0.224 NA
HETATM    7  C6  UNL     1      24.582   3.980  49.681  1.00  0.00     0.142 A 
HETATM    8  C13 UNL     1      24.691   3.133  50.761  1.00  0.00     0.041 A 
HETATM    9  C14 UNL     1      23.468   2.779  51.429  1.00  0.00     0.045 C 
HETATM   10  C15 UNL     1      22.405   2.340  52.039  1.00  0.00     0.032 C 
HETATM   11  C16 UNL     1      21.101   2.925  52.530  1.00  0.00     0.224 C 
HETATM   12  O2  UNL     1      20.098   2.311  51.834  1.00  0.00    -0.384 OA
HETATM   13  C17 UNL     1      19.816   1.067  52.347  1.00  0.00     0.187 C 
HETATM   14  C18 UNL     1      21.039   0.175  52.416  1.00  0.00     0.149 C 
HETATM   15  N4  UNL     1      22.239   0.960  52.501  1.00  0.00    -0.380 N 
HETATM   16  C19 UNL     1      23.420   0.486  53.076  1.00  0.00     0.125 C 
HETATM   17  C20 UNL     1      23.386  -0.705  53.997  1.00  0.00     0.048 C 
HETATM   18  C21 UNL     1      24.870  -0.781  54.457  1.00  0.00     0.203 C 
HETATM   19  O3  UNL     1      25.691  -0.895  53.340  1.00  0.00    -0.278 OA
HETATM   20  N5  UNL     1      26.893  -0.287  53.499  1.00  0.00    -0.245 N 
HETATM   21  H24 UNL     1      27.857  -0.531  53.848  1.00  0.00     0.196 HD
ENDROOT
BRANCH   7  22
HETATM   22  N3  UNL     1      23.305   4.481  49.282  1.00  0.00    -0.340 N 
HETATM   23  H6  UNL     1      22.425   4.002  48.999  1.00  0.00     0.167 HD
BRANCH  22  24
HETATM   24  C7  UNL     1      23.238   5.921  49.271  1.00  0.00     0.035 A 
HETATM   25  C8  UNL     1      23.438   6.652  50.452  1.00  0.00     0.029 A 
HETATM   26  C9  UNL     1      23.386   8.045  50.499  1.00  0.00     0.004 A 
HETATM   27  C10 UNL     1      23.122   8.676  49.309  1.00  0.00     0.024 A 
HETATM   28  C11 UNL     1      22.915   8.046  48.120  1.00  0.00     0.036 A 
HETATM   29 CL1  UNL     1      22.583   8.925  46.644  1.00  0.00    -0.084 Cl
HETATM   30  C12 UNL     1      22.977   6.658  48.111  1.00  0.00     0.053 A 
ENDBRANCH  22  24
ENDBRANCH   7  22
BRANCH   1  31
HETATM   31  O1  UNL     1      27.310   2.112  53.764  1.00  0.00    -0.340 OA
HETATM   32  C1  UNL     1      28.660   2.506  53.803  1.00  0.00     0.211 C 
ENDBRANCH   1  31
TORSDOF 3
ENDMDL
MODEL 4
REMARK VINA RESULT:      -8.7      1.742      2.267
REMARK  3 active torsions:
REMARK  status: ('A' for Active; 'I' for Inactive)
REMARK    1  A    between atoms: O1_2  and  C2_3 
REMARK    2  A    between atoms: C6_9  and  N3_10 
REMARK    3  A    between atoms: N3_10  and  C7_11 
ROOT
HETATM    1  C2  UNL     1      20.565   2.598  51.397  1.00  0.00     0.164 C 
HETATM    2  C3  UNL     1      21.329   3.619  51.303  1.00  0.00     0.090 C 
HETATM    3  C4  UNL     1      22.150   4.739  51.129  1.00  0.00     0.076 A 
HETATM    4  N1  UNL     1      21.358   5.806  50.982  1.00  0.00    -0.241 NA
HETATM    5  C5  UNL     1      21.840   7.045  50.821  1.00  0.00     0.236 A 
HETATM    6  N2  UNL     1      23.153   7.258  50.800  1.00  0.00    -0.224 NA
HETATM    7  C6  UNL     1      23.981   6.208  50.945  1.00  0.00     0.142 A 
HETATM    8  C13 UNL     1      23.483   4.935  51.111  1.00  0.00     0.041 A 
HETATM    9  C14 UNL     1      24.449   3.881  51.273  1.00  0.00     0.045 C 
HETATM   10  C15 UNL     1      25.248   2.881  51.512  1.00  0.00     0.032 C 
HETATM   11  C16 UNL     1      26.569   2.380  50.974  1.00  0.00     0.224 C 
HETATM   12  O2  UNL     1      27.467   2.432  52.003  1.00  0.00    -0.384 OA
HETATM   13  C17 UNL     1      27.323   1.360  52.853  1.00  0.00     0.187 C 
HETATM   14  C18 UNL     1      25.910   1.225  53.385  1.00  0.00     0.149 C 
HETATM   15  N4  UNL     1      24.966   1.823  52.483  1.00  0.00    -0.380 N 
HETATM   16  C19 UNL     1      23.627   1.433  52.414  1.00  0.00     0.125 C 
HETATM   17  C20 UNL     1      23.198   0.103  52.975  1.00  0.00     0.048 C 
HETATM   18  C21 UNL     1      21.696   0.070  52.576  1.00  0.00     0.203 C 
HETATM   19  O3  UNL     1      21.057   1.189  53.100  1.00  0.00    -0.278 OA
HETATM   20  N5  UNL     1      20.051   1.646  52.312  1.00  0.00    -0.245 N 
HETATM   21  H24 UNL     1      19.015   1.494  52.193  1.00  0.00     0.196 HD
ENDROOT
BRANCH   7  22
HETATM   22  N3  UNL     1      25.391   6.435  50.919  1.00  0.00    -0.340 N 
HETATM   23  H6  UNL     1      26.159   6.128  51.551  1.00  0.00     0.167 HD
BRANCH  22  24
HETATM   24  C7  UNL     1      25.815   7.245  49.804  1.00  0.00     0.035 A 
HETATM   25  C8  UNL     1      25.493   6.873  48.491  1.00  0.00     0.029 A 
HETATM   26  C9  UNL     1      25.877   7.619  47.376  1.00  0.00     0.004 A 
HETATM   27  C10 UNL     1      26.600   8.755  47.636  1.00  0.00     0.024 A 
HETATM   28  C11 UNL     1      26.957   9.189  48.876  1.00  0.00     0.036 A 
HETATM   29 CL1  UNL     1      27.883  10.652  49.122  1.00  0.00    -0.084 Cl
HETATM   30  C12 UNL     1      26.556   8.421  49.962  1.00  0.00     0.053 A 
ENDBRANCH  22  24
ENDBRANCH   7  22
BRANCH   1  31
HETATM   31  O1  UNL     1      20.255   2.609  50.070  1.00  0.00    -0.340 OA
HETATM   32  C1  UNL     1      20.824   1.788  49.079  1.00  0.00     0.211 C 
ENDBRANCH   1  31
TORSDOF 3
ENDMDL
MODEL 5
REMARK VINA RESULT:      -8.5      3.703      7.045
REMARK  3 active torsions:
REMARK  status: ('A' for Active; 'I' for Inactive)
REMARK    1  A    between atoms: O1_2  and  C2_3 
REMARK    2  A    between atoms: C6_9  and  N3_10 
REMARK    3  A    between atoms: N3_10  and  C7_11 
ROOT
HETATM    1  C2  UNL     1      24.893   0.556  53.260  1.00  0.00     0.164 C 
HETATM    2  C3  UNL     1      23.637   0.419  53.058  1.00  0.00     0.090 C 
HETATM    3  C4  UNL     1      22.275   0.199  52.826  1.00  0.00     0.076 A 
HETATM    4  N1  UNL     1      21.767  -0.396  53.910  1.00  0.00    -0.241 NA
HETATM    5  C5  UNL     1      20.472  -0.720  54.016  1.00  0.00     0.236 A 
HETATM    6  N2  UNL     1      19.630  -0.453  53.022  1.00  0.00    -0.224 NA
HETATM    7  C6  UNL     1      20.105   0.145  51.914  1.00  0.00     0.142 A 
HETATM    8  C13 UNL     1      21.437   0.477  51.808  1.00  0.00     0.041 A 
HETATM    9  C14 UNL     1      21.844   1.128  50.591  1.00  0.00     0.045 C 
HETATM   10  C15 UNL     1      22.282   1.795  49.562  1.00  0.00     0.032 C 
HETATM   11  C16 UNL     1      22.092   1.749  48.064  1.00  0.00     0.224 C 
HETATM   12  O2  UNL     1      21.512   2.931  47.697  1.00  0.00    -0.384 OA
HETATM   13  C17 UNL     1      22.437   3.945  47.621  1.00  0.00     0.187 C 
HETATM   14  C18 UNL     1      23.221   4.114  48.907  1.00  0.00     0.149 C 
HETATM   15  N4  UNL     1      23.256   2.885  49.649  1.00  0.00    -0.380 N 
HETATM   16  C19 UNL     1      24.271   2.570  50.554  1.00  0.00     0.125 C 
HETATM   17  C20 UNL     1      25.585   3.303  50.500  1.00  0.00     0.048 C 
HETATM   18  C21 UNL     1      26.402   2.552  51.589  1.00  0.00     0.203 C 
HETATM   19  O3  UNL     1      25.718   2.613  52.799  1.00  0.00    -0.278 OA
HETATM   20  N5  UNL     1      25.896   1.508  53.566  1.00  0.00    -0.245 N 
HETATM   21  H24 UNL     1      26.558   1.167  54.312  1.00  0.00     0.196 HD
ENDROOT
BRANCH   7  22
HETATM   22  N3  UNL     1      19.202   0.428  50.844  1.00  0.00    -0.340 N 
HETATM   23  H6  UNL     1      19.119   0.043  49.880  1.00  0.00     0.167 HD
BRANCH  22  24
HETATM   24  C7  UNL     1      18.229   1.440  51.174  1.00  0.00     0.035 A 
HETATM   25  C8  UNL     1      18.593   2.794  51.209  1.00  0.00     0.029 A 
HETATM   26  C9  UNL     1      17.694   3.813  51.521  1.00  0.00     0.004 A 
HETATM   27  C10 UNL     1      16.410   3.416  51.799  1.00  0.00     0.024 A 
HETATM   28  C11 UNL     1      15.972   2.127  51.790  1.00  0.00     0.036 A 
HETATM   29 CL1  UNL     1      14.315   1.702  52.158  1.00  0.00    -0.084 Cl
HETATM   30  C12 UNL     1      16.896   1.139  51.473  1.00  0.00     0.053 A 
ENDBRANCH  22  24
ENDBRANCH   7  22
BRANCH   1  31
HETATM   31  O1  UNL     1      25.148  -0.770  53.069  1.00  0.00    -0.340 OA
HETATM   32  C1  UNL     1      26.390  -1.333  52.726  1.00  0.00     0.211 C 
ENDBRANCH   1  31
TORSDOF 3
ENDMDL
MODEL 6
REMARK VINA RESULT:      -8.4      3.059      6.403
REMARK  3 active torsions:
REMARK  status: ('A' for Active; 'I' for Inactive)
REMARK    1  A    between atoms: O1_2  and  C2_3 
REMARK    2  A    between atoms: C6_9  and  N3_10 
REMARK    3  A    between atoms: N3_10  and  C7_11 
ROOT
HETATM    1  C2  UNL     1      25.299   3.307  50.929  1.00  0.00     0.164 C 
HETATM    2  C3  UNL     1      24.205   2.751  50.571  1.00  0.00     0.090 C 
HETATM    3  C4  UNL     1      22.975   2.207  50.186  1.00  0.00     0.076 A 
HETATM    4  N1  UNL     1      22.740   2.582  48.925  1.00  0.00    -0.241 NA
HETATM    5  C5  UNL     1      21.648   2.202  48.249  1.00  0.00     0.236 A 
HETATM    6  N2  UNL     1      20.740   1.420  48.827  1.00  0.00    -0.224 NA
HETATM    7  C6  UNL     1      20.942   1.022  50.096  1.00  0.00     0.142 A 
HETATM    8  C13 UNL     1      22.066   1.414  50.788  1.00  0.00     0.041 A 
HETATM    9  C14 UNL     1      22.199   0.923  52.134  1.00  0.00     0.045 C 
HETATM   10  C15 UNL     1      22.441   0.458  53.325  1.00  0.00     0.032 C 
HETATM   11  C16 UNL     1      21.651   0.215  54.590  1.00  0.00     0.224 C 
HETATM   12  O2  UNL     1      21.673  -1.131  54.825  1.00  0.00    -0.384 OA
HETATM   13  C17 UNL     1      22.857  -1.524  55.403  1.00  0.00     0.187 C 
HETATM   14  C18 UNL     1      24.067  -1.106  54.592  1.00  0.00     0.149 C 
HETATM   15  N4  UNL     1      23.769   0.046  53.787  1.00  0.00    -0.380 N 
HETATM   16  C19 UNL     1      24.744   0.947  53.355  1.00  0.00     0.125 C 
HETATM   17  C20 UNL     1      26.083   0.996  54.042  1.00  0.00     0.048 C 
HETATM   18  C21 UNL     1      26.762   2.187  53.310  1.00  0.00     0.203 C 
HETATM   19  O3  UNL     1      26.785   1.932  51.942  1.00  0.00    -0.278 OA
HETATM   20  N5  UNL     1      26.669   3.054  51.189  1.00  0.00    -0.245 N 
HETATM   21  H24 UNL     1      27.300   3.775  50.751  1.00  0.00     0.196 HD
ENDROOT
BRANCH   7  22
HETATM   22  N3  UNL     1      19.965   0.186  50.719  1.00  0.00    -0.340 N 
HETATM   23  H6  UNL     1      20.035  -0.746  51.179  1.00  0.00     0.167 HD
BRANCH  22  24
HETATM   24  C7  UNL     1      18.638   0.749  50.696  1.00  0.00     0.035 A 
HETATM   25  C8  UNL     1      17.574   0.041  50.119  1.00  0.00     0.029 A 
HETATM   26  C9  UNL     1      16.271   0.537  50.069  1.00  0.00     0.004 A 
HETATM   27  C10 UNL     1      16.081   1.778  50.625  1.00  0.00     0.024 A 
HETATM   28  C11 UNL     1      17.055   2.532  51.203  1.00  0.00     0.036 A 
HETATM   29 CL1  UNL     1      16.730   4.109  51.889  1.00  0.00    -0.084 Cl
HETATM   30  C12 UNL     1      18.340   2.005  51.235  1.00  0.00     0.053 A 
ENDBRANCH  22  24
ENDBRANCH   7  22
BRANCH   1  31
HETATM   31  O1  UNL     1      24.727   4.540  51.044  1.00  0.00    -0.340 OA
HETATM   32  C1  UNL     1      24.942   5.635  50.188  1.00  0.00     0.211 C 
ENDBRANCH   1  31
TORSDOF 3
ENDMDL
MODEL 7
REMARK VINA RESULT:      -8.1      5.481      8.465
REMARK  3 active torsions:
REMARK  status: ('A' for Active; 'I' for Inactive)
REMARK    1  A    between atoms: O1_2  and  C2_3 
REMARK    2  A    between atoms: C6_9  and  N3_10 
REMARK    3  A    between atoms: N3_10  and  C7_11 
ROOT
HETATM    1  C2  UNL     1      24.564   8.170  46.609  1.00  0.00     0.164 C 
HETATM    2  C3  UNL     1      25.765   8.041  47.028  1.00  0.00     0.090 C 
HETATM    3  C4  UNL     1      27.099   7.882  47.420  1.00  0.00     0.076 A 
HETATM    4  N1  UNL     1      27.779   8.952  46.995  1.00  0.00    -0.241 NA
HETATM    5  C5  UNL     1      29.086   9.119  47.234  1.00  0.00     0.236 A 
HETATM    6  N2  UNL     1      29.765   8.202  47.918  1.00  0.00    -0.224 NA
HETATM    7  C6  UNL     1      29.114   7.112  48.362  1.00  0.00     0.142 A 
HETATM    8  C13 UNL     1      27.771   6.943  48.115  1.00  0.00     0.041 A 
HETATM    9  C14 UNL     1      27.163   5.752  48.645  1.00  0.00     0.045 C 
HETATM   10  C15 UNL     1      26.514   4.747  49.159  1.00  0.00     0.032 C 
HETATM   11  C16 UNL     1      26.748   3.264  49.335  1.00  0.00     0.224 C 
HETATM   12  O2  UNL     1      26.787   3.020  50.679  1.00  0.00    -0.384 OA
HETATM   13  C17 UNL     1      25.522   2.957  51.216  1.00  0.00     0.187 C 
HETATM   14  C18 UNL     1      24.703   4.198  50.923  1.00  0.00     0.149 C 
HETATM   15  N4  UNL     1      25.169   4.847  49.730  1.00  0.00    -0.380 N 
HETATM   16  C19 UNL     1      24.356   5.660  48.938  1.00  0.00     0.125 C 
HETATM   17  C20 UNL     1      22.857   5.573  49.056  1.00  0.00     0.048 C 
HETATM   18  C21 UNL     1      22.402   6.550  47.936  1.00  0.00     0.203 C 
HETATM   19  O3  UNL     1      22.961   7.804  48.165  1.00  0.00    -0.278 OA
HETATM   20  N5  UNL     1      23.244   8.477  47.022  1.00  0.00    -0.245 N 
HETATM   21  H24 UNL     1      22.767   9.153  46.369  1.00  0.00     0.196 HD
ENDROOT
BRANCH   7  22
HETATM   22  N3  UNL     1      29.845   6.125  49.093  1.00  0.00    -0.340 N 
HETATM   23  H6  UNL     1      29.604   5.558  49.933  1.00  0.00     0.167 HD
BRANCH  22  24
HETATM   24  C7  UNL     1      31.161   5.881  48.558  1.00  0.00     0.035 A 
HETATM   25  C8  UNL     1      32.300   6.364  49.219  1.00  0.00     0.029 A 
HETATM   26  C9  UNL     1      33.596   6.157  48.747  1.00  0.00     0.004 A 
HETATM   27  C10 UNL     1      33.701   5.443  47.580  1.00  0.00     0.024 A 
HETATM   28  C11 UNL     1      32.652   4.939  46.875  1.00  0.00     0.036 A 
HETATM   29 CL1  UNL     1      32.871   4.037  45.391  1.00  0.00    -0.084 Cl
HETATM   30  C12 UNL     1      31.376   5.164  47.376  1.00  0.00     0.053 A 
ENDBRANCH  22  24
ENDBRANCH   7  22
BRANCH   1  31
HETATM   31  O1  UNL     1      24.898   7.869  45.321  1.00  0.00    -0.340 OA
HETATM   32  C1  UNL     1      25.171   8.795  44.299  1.00  0.00     0.211 C 
ENDBRANCH   1  31
TORSDOF 3
ENDMDL
MODEL 8
REMARK VINA RESULT:      -8.1      3.484      5.412
REMARK  3 active torsions:
REMARK  status: ('A' for Active; 'I' for Inactive)
REMARK    1  A    between atoms: O1_2  and  C2_3 
REMARK    2  A    between atoms: C6_9  and  N3_10 
REMARK    3  A    between atoms: N3_10  and  C7_11 
ROOT
HETATM    1  C2  UNL     1      21.562   4.785  47.380  1.00  0.00     0.164 C 
HETATM    2  C3  UNL     1      22.498   5.569  47.759  1.00  0.00     0.090 C 
HETATM    3  C4  UNL     1      23.546   6.429  48.105  1.00  0.00     0.076 A 
HETATM    4  N1  UNL     1      23.216   7.659  47.696  1.00  0.00    -0.241 NA
HETATM    5  C5  UNL     1      24.003   8.723  47.901  1.00  0.00     0.236 A 
HETATM    6  N2  UNL     1      25.165   8.587  48.533  1.00  0.00    -0.224 NA
HETATM    7  C6  UNL     1      25.531   7.364  48.959  1.00  0.00     0.142 A 
HETATM    8  C13 UNL     1      24.721   6.272  48.747  1.00  0.00     0.041 A 
HETATM    9  C14 UNL     1      25.193   5.011  49.254  1.00  0.00     0.045 C 
HETATM   10  C15 UNL     1      25.501   3.848  49.752  1.00  0.00     0.032 C 
HETATM   11  C16 UNL     1      26.746   3.001  49.870  1.00  0.00     0.224 C 
HETATM   12  O2  UNL     1      27.010   2.859  51.204  1.00  0.00    -0.384 OA
HETATM   13  C17 UNL     1      26.213   1.896  51.776  1.00  0.00     0.187 C 
HETATM   14  C18 UNL     1      24.737   2.153  51.550  1.00  0.00     0.149 C 
HETATM   15  N4  UNL     1      24.531   2.939  50.366  1.00  0.00    -0.380 N 
HETATM   16  C19 UNL     1      23.347   2.907  49.627  1.00  0.00     0.125 C 
HETATM   17  C20 UNL     1      22.388   1.758  49.787  1.00  0.00     0.048 C 
HETATM   18  C21 UNL     1      21.315   2.100  48.715  1.00  0.00     0.203 C 
HETATM   19  O3  UNL     1      20.799   3.366  48.970  1.00  0.00    -0.278 OA
HETATM   20  N5  UNL     1      20.452   4.036  47.843  1.00  0.00    -0.245 N 
HETATM   21  H24 UNL     1      19.604   4.154  47.228  1.00  0.00     0.196 HD
ENDROOT
BRANCH   7  22
HETATM   22  N3  UNL     1      26.781   7.217  49.634  1.00  0.00    -0.340 N 
HETATM   23  H6  UNL     1      27.027   6.845  50.575  1.00  0.00     0.167 HD
BRANCH  22  24
HETATM   24  C7  UNL     1      27.905   7.675  48.855  1.00  0.00     0.035 A 
HETATM   25  C8  UNL     1      28.310   6.975  47.709  1.00  0.00     0.029 A 
HETATM   26  C9  UNL     1      29.388   7.374  46.919  1.00  0.00     0.004 A 
HETATM   27  C10 UNL     1      30.045   8.506  47.329  1.00  0.00     0.024 A 
HETATM   28  C11 UNL     1      29.721   9.244  48.426  1.00  0.00     0.036 A 
HETATM   29 CL1  UNL     1      30.612  10.679  48.882  1.00  0.00    -0.084 Cl
HETATM   30  C12 UNL     1      28.640   8.818  49.188  1.00  0.00     0.053 A 
ENDBRANCH  22  24
ENDBRANCH   7  22
BRANCH   1  31
HETATM   31  O1  UNL     1      21.951   4.824  46.073  1.00  0.00    -0.340 OA
HETATM   32  C1  UNL     1      21.498   3.973  45.049  1.00  0.00     0.211 C 
ENDBRANCH   1  31
TORSDOF 3
ENDMDL
MODEL 9
REMARK VINA RESULT:      -8.0      7.189     10.505
REMARK  3 active torsions:
REMARK  status: ('A' for Active; 'I' for Inactive)
REMARK    1  A    between atoms: O1_2  and  C2_3 
REMARK    2  A    between atoms: C6_9  and  N3_10 
REMARK    3  A    between atoms: N3_10  and  C7_11 
ROOT
HETATM    1  C2  UNL     1      31.561   5.031  48.091  1.00  0.00     0.164 C 
HETATM    2  C3  UNL     1      30.356   5.456  48.151  1.00  0.00     0.090 C 
HETATM    3  C4  UNL     1      29.023   5.879  48.159  1.00  0.00     0.076 A 
HETATM    4  N1  UNL     1      28.280   4.879  48.645  1.00  0.00    -0.241 NA
HETATM    5  C5  UNL     1      26.954   4.977  48.807  1.00  0.00     0.236 A 
HETATM    6  N2  UNL     1      26.319   6.100  48.480  1.00  0.00    -0.224 NA
HETATM    7  C6  UNL     1      27.034   7.128  47.988  1.00  0.00     0.142 A 
HETATM    8  C13 UNL     1      28.397   7.024  47.822  1.00  0.00     0.041 A 
HETATM    9  C14 UNL     1      29.073   8.183  47.303  1.00  0.00     0.045 C 
HETATM   10  C15 UNL     1      29.775   9.210  46.920  1.00  0.00     0.032 C 
HETATM   11  C16 UNL     1      29.652  10.296  45.876  1.00  0.00     0.224 C 
HETATM   12  O2  UNL     1      29.572  11.486  46.543  1.00  0.00    -0.384 OA
HETATM   13  C17 UNL     1      30.811  11.920  46.952  1.00  0.00     0.187 C 
HETATM   14  C18 UNL     1      31.541  10.889  47.789  1.00  0.00     0.149 C 
HETATM   15  N4  UNL     1      31.080   9.564  47.482  1.00  0.00    -0.380 N 
HETATM   16  C19 UNL     1      31.862   8.422  47.674  1.00  0.00     0.125 C 
HETATM   17  C20 UNL     1      33.355   8.546  47.818  1.00  0.00     0.048 C 
HETATM   18  C21 UNL     1      33.782   7.053  47.893  1.00  0.00     0.203 C 
HETATM   19  O3  UNL     1      33.115   6.437  48.948  1.00  0.00    -0.278 OA
HETATM   20  N5  UNL     1      32.832   5.132  48.709  1.00  0.00    -0.245 N 
HETATM   21  H24 UNL     1      33.283   4.191  48.854  1.00  0.00     0.196 HD
ENDROOT
BRANCH   7  22
HETATM   22  N3  UNL     1      26.352   8.332  47.633  1.00  0.00    -0.340 N 
HETATM   23  H6  UNL     1      26.289   9.262  48.097  1.00  0.00     0.167 HD
BRANCH  22  24
HETATM   24  C7  UNL     1      25.614   8.224  46.398  1.00  0.00     0.035 A 
HETATM   25  C8  UNL     1      26.230   8.514  45.173  1.00  0.00     0.029 A 
HETATM   26  C9  UNL     1      25.564   8.426  43.950  1.00  0.00     0.004 A 
HETATM   27  C10 UNL     1      24.251   8.033  44.010  1.00  0.00     0.024 A 
HETATM   28  C11 UNL     1      23.576   7.733  45.153  1.00  0.00     0.036 A 
HETATM   29 CL1  UNL     1      21.897   7.240  45.144  1.00  0.00    -0.084 Cl
HETATM   30  C12 UNL     1      24.272   7.831  46.352  1.00  0.00     0.053 A 
ENDBRANCH  22  24
ENDBRANCH   7  22
BRANCH   1  31
HETATM   31  O1  UNL     1      31.311   4.238  47.011  1.00  0.00    -0.340 OA
HETATM   32  C1  UNL     1      32.092   3.149  46.585  1.00  0.00     0.211 C 
ENDBRANCH   1  31
TORSDOF 3
ENDMDL
