MODEL 1
REMARK VINA RESULT:      -9.2      0.000      0.000
REMARK  4 active torsions:
REMARK  status: ('A' for Active; 'I' for Inactive)
REMARK    1  A    between atoms: C2_2  and  C3_3 
REMARK       I    between atoms: C3_3  and  N1_5 
REMARK    2  A    between atoms: N1_5  and  C4_6 
REMARK    3  A    between atoms: C11_15  and  N4_16 
REMARK    4  A    between atoms: N4_16  and  C12_17 
ROOT
HETATM    1  C4  UNL     1      26.187   0.748  53.458  1.00  0.00     0.035 C 
HETATM    2  C5  UNL     1      25.168  -0.163  53.422  1.00  0.00     0.031 C 
HETATM    3  C6  UNL     1      24.025  -0.637  54.037  1.00  0.00     0.021 C 
HETATM    4  C7  UNL     1      22.725  -0.336  53.622  1.00  0.00     0.116 C 
HETATM    5  N2  UNL     1      22.662   0.908  53.132  1.00  0.00    -0.272 NA
HETATM    6  C8  UNL     1      22.604   1.149  51.792  1.00  0.00     0.141 C 
HETATM    7  C9  UNL     1      22.890   2.496  52.053  1.00  0.00     0.088 C 
HETATM    8  C10 UNL     1      21.735   3.368  51.895  1.00  0.00     0.103 C 
HETATM    9  N3  UNL     1      20.805   4.075  51.749  1.00  0.00    -0.191 NA
HETATM   10  C11 UNL     1      24.055   3.177  52.432  1.00  0.00     0.055 C 
HETATM   11  C18 UNL     1      24.963   2.869  53.428  1.00  0.00     0.033 C 
HETATM   12  C19 UNL     1      26.076   2.099  53.700  1.00  0.00     0.032 C 
ENDROOT
BRANCH  10  13
HETATM   13  N4  UNL     1      24.294   4.349  51.646  1.00  0.00    -0.355 N 
HETATM   14  H9  UNL     1      23.593   5.082  51.948  1.00  0.00     0.166 HD
BRANCH  13  15
HETATM   15  C12 UNL     1      25.229   4.634  50.639  1.00  0.00     0.033 A 
HETATM   16  C13 UNL     1      26.097   3.655  50.197  1.00  0.00     0.029 A 
HETATM   17  C14 UNL     1      26.977   4.034  49.203  1.00  0.00     0.004 A 
HETATM   18  C15 UNL     1      27.052   5.299  48.629  1.00  0.00     0.019 A 
HETATM   19  C16 UNL     1      26.170   6.251  49.095  1.00  0.00     0.013 A 
HETATM   20 BR1  UNL     1      26.221   8.008  48.349  1.00  0.00    -0.051 Br
HETATM   21  C17 UNL     1      25.278   5.898  50.089  1.00  0.00     0.048 A 
ENDBRANCH  13  15
ENDBRANCH  10  13
BRANCH   1  22
HETATM   22  N1  UNL     1      27.441   0.143  53.208  1.00  0.00    -0.324 N 
HETATM   23  C3  UNL     1      28.523   0.089  54.128  1.00  0.00     0.244 C 
HETATM   24  O1  UNL     1      28.472   0.581  55.278  1.00  0.00    -0.268 OA
HETATM   25  H4  UNL     1      27.506  -0.278  52.246  1.00  0.00     0.169 HD
BRANCH  23  26
HETATM   26  C2  UNL     1      29.745  -0.579  53.693  1.00  0.00     0.064 C 
HETATM   27  C1  UNL     1      29.677  -1.853  53.351  1.00  0.00     0.017 C 
ENDBRANCH  23  26
ENDBRANCH   1  22
TORSDOF 4
ENDMDL
MODEL 2
REMARK VINA RESULT:      -9.0      1.404      1.893
REMARK  4 active torsions:
REMARK  status: ('A' for Active; 'I' for Inactive)
REMARK    1  A    between atoms: C2_2  and  C3_3 
REMARK       I    between atoms: C3_3  and  N1_5 
REMARK    2  A    between atoms: N1_5  and  C4_6 
REMARK    3  A    between atoms: C11_15  and  N4_16 
REMARK    4  A    between atoms: N4_16  and  C12_17 
ROOT
HETATM    1  C4  UNL     1      25.089   0.434  53.213  1.00  0.00     0.035 C 
HETATM    2  C5  UNL     1      24.113  -0.449  53.587  1.00  0.00     0.031 C 
HETATM    3  C6  UNL     1      23.144  -0.765  54.520  1.00  0.00     0.021 C 
HETATM    4  C7  UNL     1      21.777  -0.536  54.344  1.00  0.00     0.116 C 
HETATM    5  N2  UNL     1      21.573   0.579  53.633  1.00  0.00    -0.272 NA
HETATM    6  C8  UNL     1      21.221   0.538  52.317  1.00  0.00     0.141 C 
HETATM    7  C9  UNL     1      21.517   1.905  52.226  1.00  0.00     0.088 C 
HETATM    8  C10 UNL     1      20.330   2.744  52.147  1.00  0.00     0.103 C 
HETATM    9  N3  UNL     1      19.369   3.420  52.063  1.00  0.00    -0.191 NA
HETATM   10  C11 UNL     1      22.715   2.630  52.195  1.00  0.00     0.055 C 
HETATM   11  C18 UNL     1      23.825   2.522  53.012  1.00  0.00     0.033 C 
HETATM   12  C19 UNL     1      24.993   1.807  53.189  1.00  0.00     0.032 C 
ENDROOT
BRANCH  10  13
HETATM   13  N4  UNL     1      22.745   3.610  51.152  1.00  0.00    -0.355 N 
HETATM   14  H9  UNL     1      21.907   3.438  50.530  1.00  0.00     0.166 HD
BRANCH  13  15
HETATM   15  C12 UNL     1      23.635   4.657  50.868  1.00  0.00     0.033 A 
HETATM   16  C13 UNL     1      23.382   5.933  51.331  1.00  0.00     0.029 A 
HETATM   17  C14 UNL     1      24.317   6.892  50.999  1.00  0.00     0.004 A 
HETATM   18  C15 UNL     1      25.469   6.672  50.249  1.00  0.00     0.019 A 
HETATM   19  C16 UNL     1      25.689   5.387  49.803  1.00  0.00     0.013 A 
HETATM   20 BR1  UNL     1      27.251   5.018  48.768  1.00  0.00    -0.051 Br
HETATM   21  C17 UNL     1      24.769   4.408  50.121  1.00  0.00     0.048 A 
ENDBRANCH  13  15
ENDBRANCH  10  13
BRANCH   1  22
HETATM   22  N1  UNL     1      26.276  -0.231  52.826  1.00  0.00    -0.324 N 
HETATM   23  C3  UNL     1      27.368  -0.523  53.688  1.00  0.00     0.244 C 
HETATM   24  O1  UNL     1      27.388  -0.216  54.902  1.00  0.00    -0.268 OA
HETATM   25  H4  UNL     1      26.281  -0.499  51.810  1.00  0.00     0.169 HD
BRANCH  23  26
HETATM   26  C2  UNL     1      28.515  -1.217  53.111  1.00  0.00     0.064 C 
HETATM   27  C1  UNL     1      29.711  -0.988  53.623  1.00  0.00     0.017 C 
ENDBRANCH  23  26
ENDBRANCH   1  22
TORSDOF 4
ENDMDL
MODEL 3
REMARK VINA RESULT:      -8.4      3.074      5.722
REMARK  4 active torsions:
REMARK  status: ('A' for Active; 'I' for Inactive)
REMARK    1  A    between atoms: C2_2  and  C3_3 
REMARK       I    between atoms: C3_3  and  N1_5 
REMARK    2  A    between atoms: N1_5  and  C4_6 
REMARK    3  A    between atoms: C11_15  and  N4_16 
REMARK    4  A    between atoms: N4_16  and  C12_17 
ROOT
HETATM    1  C4  UNL     1      26.351   1.654  51.704  1.00  0.00     0.035 C 
HETATM    2  C5  UNL     1      26.581   2.831  51.046  1.00  0.00     0.031 C 
HETATM    3  C6  UNL     1      26.460   3.529  49.861  1.00  0.00     0.021 C 
HETATM    4  C7  UNL     1      25.473   4.486  49.607  1.00  0.00     0.116 C 
HETATM    5  N2  UNL     1      24.330   4.160  50.222  1.00  0.00    -0.272 NA
HETATM    6  C8  UNL     1      23.927   4.782  51.366  1.00  0.00     0.141 C 
HETATM    7  C9  UNL     1      22.975   3.770  51.545  1.00  0.00     0.088 C 
HETATM    8  C10 UNL     1      21.616   4.204  51.257  1.00  0.00     0.103 C 
HETATM    9  N3  UNL     1      20.514   4.561  51.041  1.00  0.00    -0.191 NA
HETATM   10  C11 UNL     1      23.059   2.429  51.945  1.00  0.00     0.055 C 
HETATM   11  C18 UNL     1      23.919   1.438  51.509  1.00  0.00     0.033 C 
HETATM   12  C19 UNL     1      25.185   0.922  51.699  1.00  0.00     0.032 C 
ENDROOT
BRANCH  10  13
HETATM   13  N4  UNL     1      22.097   2.087  52.948  1.00  0.00    -0.355 N 
HETATM   14  H9  UNL     1      21.788   2.985  53.412  1.00  0.00     0.166 HD
BRANCH  13  15
HETATM   15  C12 UNL     1      21.562   0.856  53.359  1.00  0.00     0.033 A 
HETATM   16  C13 UNL     1      22.326  -0.023  54.102  1.00  0.00     0.029 A 
HETATM   17  C14 UNL     1      21.710  -1.206  54.458  1.00  0.00     0.004 A 
HETATM   18  C15 UNL     1      20.407  -1.569  54.129  1.00  0.00     0.019 A 
HETATM   19  C16 UNL     1      19.675  -0.668  53.385  1.00  0.00     0.013 A 
HETATM   20 BR1  UNL     1      17.880  -1.106  52.900  1.00  0.00    -0.051 Br
HETATM   21  C17 UNL     1      20.267   0.524  53.017  1.00  0.00     0.048 A 
ENDBRANCH  13  15
ENDBRANCH  10  13
BRANCH   1  22
HETATM   22  N1  UNL     1      27.486   1.232  52.436  1.00  0.00    -0.324 N 
HETATM   23  C3  UNL     1      27.634   1.331  53.847  1.00  0.00     0.244 C 
HETATM   24  O1  UNL     1      26.755   1.811  54.598  1.00  0.00    -0.268 OA
HETATM   25  H4  UNL     1      28.237   0.825  51.824  1.00  0.00     0.169 HD
BRANCH  23  26
HETATM   26  C2  UNL     1      28.879   0.844  54.429  1.00  0.00     0.064 C 
HETATM   27  C1  UNL     1      29.676   0.104  53.678  1.00  0.00     0.017 C 
ENDBRANCH  23  26
ENDBRANCH   1  22
TORSDOF 4
ENDMDL
MODEL 4
REMARK VINA RESULT:      -8.2      3.236      6.181
REMARK  4 active torsions:
REMARK  status: ('A' for Active; 'I' for Inactive)
REMARK    1  A    between atoms: C2_2  and  C3_3 
REMARK       I    between atoms: C3_3  and  N1_5 
REMARK    2  A    between atoms: N1_5  and  C4_6 
REMARK    3  A    between atoms: C11_15  and  N4_16 
REMARK    4  A    between atoms: N4_16  and  C12_17 
ROOT
HETATM    1  C4  UNL     1      22.611   3.107  50.993  1.00  0.00     0.035 C 
HETATM    2  C5  UNL     1      21.280   3.044  51.300  1.00  0.00     0.031 C 
HETATM    3  C6  UNL     1      20.084   2.381  51.106  1.00  0.00     0.021 C 
HETATM    4  C7  UNL     1      19.535   1.465  52.008  1.00  0.00     0.116 C 
HETATM    5  N2  UNL     1      20.500   0.777  52.628  1.00  0.00    -0.272 NA
HETATM    6  C8  UNL     1      20.869   1.052  53.911  1.00  0.00     0.141 C 
HETATM    7  C9  UNL     1      22.010   0.262  53.721  1.00  0.00     0.088 C 
HETATM    8  C10 UNL     1      21.937  -1.024  54.399  1.00  0.00     0.103 C 
HETATM    9  N3  UNL     1      21.884  -2.057  54.963  1.00  0.00    -0.191 NA
HETATM   10  C11 UNL     1      23.207   0.453  53.016  1.00  0.00     0.055 C 
HETATM   11  C18 UNL     1      23.398   0.907  51.724  1.00  0.00     0.033 C 
HETATM   12  C19 UNL     1      23.501   2.058  50.969  1.00  0.00     0.032 C 
ENDROOT
BRANCH  10  13
HETATM   13  N4  UNL     1      24.366   0.116  53.786  1.00  0.00    -0.355 N 
HETATM   14  H9  UNL     1      24.067  -0.586  54.518  1.00  0.00     0.166 HD
BRANCH  13  15
HETATM   15  C12 UNL     1      25.701   0.541  53.714  1.00  0.00     0.033 A 
HETATM   16  C13 UNL     1      26.006   1.888  53.734  1.00  0.00     0.029 A 
HETATM   17  C14 UNL     1      27.347   2.204  53.659  1.00  0.00     0.004 A 
HETATM   18  C15 UNL     1      28.389   1.286  53.566  1.00  0.00     0.019 A 
HETATM   19  C16 UNL     1      28.048  -0.049  53.548  1.00  0.00     0.013 A 
HETATM   20 BR1  UNL     1      29.432  -1.360  53.421  1.00  0.00    -0.051 Br
HETATM   21  C17 UNL     1      26.713  -0.393  53.622  1.00  0.00     0.048 A 
ENDBRANCH  13  15
ENDBRANCH  10  13
BRANCH   1  22
HETATM   22  N1  UNL     1      23.016   4.427  50.685  1.00  0.00    -0.324 N 
HETATM   23  C3  UNL     1      23.505   5.374  51.625  1.00  0.00     0.244 C 
HETATM   24  O1  UNL     1      23.631   5.129  52.846  1.00  0.00    -0.268 OA
HETATM   25  H4  UNL     1      22.919   4.655  49.663  1.00  0.00     0.169 HD
BRANCH  23  26
HETATM   26  C2  UNL     1      23.875   6.693  51.122  1.00  0.00     0.064 C 
HETATM   27  C1  UNL     1      25.007   6.814  50.451  1.00  0.00     0.017 C 
ENDBRANCH  23  26
ENDBRANCH   1  22
TORSDOF 4
ENDMDL
MODEL 5
REMARK VINA RESULT:      -8.1      3.449      6.654
REMARK  4 active torsions:
REMARK  status: ('A' for Active; 'I' for Inactive)
REMARK    1  A    between atoms: C2_2  and  C3_3 
REMARK       I    between atoms: C3_3  and  N1_5 
REMARK    2  A    between atoms: N1_5  and  C4_6 
REMARK    3  A    between atoms: C11_15  and  N4_16 
REMARK    4  A    between atoms: N4_16  and  C12_17 
ROOT
HETATM    1  C4  UNL     1      25.859   5.193  49.008  1.00  0.00     0.035 C 
HETATM    2  C5  UNL     1      24.510   5.312  48.821  1.00  0.00     0.031 C 
HETATM    3  C6  UNL     1      23.360   4.726  48.327  1.00  0.00     0.021 C 
HETATM    4  C7  UNL     1      22.404   4.081  49.116  1.00  0.00     0.116 C 
HETATM    5  N2  UNL     1      22.984   3.465  50.153  1.00  0.00    -0.272 NA
HETATM    6  C8  UNL     1      22.939   3.983  51.413  1.00  0.00     0.141 C 
HETATM    7  C9  UNL     1      23.939   3.077  51.789  1.00  0.00     0.088 C 
HETATM    8  C10 UNL     1      23.441   1.982  52.609  1.00  0.00     0.103 C 
HETATM    9  N3  UNL     1      23.041   1.106  53.287  1.00  0.00    -0.191 NA
HETATM   10  C11 UNL     1      25.317   3.006  51.542  1.00  0.00     0.055 C 
HETATM   11  C18 UNL     1      26.000   3.148  50.348  1.00  0.00     0.033 C 
HETATM   12  C19 UNL     1      26.530   4.092  49.491  1.00  0.00     0.032 C 
ENDROOT
BRANCH  10  13
HETATM   13  N4  UNL     1      26.082   2.749  52.724  1.00  0.00    -0.355 N 
HETATM   14  H9  UNL     1      25.775   3.445  53.459  1.00  0.00     0.166 HD
BRANCH  13  15
HETATM   15  C12 UNL     1      27.077   1.803  53.015  1.00  0.00     0.033 A 
HETATM   16  C13 UNL     1      28.281   2.203  53.561  1.00  0.00     0.029 A 
HETATM   17  C14 UNL     1      29.193   1.197  53.811  1.00  0.00     0.004 A 
HETATM   18  C15 UNL     1      28.993  -0.156  53.558  1.00  0.00     0.019 A 
HETATM   19  C16 UNL     1      27.780  -0.519  53.012  1.00  0.00     0.013 A 
HETATM   20 BR1  UNL     1      27.442  -2.362  52.641  1.00  0.00    -0.051 Br
HETATM   21  C17 UNL     1      26.849   0.467  52.753  1.00  0.00     0.048 A 
ENDBRANCH  13  15
ENDBRANCH  10  13
BRANCH   1  22
HETATM   22  N1  UNL     1      26.546   6.374  48.640  1.00  0.00    -0.324 N 
HETATM   23  C3  UNL     1      26.601   7.564  49.415  1.00  0.00     0.244 C 
HETATM   24  O1  UNL     1      26.035   7.688  50.525  1.00  0.00    -0.268 OA
HETATM   25  H4  UNL     1      27.029   6.291  47.710  1.00  0.00     0.169 HD
BRANCH  23  26
HETATM   26  C2  UNL     1      27.359   8.686  48.873  1.00  0.00     0.064 C 
HETATM   27  C1  UNL     1      28.640   8.786  49.182  1.00  0.00     0.017 C 
ENDBRANCH  23  26
ENDBRANCH   1  22
TORSDOF 4
ENDMDL
MODEL 6
REMARK VINA RESULT:      -8.1      3.336      6.559
REMARK  4 active torsions:
REMARK  status: ('A' for Active; 'I' for Inactive)
REMARK    1  A    between atoms: C2_2  and  C3_3 
REMARK       I    between atoms: C3_3  and  N1_5 
REMARK    2  A    between atoms: N1_5  and  C4_6 
REMARK    3  A    between atoms: C11_15  and  N4_16 
REMARK    4  A    between atoms: N4_16  and  C12_17 
ROOT
HETATM    1  C4  UNL     1      26.651   5.441  49.078  1.00  0.00     0.035 C 
HETATM    2  C5  UNL     1      25.465   6.072  48.823  1.00  0.00     0.031 C 
HETATM    3  C6  UNL     1      24.245   6.011  48.178  1.00  0.00     0.021 C 
HETATM    4  C7  UNL     1      23.039   5.684  48.803  1.00  0.00     0.116 C 
HETATM    5  N2  UNL     1      23.239   4.787  49.775  1.00  0.00    -0.272 NA
HETATM    6  C8  UNL     1      23.241   5.143  51.091  1.00  0.00     0.141 C 
HETATM    7  C9  UNL     1      23.800   3.895  51.396  1.00  0.00     0.088 C 
HETATM    8  C10 UNL     1      22.853   2.979  52.016  1.00  0.00     0.103 C 
HETATM    9  N3  UNL     1      22.091   2.245  52.535  1.00  0.00    -0.191 NA
HETATM   10  C11 UNL     1      25.079   3.346  51.231  1.00  0.00     0.055 C 
HETATM   11  C18 UNL     1      25.897   3.355  50.116  1.00  0.00     0.033 C 
HETATM   12  C19 UNL     1      26.823   4.123  49.440  1.00  0.00     0.032 C 
ENDROOT
BRANCH  10  13
HETATM   13  N4  UNL     1      25.562   2.695  52.411  1.00  0.00    -0.355 N 
HETATM   14  H9  UNL     1      25.470   3.379  53.211  1.00  0.00     0.166 HD
BRANCH  13  15
HETATM   15  C12 UNL     1      26.086   1.412  52.631  1.00  0.00     0.033 A 
HETATM   16  C13 UNL     1      25.267   0.302  52.553  1.00  0.00     0.029 A 
HETATM   17  C14 UNL     1      25.877  -0.914  52.785  1.00  0.00     0.004 A 
HETATM   18  C15 UNL     1      27.223  -1.099  53.086  1.00  0.00     0.019 A 
HETATM   19  C16 UNL     1      28.010   0.031  53.156  1.00  0.00     0.013 A 
HETATM   20 BR1  UNL     1      29.866  -0.153  53.565  1.00  0.00    -0.051 Br
HETATM   21  C17 UNL     1      27.425   1.261  52.927  1.00  0.00     0.048 A 
ENDBRANCH  13  15
ENDBRANCH  10  13
BRANCH   1  22
HETATM   22  N1  UNL     1      27.753   6.316  48.929  1.00  0.00    -0.324 N 
HETATM   23  C3  UNL     1      29.016   5.957  48.385  1.00  0.00     0.244 C 
HETATM   24  O1  UNL     1      29.285   4.805  47.973  1.00  0.00    -0.268 OA
HETATM   25  H4  UNL     1      27.548   7.289  49.268  1.00  0.00     0.169 HD
BRANCH  23  26
HETATM   26  C2  UNL     1      30.037   6.996  48.311  1.00  0.00     0.064 C 
HETATM   27  C1  UNL     1      29.673   8.250  48.514  1.00  0.00     0.017 C 
ENDBRANCH  23  26
ENDBRANCH   1  22
TORSDOF 4
ENDMDL
MODEL 7
REMARK VINA RESULT:      -8.1      1.753      2.126
REMARK  4 active torsions:
REMARK  status: ('A' for Active; 'I' for Inactive)
REMARK    1  A    between atoms: C2_2  and  C3_3 
REMARK       I    between atoms: C3_3  and  N1_5 
REMARK    2  A    between atoms: N1_5  and  C4_6 
REMARK    3  A    between atoms: C11_15  and  N4_16 
REMARK    4  A    between atoms: N4_16  and  C12_17 
ROOT
HETATM    1  C4  UNL     1      24.341   1.449  53.061  1.00  0.00     0.035 C 
HETATM    2  C5  UNL     1      23.464   0.509  52.595  1.00  0.00     0.031 C 
HETATM    3  C6  UNL     1      22.155   0.070  52.566  1.00  0.00     0.021 C 
HETATM    4  C7  UNL     1      21.274   0.286  51.503  1.00  0.00     0.116 C 
HETATM    5  N2  UNL     1      21.515   1.467  50.922  1.00  0.00    -0.272 NA
HETATM    6  C8  UNL     1      22.176   1.562  49.734  1.00  0.00     0.141 C 
HETATM    7  C9  UNL     1      22.324   2.937  49.960  1.00  0.00     0.088 C 
HETATM    8  C10 UNL     1      21.450   3.752  49.129  1.00  0.00     0.103 C 
HETATM    9  N3  UNL     1      20.756   4.411  48.443  1.00  0.00    -0.191 NA
HETATM   10  C11 UNL     1      23.139   3.689  50.818  1.00  0.00     0.055 C 
HETATM   11  C18 UNL     1      23.380   3.517  52.169  1.00  0.00     0.033 C 
HETATM   12  C19 UNL     1      24.162   2.814  53.063  1.00  0.00     0.032 C 
ENDROOT
BRANCH  10  13
HETATM   13  N4  UNL     1      23.789   4.777  50.154  1.00  0.00    -0.355 N 
HETATM   14  H9  UNL     1      23.100   5.578  50.106  1.00  0.00     0.166 HD
BRANCH  13  15
HETATM   15  C12 UNL     1      25.077   4.917  49.615  1.00  0.00     0.033 A 
HETATM   16  C13 UNL     1      25.972   3.866  49.665  1.00  0.00     0.029 A 
HETATM   17  C14 UNL     1      27.212   4.102  49.107  1.00  0.00     0.004 A 
HETATM   18  C15 UNL     1      27.617   5.294  48.515  1.00  0.00     0.019 A 
HETATM   19  C16 UNL     1      26.699   6.322  48.483  1.00  0.00     0.013 A 
HETATM   20 BR1  UNL     1      27.193   7.984  47.684  1.00  0.00    -0.051 Br
HETATM   21  C17 UNL     1      25.450   6.112  49.034  1.00  0.00     0.048 A 
ENDBRANCH  13  15
ENDBRANCH  10  13
BRANCH   1  22
HETATM   22  N1  UNL     1      25.521   0.858  53.571  1.00  0.00    -0.324 N 
HETATM   23  C3  UNL     1      26.730   0.685  52.844  1.00  0.00     0.244 C 
HETATM   24  O1  UNL     1      26.875   1.047  51.654  1.00  0.00    -0.268 OA
HETATM   25  H4  UNL     1      25.422   0.547  54.570  1.00  0.00     0.169 HD
BRANCH  23  26
HETATM   26  C2  UNL     1      27.847   0.052  53.536  1.00  0.00     0.064 C 
HETATM   27  C1  UNL     1      29.018   0.664  53.532  1.00  0.00     0.017 C 
ENDBRANCH  23  26
ENDBRANCH   1  22
TORSDOF 4
ENDMDL
MODEL 8
REMARK VINA RESULT:      -7.9      2.620      5.252
REMARK  4 active torsions:
REMARK  status: ('A' for Active; 'I' for Inactive)
REMARK    1  A    between atoms: C2_2  and  C3_3 
REMARK       I    between atoms: C3_3  and  N1_5 
REMARK    2  A    between atoms: N1_5  and  C4_6 
REMARK    3  A    between atoms: C11_15  and  N4_16 
REMARK    4  A    between atoms: N4_16  and  C12_17 
ROOT
HETATM    1  C4  UNL     1      26.088   2.635  52.255  1.00  0.00     0.035 C 
HETATM    2  C5  UNL     1      26.842   1.665  52.855  1.00  0.00     0.031 C 
HETATM    3  C6  UNL     1      27.279   1.118  54.046  1.00  0.00     0.021 C 
HETATM    4  C7  UNL     1      26.745  -0.036  54.625  1.00  0.00     0.116 C 
HETATM    5  N2  UNL     1      25.433  -0.126  54.378  1.00  0.00    -0.272 NA
HETATM    6  C8  UNL     1      24.936  -0.978  53.437  1.00  0.00     0.141 C 
HETATM    7  C9  UNL     1      23.710  -0.305  53.519  1.00  0.00     0.088 C 
HETATM    8  C10 UNL     1      22.688  -1.063  54.226  1.00  0.00     0.103 C 
HETATM    9  N3  UNL     1      21.856  -1.685  54.782  1.00  0.00    -0.191 NA
HETATM   10  C11 UNL     1      23.264   0.942  53.062  1.00  0.00     0.055 C 
HETATM   11  C18 UNL     1      23.865   2.182  53.177  1.00  0.00     0.033 C 
HETATM   12  C19 UNL     1      24.804   3.005  52.588  1.00  0.00     0.032 C 
ENDROOT
BRANCH  10  13
HETATM   13  N4  UNL     1      22.002   0.869  52.390  1.00  0.00    -0.355 N 
HETATM   14  H9  UNL     1      21.522  -0.017  52.711  1.00  0.00     0.166 HD
BRANCH  13  15
HETATM   15  C12 UNL     1      21.378   1.717  51.462  1.00  0.00     0.033 A 
HETATM   16  C13 UNL     1      20.266   2.451  51.826  1.00  0.00     0.029 A 
HETATM   17  C14 UNL     1      19.727   3.256  50.842  1.00  0.00     0.004 A 
HETATM   18  C15 UNL     1      20.209   3.377  49.543  1.00  0.00     0.019 A 
HETATM   19  C16 UNL     1      21.320   2.629  49.215  1.00  0.00     0.013 A 
HETATM   20 BR1  UNL     1      22.032   2.750  47.447  1.00  0.00    -0.051 Br
HETATM   21  C17 UNL     1      21.880   1.816  50.180  1.00  0.00     0.048 A 
ENDBRANCH  13  15
ENDBRANCH  10  13
BRANCH   1  22
HETATM   22  N1  UNL     1      26.785   3.261  51.195  1.00  0.00    -0.324 N 
HETATM   23  C3  UNL     1      26.250   3.523  49.904  1.00  0.00     0.244 C 
HETATM   24  O1  UNL     1      25.082   3.221  49.570  1.00  0.00    -0.268 OA
HETATM   25  H4  UNL     1      27.769   3.524  51.454  1.00  0.00     0.169 HD
BRANCH  23  26
HETATM   26  C2  UNL     1      27.121   4.179  48.935  1.00  0.00     0.064 C 
HETATM   27  C1  UNL     1      26.978   5.478  48.740  1.00  0.00     0.017 C 
ENDBRANCH  23  26
ENDBRANCH   1  22
TORSDOF 4
ENDMDL
MODEL 9
REMARK VINA RESULT:      -7.8      4.097      7.056
REMARK  4 active torsions:
REMARK  status: ('A' for Active; 'I' for Inactive)
REMARK    1  A    between atoms: C2_2  and  C3_3 
REMARK       I    between atoms: C3_3  and  N1_5 
REMARK    2  A    between atoms: N1_5  and  C4_6 
REMARK    3  A    between atoms: C11_15  and  N4_16 
REMARK    4  A    between atoms: N4_16  and  C12_17 
ROOT
HETATM    1  C4  UNL     1      19.988   1.443  50.728  1.00  0.00     0.035 C 
HETATM    2  C5  UNL     1      18.999   0.853  51.467  1.00  0.00     0.031 C 
HETATM    3  C6  UNL     1      18.385  -0.329  51.831  1.00  0.00     0.021 C 
HETATM    4  C7  UNL     1      18.608  -0.993  53.041  1.00  0.00     0.116 C 
HETATM    5  N2  UNL     1      19.876  -0.838  53.438  1.00  0.00    -0.272 NA
HETATM    6  C8  UNL     1      20.217   0.029  54.433  1.00  0.00     0.141 C 
HETATM    7  C9  UNL     1      21.558  -0.106  54.050  1.00  0.00     0.088 C 
HETATM    8  C10 UNL     1      22.340  -0.912  54.976  1.00  0.00     0.103 C 
HETATM    9  N3  UNL     1      22.976  -1.549  55.736  1.00  0.00    -0.191 NA
HETATM   10  C11 UNL     1      22.302   0.375  52.963  1.00  0.00     0.055 C 
HETATM   11  C18 UNL     1      21.994   0.355  51.616  1.00  0.00     0.033 C 
HETATM   12  C19 UNL     1      21.301   1.040  50.638  1.00  0.00     0.032 C 
ENDROOT
BRANCH  10  13
HETATM   13  N4  UNL     1      23.549   0.957  53.357  1.00  0.00    -0.355 N 
HETATM   14  H9  UNL     1      23.333   1.868  53.849  1.00  0.00     0.166 HD
BRANCH  13  15
HETATM   15  C12 UNL     1      24.878   0.534  53.200  1.00  0.00     0.033 A 
HETATM   16  C13 UNL     1      25.155  -0.762  52.811  1.00  0.00     0.029 A 
HETATM   17  C14 UNL     1      26.492  -1.080  52.684  1.00  0.00     0.004 A 
HETATM   18  C15 UNL     1      27.555  -0.212  52.914  1.00  0.00     0.019 A 
HETATM   19  C16 UNL     1      27.240   1.074  53.301  1.00  0.00     0.013 A 
HETATM   20 BR1  UNL     1      28.653   2.315  53.633  1.00  0.00    -0.051 Br
HETATM   21  C17 UNL     1      25.910   1.419  53.436  1.00  0.00     0.048 A 
ENDBRANCH  13  15
ENDBRANCH  10  13
BRANCH   1  22
HETATM   22  N1  UNL     1      19.511   2.573  50.023  1.00  0.00    -0.324 N 
HETATM   23  C3  UNL     1      19.612   3.919  50.470  1.00  0.00     0.244 C 
HETATM   24  O1  UNL     1      20.145   4.245  51.554  1.00  0.00    -0.268 OA
HETATM   25  H4  UNL     1      19.059   2.322  49.108  1.00  0.00     0.169 HD
BRANCH  23  26
HETATM   26  C2  UNL     1      19.061   4.958  49.607  1.00  0.00     0.064 C 
HETATM   27  C1  UNL     1      19.624   6.153  49.623  1.00  0.00     0.017 C 
ENDBRANCH  23  26
ENDBRANCH   1  22
TORSDOF 4
ENDMDL
