MODEL 1
REMARK VINA RESULT:      -9.7      0.000      0.000
REMARK  4 active torsions:
REMARK  status: ('A' for Active; 'I' for Inactive)
REMARK    1  A    between atoms: C11_15  and  N3_16 
REMARK    2  A    between atoms: N3_16  and  C12_17 
REMARK    3  A    between atoms: N5_25  and  C19_26 
REMARK    4  A    between atoms: C22_29  and  O3_30 
ROOT
HETATM    1  O1  UNL     1      22.259   1.464  49.505  1.00  0.00    -0.271 OA
HETATM    2  C1  UNL     1      22.691   2.584  49.197  1.00  0.00     0.250 C 
HETATM    3  C2  UNL     1      21.873   2.595  47.911  1.00  0.00     0.278 C 
HETATM    4  O2  UNL     1      20.790   1.569  48.236  1.00  0.00    -0.346 OA
HETATM    5  C3  UNL     1      20.390   1.813  49.617  1.00  0.00     0.054 A 
HETATM    6  C4  UNL     1      20.406   3.149  50.042  1.00  0.00     0.031 A 
HETATM    7  C5  UNL     1      20.102   3.286  51.359  1.00  0.00     0.007 A 
HETATM    8  C6  UNL     1      19.939   1.961  51.511  1.00  0.00     0.063 A 
HETATM    9  C7  UNL     1      19.780   0.612  51.630  1.00  0.00     0.039 A 
HETATM   10  C8  UNL     1      20.106   0.678  50.315  1.00  0.00     0.082 A 
HETATM   11  N1  UNL     1      20.680   2.086  52.783  1.00  0.00    -0.372 N 
HETATM   12  C9  UNL     1      22.067   1.674  52.482  1.00  0.00     0.094 A 
HETATM   13  C10 UNL     1      22.377   0.729  53.472  1.00  0.00     0.169 A 
HETATM   14  N2  UNL     1      23.501   0.025  53.667  1.00  0.00    -0.073 NA
HETATM   15  C11 UNL     1      24.515   0.198  52.834  1.00  0.00     0.728 A 
HETATM   16  N4  UNL     1      24.275   1.075  51.886  1.00  0.00    -0.042 NA
HETATM   17  C18 UNL     1      23.194   1.797  51.642  1.00  0.00     0.180 A 
HETATM   18  N5  UNL     1      23.491   2.606  50.420  1.00  0.00    -0.293 N 
HETATM   19  H7  UNL     1      20.448   2.375  53.755  1.00  0.00     0.161 HD
ENDROOT
BRANCH  15  20
HETATM   20  N3  UNL     1      25.724  -0.521  52.971  1.00  0.00    -0.188 N 
HETATM   21  H9  UNL     1      25.575  -1.566  52.857  1.00  0.00     0.184 HD
BRANCH  20  22
HETATM   22  C12 UNL     1      27.001  -0.036  53.218  1.00  0.00     0.049 A 
HETATM   23  C13 UNL     1      27.391   1.258  53.474  1.00  0.00     0.030 A 
HETATM   24  C14 UNL     1      28.677   1.684  53.734  1.00  0.00     0.002 A 
HETATM   25  C15 UNL     1      29.667   0.722  53.737  1.00  0.00     0.000 A 
HETATM   26  C16 UNL     1      29.345  -0.580  53.490  1.00  0.00     0.002 A 
HETATM   27  C17 UNL     1      28.040  -0.960  53.234  1.00  0.00     0.030 A 
ENDBRANCH  20  22
ENDBRANCH  15  20
BRANCH  18  28
HETATM   28  C19 UNL     1      24.497   3.617  50.440  1.00  0.00     0.097 C 
HETATM   29  C20 UNL     1      25.905   3.116  50.346  1.00  0.00     0.028 C 
HETATM   30  C21 UNL     1      26.601   3.881  49.248  1.00  0.00     0.034 C 
HETATM   31  C22 UNL     1      25.868   5.208  49.270  1.00  0.00     0.120 C 
HETATM   32  C23 UNL     1      24.421   4.695  49.421  1.00  0.00     0.057 C 
BRANCH  31  33
HETATM   33  O3  UNL     1      26.276   5.978  50.328  1.00  0.00    -0.396 OA
HETATM   34  H21 UNL     1      26.888   5.492  50.893  1.00  0.00     0.210 HD
ENDBRANCH  31  33
ENDBRANCH  18  28
TORSDOF 4
ENDMDL
MODEL 2
REMARK VINA RESULT:      -9.5      2.200      4.467
REMARK  4 active torsions:
REMARK  status: ('A' for Active; 'I' for Inactive)
REMARK    1  A    between atoms: C11_15  and  N3_16 
REMARK    2  A    between atoms: N3_16  and  C12_17 
REMARK    3  A    between atoms: N5_25  and  C19_26 
REMARK    4  A    between atoms: C22_29  and  O3_30 
ROOT
HETATM    1  O1  UNL     1      20.639   3.492  51.579  1.00  0.00    -0.271 OA
HETATM    2  C1  UNL     1      20.010   2.487  51.936  1.00  0.00     0.250 C 
HETATM    3  C2  UNL     1      18.677   3.212  51.785  1.00  0.00     0.278 C 
HETATM    4  O2  UNL     1      19.059   4.342  50.831  1.00  0.00    -0.346 OA
HETATM    5  C3  UNL     1      19.940   3.757  49.827  1.00  0.00     0.054 A 
HETATM    6  C4  UNL     1      19.669   2.432  49.459  1.00  0.00     0.031 A 
HETATM    7  C5  UNL     1      20.580   1.931  48.585  1.00  0.00     0.007 A 
HETATM    8  C6  UNL     1      21.268   3.085  48.564  1.00  0.00     0.063 A 
HETATM    9  C7  UNL     1      21.942   4.270  48.566  1.00  0.00     0.039 A 
HETATM   10  C8  UNL     1      20.946   4.585  49.429  1.00  0.00     0.082 A 
HETATM   11  N1  UNL     1      22.500   2.271  48.635  1.00  0.00    -0.372 N 
HETATM   12  C9  UNL     1      22.912   2.288  50.053  1.00  0.00     0.094 A 
HETATM   13  C10 UNL     1      24.267   2.651  50.023  1.00  0.00     0.169 A 
HETATM   14  N2  UNL     1      25.133   2.828  51.031  1.00  0.00    -0.073 NA
HETATM   15  C11 UNL     1      24.712   2.649  52.272  1.00  0.00     0.728 A 
HETATM   16  N4  UNL     1      23.445   2.308  52.356  1.00  0.00    -0.042 NA
HETATM   17  C18 UNL     1      22.546   2.119  51.406  1.00  0.00     0.180 A 
HETATM   18  N5  UNL     1      21.269   1.761  52.096  1.00  0.00    -0.293 N 
HETATM   19  H7  UNL     1      23.082   1.741  47.955  1.00  0.00     0.161 HD
ENDROOT
BRANCH  15  20
HETATM   20  N3  UNL     1      25.565   2.832  53.384  1.00  0.00    -0.188 N 
HETATM   21  H9  UNL     1      25.274   3.669  53.970  1.00  0.00     0.184 HD
BRANCH  20  22
HETATM   22  C12 UNL     1      26.668   2.081  53.767  1.00  0.00     0.049 A 
HETATM   23  C13 UNL     1      28.001   2.386  53.627  1.00  0.00     0.030 A 
HETATM   24  C14 UNL     1      29.063   1.610  54.045  1.00  0.00     0.002 A 
HETATM   25  C15 UNL     1      28.758   0.414  54.663  1.00  0.00     0.000 A 
HETATM   26  C16 UNL     1      27.453   0.053  54.833  1.00  0.00     0.002 A 
HETATM   27  C17 UNL     1      26.422   0.866  54.395  1.00  0.00     0.030 A 
ENDBRANCH  20  22
ENDBRANCH  15  20
BRANCH  18  28
HETATM   28  C19 UNL     1      21.150   0.544  52.830  1.00  0.00     0.097 C 
HETATM   29  C20 UNL     1      22.263  -0.436  52.622  1.00  0.00     0.028 C 
HETATM   30  C21 UNL     1      22.771  -0.861  53.978  1.00  0.00     0.034 C 
HETATM   31  C22 UNL     1      21.533  -0.717  54.840  1.00  0.00     0.120 C 
HETATM   32  C23 UNL     1      21.007   0.631  54.305  1.00  0.00     0.057 C 
BRANCH  31  33
HETATM   33  O3  UNL     1      20.662  -1.754  54.628  1.00  0.00    -0.396 OA
HETATM   34  H21 UNL     1      19.751  -1.477  54.785  1.00  0.00     0.210 HD
ENDBRANCH  31  33
ENDBRANCH  18  28
TORSDOF 4
ENDMDL
MODEL 3
REMARK VINA RESULT:      -8.9      1.916      2.504
REMARK  4 active torsions:
REMARK  status: ('A' for Active; 'I' for Inactive)
REMARK    1  A    between atoms: C11_15  and  N3_16 
REMARK    2  A    between atoms: N3_16  and  C12_17 
REMARK    3  A    between atoms: N5_25  and  C19_26 
REMARK    4  A    between atoms: C22_29  and  O3_30 
ROOT
HETATM    1  O1  UNL     1      22.840   4.184  48.607  1.00  0.00    -0.271 OA
HETATM    2  C1  UNL     1      23.265   5.347  48.560  1.00  0.00     0.250 C 
HETATM    3  C2  UNL     1      22.422   5.652  47.326  1.00  0.00     0.278 C 
HETATM    4  O2  UNL     1      21.345   4.573  47.426  1.00  0.00    -0.346 OA
HETATM    5  C3  UNL     1      20.973   4.488  48.833  1.00  0.00     0.054 A 
HETATM    6  C4  UNL     1      20.997   5.689  49.556  1.00  0.00     0.031 A 
HETATM    7  C5  UNL     1      20.719   5.516  50.874  1.00  0.00     0.007 A 
HETATM    8  C6  UNL     1      20.560   4.191  50.718  1.00  0.00     0.063 A 
HETATM    9  C7  UNL     1      20.404   2.850  50.523  1.00  0.00     0.039 A 
HETATM   10  C8  UNL     1      20.703   3.221  49.254  1.00  0.00     0.082 A 
HETATM   11  N1  UNL     1      21.326   4.020  51.970  1.00  0.00    -0.372 N 
HETATM   12  C9  UNL     1      22.707   3.696  51.554  1.00  0.00     0.094 A 
HETATM   13  C10 UNL     1      23.037   2.549  52.292  1.00  0.00     0.169 A 
HETATM   14  N2  UNL     1      24.165   1.824  52.296  1.00  0.00    -0.073 NA
HETATM   15  C11 UNL     1      25.161   2.191  51.508  1.00  0.00     0.728 A 
HETATM   16  N4  UNL     1      24.902   3.263  50.793  1.00  0.00    -0.042 NA
HETATM   17  C18 UNL     1      23.817   4.017  50.744  1.00  0.00     0.180 A 
HETATM   18  N5  UNL     1      24.089   5.088  49.738  1.00  0.00    -0.293 N 
HETATM   19  H7  UNL     1      21.113   4.075  52.986  1.00  0.00     0.161 HD
ENDROOT
BRANCH  15  20
HETATM   20  N3  UNL     1      26.373   1.466  51.450  1.00  0.00    -0.188 N 
HETATM   21  H9  UNL     1      26.549   1.070  50.480  1.00  0.00     0.184 HD
BRANCH  20  22
HETATM   22  C12 UNL     1      27.298   1.236  52.460  1.00  0.00     0.049 A 
HETATM   23  C13 UNL     1      28.086   2.148  53.122  1.00  0.00     0.030 A 
HETATM   24  C14 UNL     1      28.979   1.867  54.136  1.00  0.00     0.002 A 
HETATM   25  C15 UNL     1      29.092   0.547  54.523  1.00  0.00     0.000 A 
HETATM   26  C16 UNL     1      28.336  -0.406  53.905  1.00  0.00     0.002 A 
HETATM   27  C17 UNL     1      27.455  -0.076  52.892  1.00  0.00     0.030 A 
ENDBRANCH  20  22
ENDBRANCH  15  20
BRANCH  18  28
HETATM   28  C19 UNL     1      25.095   6.072  49.973  1.00  0.00     0.097 C 
HETATM   29  C20 UNL     1      26.204   6.101  48.967  1.00  0.00     0.028 C 
HETATM   30  C21 UNL     1      26.368   7.523  48.491  1.00  0.00     0.034 C 
HETATM   31  C22 UNL     1      25.911   8.317  49.699  1.00  0.00     0.120 C 
HETATM   32  C23 UNL     1      24.668   7.490  50.091  1.00  0.00     0.057 C 
BRANCH  31  33
HETATM   33  O3  UNL     1      26.874   8.329  50.674  1.00  0.00    -0.396 OA
HETATM   34  H21 UNL     1      27.461   9.088  50.570  1.00  0.00     0.210 HD
ENDBRANCH  31  33
ENDBRANCH  18  28
TORSDOF 4
ENDMDL
MODEL 4
REMARK VINA RESULT:      -8.8      2.416      6.325
REMARK  4 active torsions:
REMARK  status: ('A' for Active; 'I' for Inactive)
REMARK    1  A    between atoms: C11_15  and  N3_16 
REMARK    2  A    between atoms: N3_16  and  C12_17 
REMARK    3  A    between atoms: N5_25  and  C19_26 
REMARK    4  A    between atoms: C22_29  and  O3_30 
ROOT
HETATM    1  O1  UNL     1      23.893   2.997  50.124  1.00  0.00    -0.271 OA
HETATM    2  C1  UNL     1      24.928   2.826  50.783  1.00  0.00     0.250 C 
HETATM    3  C2  UNL     1      25.800   3.254  49.608  1.00  0.00     0.278 C 
HETATM    4  O2  UNL     1      24.804   4.058  48.774  1.00  0.00    -0.346 OA
HETATM    5  C3  UNL     1      24.023   4.853  49.715  1.00  0.00     0.054 A 
HETATM    6  C4  UNL     1      24.701   5.316  50.850  1.00  0.00     0.031 A 
HETATM    7  C5  UNL     1      23.889   5.976  51.717  1.00  0.00     0.007 A 
HETATM    8  C6  UNL     1      22.818   5.800  50.924  1.00  0.00     0.063 A 
HETATM    9  C7  UNL     1      21.753   5.606  50.095  1.00  0.00     0.039 A 
HETATM   10  C8  UNL     1      22.712   4.982  49.367  1.00  0.00     0.082 A 
HETATM   11  N1  UNL     1      22.053   5.477  52.146  1.00  0.00    -0.372 N 
HETATM   12  C9  UNL     1      21.995   4.002  52.205  1.00  0.00     0.094 A 
HETATM   13  C10 UNL     1      20.636   3.709  52.399  1.00  0.00     0.169 A 
HETATM   14  N2  UNL     1      20.019   2.525  52.512  1.00  0.00    -0.073 NA
HETATM   15  C11 UNL     1      20.742   1.419  52.439  1.00  0.00     0.728 A 
HETATM   16  N4  UNL     1      22.024   1.638  52.256  1.00  0.00    -0.042 NA
HETATM   17  C18 UNL     1      22.689   2.775  52.137  1.00  0.00     0.180 A 
HETATM   18  N5  UNL     1      24.123   2.408  51.929  1.00  0.00    -0.293 N 
HETATM   19  H7  UNL     1      21.589   6.023  52.900  1.00  0.00     0.161 HD
ENDROOT
BRANCH  15  20
HETATM   20  N3  UNL     1      20.156   0.137  52.535  1.00  0.00    -0.188 N 
HETATM   21  H9  UNL     1      20.843  -0.583  52.907  1.00  0.00     0.184 HD
BRANCH  20  22
HETATM   22  C12 UNL     1      18.861  -0.254  52.220  1.00  0.00     0.049 A 
HETATM   23  C13 UNL     1      17.962  -0.942  53.000  1.00  0.00     0.030 A 
HETATM   24  C14 UNL     1      16.675  -1.290  52.644  1.00  0.00     0.002 A 
HETATM   25  C15 UNL     1      16.249  -0.912  51.387  1.00  0.00     0.000 A 
HETATM   26  C16 UNL     1      17.095  -0.226  50.564  1.00  0.00     0.002 A 
HETATM   27  C17 UNL     1      18.378   0.099  50.965  1.00  0.00     0.030 A 
ENDBRANCH  20  22
ENDBRANCH  15  20
BRANCH  18  28
HETATM   28  C19 UNL     1      24.869   1.761  52.959  1.00  0.00     0.097 C 
HETATM   29  C20 UNL     1      25.146   0.308  52.727  1.00  0.00     0.028 C 
HETATM   30  C21 UNL     1      26.625   0.077  52.922  1.00  0.00     0.034 C 
HETATM   31  C22 UNL     1      26.985   1.154  53.925  1.00  0.00     0.120 C 
HETATM   32  C23 UNL     1      26.189   2.333  53.328  1.00  0.00     0.057 C 
BRANCH  31  33
HETATM   33  O3  UNL     1      26.570   0.812  55.186  1.00  0.00    -0.396 OA
HETATM   34  H21 UNL     1      27.294   0.431  55.696  1.00  0.00     0.210 HD
ENDBRANCH  31  33
ENDBRANCH  18  28
TORSDOF 4
ENDMDL
MODEL 5
REMARK VINA RESULT:      -8.7      1.982      5.015
REMARK  4 active torsions:
REMARK  status: ('A' for Active; 'I' for Inactive)
REMARK    1  A    between atoms: C11_15  and  N3_16 
REMARK    2  A    between atoms: N3_16  and  C12_17 
REMARK    3  A    between atoms: N5_25  and  C19_26 
REMARK    4  A    between atoms: C22_29  and  O3_30 
ROOT
HETATM    1  O1  UNL     1      23.514   5.618  51.527  1.00  0.00    -0.271 OA
HETATM    2  C1  UNL     1      22.434   5.132  51.163  1.00  0.00     0.250 C 
HETATM    3  C2  UNL     1      21.725   6.473  51.324  1.00  0.00     0.278 C 
HETATM    4  O2  UNL     1      22.902   7.443  51.253  1.00  0.00    -0.346 OA
HETATM    5  C3  UNL     1      23.779   6.954  50.195  1.00  0.00     0.054 A 
HETATM    6  C4  UNL     1      23.151   6.347  49.098  1.00  0.00     0.031 A 
HETATM    7  C5  UNL     1      24.035   5.844  48.197  1.00  0.00     0.007 A 
HETATM    8  C6  UNL     1      25.087   6.255  48.925  1.00  0.00     0.063 A 
HETATM    9  C7  UNL     1      26.132   6.688  49.687  1.00  0.00     0.039 A 
HETATM   10  C8  UNL     1      25.105   7.116  50.462  1.00  0.00     0.082 A 
HETATM   11  N1  UNL     1      25.710   4.947  48.637  1.00  0.00    -0.372 N 
HETATM   12  C9  UNL     1      25.468   4.115  49.834  1.00  0.00     0.094 A 
HETATM   13  C10 UNL     1      26.729   3.595  50.163  1.00  0.00     0.169 A 
HETATM   14  N2  UNL     1      27.090   2.786  51.170  1.00  0.00    -0.073 NA
HETATM   15  C11 UNL     1      26.165   2.377  52.022  1.00  0.00     0.728 A 
HETATM   16  N4  UNL     1      24.963   2.838  51.758  1.00  0.00    -0.042 NA
HETATM   17  C18 UNL     1      24.546   3.633  50.788  1.00  0.00     0.180 A 
HETATM   18  N5  UNL     1      23.079   3.831  51.001  1.00  0.00    -0.293 N 
HETATM   19  H7  UNL     1      26.235   4.531  47.841  1.00  0.00     0.161 HD
ENDROOT
BRANCH  15  20
HETATM   20  N3  UNL     1      26.476   1.536  53.114  1.00  0.00    -0.188 N 
HETATM   21  H9  UNL     1      25.851   1.730  53.951  1.00  0.00     0.184 HD
BRANCH  20  22
HETATM   22  C12 UNL     1      27.445   0.545  53.201  1.00  0.00     0.049 A 
HETATM   23  C13 UNL     1      28.749   0.658  53.620  1.00  0.00     0.030 A 
HETATM   24  C14 UNL     1      29.669  -0.367  53.706  1.00  0.00     0.002 A 
HETATM   25  C15 UNL     1      29.239  -1.626  53.338  1.00  0.00     0.000 A 
HETATM   26  C16 UNL     1      27.955  -1.805  52.914  1.00  0.00     0.002 A 
HETATM   27  C17 UNL     1      27.069  -0.745  52.843  1.00  0.00     0.030 A 
ENDBRANCH  20  22
ENDBRANCH  15  20
BRANCH  18  28
HETATM   28  C19 UNL     1      22.168   2.741  50.872  1.00  0.00     0.097 C 
HETATM   29  C20 UNL     1      20.757   3.041  51.272  1.00  0.00     0.028 C 
HETATM   30  C21 UNL     1      19.850   2.599  50.149  1.00  0.00     0.034 C 
HETATM   31  C22 UNL     1      20.637   1.459  49.534  1.00  0.00     0.120 C 
HETATM   32  C23 UNL     1      22.045   2.090  49.543  1.00  0.00     0.057 C 
BRANCH  31  33
HETATM   33  O3  UNL     1      20.552   0.329  50.305  1.00  0.00    -0.396 OA
HETATM   34  H21 UNL     1      19.699  -0.106  50.186  1.00  0.00     0.210 HD
ENDBRANCH  31  33
ENDBRANCH  18  28
TORSDOF 4
ENDMDL
MODEL 6
REMARK VINA RESULT:      -8.6      2.225      5.309
REMARK  4 active torsions:
REMARK  status: ('A' for Active; 'I' for Inactive)
REMARK    1  A    between atoms: C11_15  and  N3_16 
REMARK    2  A    between atoms: N3_16  and  C12_17 
REMARK    3  A    between atoms: N5_25  and  C19_26 
REMARK    4  A    between atoms: C22_29  and  O3_30 
ROOT
HETATM    1  O1  UNL     1      21.851   2.486  52.168  1.00  0.00    -0.271 OA
HETATM    2  C1  UNL     1      22.529   1.559  52.632  1.00  0.00     0.250 C 
HETATM    3  C2  UNL     1      21.429   1.189  53.621  1.00  0.00     0.278 C 
HETATM    4  O2  UNL     1      20.204   1.810  52.951  1.00  0.00    -0.346 OA
HETATM    5  C3  UNL     1      20.330   1.537  51.524  1.00  0.00     0.054 A 
HETATM    6  C4  UNL     1      20.922   0.315  51.176  1.00  0.00     0.031 A 
HETATM    7  C5  UNL     1      21.079   0.170  49.834  1.00  0.00     0.007 A 
HETATM    8  C6  UNL     1      20.526   1.370  49.589  1.00  0.00     0.063 A 
HETATM    9  C7  UNL     1      19.959   2.592  49.376  1.00  0.00     0.039 A 
HETATM   10  C8  UNL     1      19.892   2.553  50.730  1.00  0.00     0.082 A 
HETATM   11  N1  UNL     1      21.599   1.586  48.597  1.00  0.00    -0.372 N 
HETATM   12  C9  UNL     1      22.612   2.419  49.277  1.00  0.00     0.094 A 
HETATM   13  C10 UNL     1      22.855   3.476  48.386  1.00  0.00     0.169 A 
HETATM   14  N2  UNL     1      23.677   4.529  48.504  1.00  0.00    -0.073 NA
HETATM   15  C11 UNL     1      24.402   4.652  49.604  1.00  0.00     0.728 A 
HETATM   16  N4  UNL     1      24.211   3.686  50.473  1.00  0.00    -0.042 NA
HETATM   17  C18 UNL     1      23.419   2.628  50.416  1.00  0.00     0.180 A 
HETATM   18  N5  UNL     1      23.607   1.888  51.701  1.00  0.00    -0.293 N 
HETATM   19  H7  UNL     1      21.772   1.300  47.612  1.00  0.00     0.161 HD
ENDROOT
BRANCH  15  20
HETATM   20  N3  UNL     1      25.278   5.743  49.801  1.00  0.00    -0.188 N 
HETATM   21  H9  UNL     1      24.977   6.346  50.622  1.00  0.00     0.184 HD
BRANCH  20  22
HETATM   22  C12 UNL     1      26.419   6.084  49.086  1.00  0.00     0.049 A 
HETATM   23  C13 UNL     1      26.740   7.291  48.513  1.00  0.00     0.030 A 
HETATM   24  C14 UNL     1      27.901   7.584  47.827  1.00  0.00     0.002 A 
HETATM   25  C15 UNL     1      28.828   6.569  47.705  1.00  0.00     0.000 A 
HETATM   26  C16 UNL     1      28.569   5.346  48.253  1.00  0.00     0.002 A 
HETATM   27  C17 UNL     1      27.389   5.100  48.931  1.00  0.00     0.030 A 
ENDBRANCH  20  22
ENDBRANCH  15  20
BRANCH  18  28
HETATM   28  C19 UNL     1      24.856   1.277  52.018  1.00  0.00     0.097 C 
HETATM   29  C20 UNL     1      25.756   2.088  52.898  1.00  0.00     0.028 C 
HETATM   30  C21 UNL     1      26.201   1.213  54.045  1.00  0.00     0.034 C 
HETATM   31  C22 UNL     1      26.167  -0.168  53.422  1.00  0.00     0.120 C 
HETATM   32  C23 UNL     1      24.835  -0.066  52.650  1.00  0.00     0.057 C 
BRANCH  31  33
HETATM   33  O3  UNL     1      27.247  -0.365  52.601  1.00  0.00    -0.396 OA
HETATM   34  H21 UNL     1      27.643   0.477  52.343  1.00  0.00     0.210 HD
ENDBRANCH  31  33
ENDBRANCH  18  28
TORSDOF 4
ENDMDL
MODEL 7
REMARK VINA RESULT:      -8.5      5.973      9.804
REMARK  4 active torsions:
REMARK  status: ('A' for Active; 'I' for Inactive)
REMARK    1  A    between atoms: C11_15  and  N3_16 
REMARK    2  A    between atoms: N3_16  and  C12_17 
REMARK    3  A    between atoms: N5_25  and  C19_26 
REMARK    4  A    between atoms: C22_29  and  O3_30 
ROOT
HETATM    1  O1  UNL     1      29.453   9.070  46.319  1.00  0.00    -0.271 OA
HETATM    2  C1  UNL     1      30.547   8.491  46.366  1.00  0.00     0.250 C 
HETATM    3  C2  UNL     1      31.083   9.313  45.199  1.00  0.00     0.278 C 
HETATM    4  O2  UNL     1      30.153  10.524  45.235  1.00  0.00    -0.346 OA
HETATM    5  C3  UNL     1      29.980  10.872  46.641  1.00  0.00     0.054 A 
HETATM    6  C4  UNL     1      31.090  10.667  47.472  1.00  0.00     0.031 A 
HETATM    7  C5  UNL     1      30.826  10.935  48.778  1.00  0.00     0.007 A 
HETATM    8  C6  UNL     1      29.556  11.278  48.502  1.00  0.00     0.063 A 
HETATM    9  C7  UNL     1      28.274  11.621  48.187  1.00  0.00     0.039 A 
HETATM   10  C8  UNL     1      28.725  11.303  46.949  1.00  0.00     0.082 A 
HETATM   11  N1  UNL     1      29.162  10.513  49.703  1.00  0.00    -0.372 N 
HETATM   12  C9  UNL     1      28.698   9.200  49.209  1.00  0.00     0.094 A 
HETATM   13  C10 UNL     1      27.450   9.013  49.822  1.00  0.00     0.169 A 
HETATM   14  N2  UNL     1      26.584   7.995  49.717  1.00  0.00    -0.073 NA
HETATM   15  C11 UNL     1      26.890   6.976  48.931  1.00  0.00     0.728 A 
HETATM   16  N4  UNL     1      28.052   7.103  48.331  1.00  0.00    -0.042 NA
HETATM   17  C18 UNL     1      28.945   8.076  48.393  1.00  0.00     0.180 A 
HETATM   18  N5  UNL     1      30.065   7.682  47.484  1.00  0.00    -0.293 N 
HETATM   19  H7  UNL     1      29.144  10.693  50.728  1.00  0.00     0.161 HD
ENDROOT
BRANCH  15  20
HETATM   20  N3  UNL     1      26.019   5.877  48.761  1.00  0.00    -0.188 N 
HETATM   21  H9  UNL     1      25.507   5.920  47.831  1.00  0.00     0.184 HD
BRANCH  20  22
HETATM   22  C12 UNL     1      25.780   4.814  49.622  1.00  0.00     0.049 A 
HETATM   23  C13 UNL     1      24.715   4.622  50.469  1.00  0.00     0.030 A 
HETATM   24  C14 UNL     1      24.515   3.533  51.293  1.00  0.00     0.002 A 
HETATM   25  C15 UNL     1      25.476   2.542  51.264  1.00  0.00     0.000 A 
HETATM   26  C16 UNL     1      26.559   2.673  50.444  1.00  0.00     0.002 A 
HETATM   27  C17 UNL     1      26.715   3.785  49.636  1.00  0.00     0.030 A 
ENDBRANCH  20  22
ENDBRANCH  15  20
BRANCH  18  28
HETATM   28  C19 UNL     1      30.878   6.547  47.774  1.00  0.00     0.097 C 
HETATM   29  C20 UNL     1      31.895   6.209  46.728  1.00  0.00     0.028 C 
HETATM   30  C21 UNL     1      33.234   6.061  47.410  1.00  0.00     0.034 C 
HETATM   31  C22 UNL     1      32.835   5.597  48.797  1.00  0.00     0.120 C 
HETATM   32  C23 UNL     1      31.642   6.543  49.047  1.00  0.00     0.057 C 
BRANCH  31  33
HETATM   33  O3  UNL     1      32.476   4.274  48.789  1.00  0.00    -0.396 OA
HETATM   34  H21 UNL     1      31.672   4.137  48.276  1.00  0.00     0.210 HD
ENDBRANCH  31  33
ENDBRANCH  18  28
TORSDOF 4
ENDMDL
MODEL 8
REMARK VINA RESULT:      -8.5      2.805      7.463
REMARK  4 active torsions:
REMARK  status: ('A' for Active; 'I' for Inactive)
REMARK    1  A    between atoms: C11_15  and  N3_16 
REMARK    2  A    between atoms: N3_16  and  C12_17 
REMARK    3  A    between atoms: N5_25  and  C19_26 
REMARK    4  A    between atoms: C22_29  and  O3_30 
ROOT
HETATM    1  O1  UNL     1      23.617   2.032  50.856  1.00  0.00    -0.271 OA
HETATM    2  C1  UNL     1      23.911   1.481  51.927  1.00  0.00     0.250 C 
HETATM    3  C2  UNL     1      25.402   1.596  51.628  1.00  0.00     0.278 C 
HETATM    4  O2  UNL     1      25.415   2.728  50.602  1.00  0.00    -0.346 OA
HETATM    5  C3  UNL     1      24.462   3.726  51.074  1.00  0.00     0.054 A 
HETATM    6  C4  UNL     1      24.363   3.882  52.463  1.00  0.00     0.031 A 
HETATM    7  C5  UNL     1      23.399   4.767  52.826  1.00  0.00     0.007 A 
HETATM    8  C6  UNL     1      23.071   5.012  51.546  1.00  0.00     0.063 A 
HETATM    9  C7  UNL     1      22.766   5.238  50.237  1.00  0.00     0.039 A 
HETATM   10  C8  UNL     1      23.760   4.330  50.075  1.00  0.00     0.082 A 
HETATM   11  N1  UNL     1      21.657   4.955  51.969  1.00  0.00    -0.372 N 
HETATM   12  C9  UNL     1      21.186   3.599  51.616  1.00  0.00     0.094 A 
HETATM   13  C10 UNL     1      19.995   3.813  50.905  1.00  0.00     0.169 A 
HETATM   14  N2  UNL     1      19.160   2.929  50.341  1.00  0.00    -0.073 NA
HETATM   15  C11 UNL     1      19.441   1.640  50.430  1.00  0.00     0.728 A 
HETATM   16  N4  UNL     1      20.550   1.385  51.088  1.00  0.00    -0.042 NA
HETATM   17  C18 UNL     1      21.411   2.207  51.664  1.00  0.00     0.180 A 
HETATM   18  N5  UNL     1      22.490   1.351  52.244  1.00  0.00    -0.293 N 
HETATM   19  H7  UNL     1      20.987   5.611  52.420  1.00  0.00     0.161 HD
ENDROOT
BRANCH  15  20
HETATM   20  N3  UNL     1      18.613   0.654  49.847  1.00  0.00    -0.188 N 
HETATM   21  H9  UNL     1      18.862   0.484  48.828  1.00  0.00     0.184 HD
BRANCH  20  22
HETATM   22  C12 UNL     1      17.582  -0.072  50.428  1.00  0.00     0.049 A 
HETATM   23  C13 UNL     1      17.450  -0.474  51.736  1.00  0.00     0.030 A 
HETATM   24  C14 UNL     1      16.390  -1.179  52.269  1.00  0.00     0.002 A 
HETATM   25  C15 UNL     1      15.364  -1.512  51.407  1.00  0.00     0.000 A 
HETATM   26  C16 UNL     1      15.435  -1.141  50.096  1.00  0.00     0.002 A 
HETATM   27  C17 UNL     1      16.520  -0.435  49.608  1.00  0.00     0.030 A 
ENDBRANCH  20  22
ENDBRANCH  15  20
BRANCH  18  28
HETATM   28  C19 UNL     1      22.214   0.452  53.316  1.00  0.00     0.097 C 
HETATM   29  C20 UNL     1      20.848   0.578  53.917  1.00  0.00     0.028 C 
HETATM   30  C21 UNL     1      20.226  -0.797  53.957  1.00  0.00     0.034 C 
HETATM   31  C22 UNL     1      21.443  -1.692  54.083  1.00  0.00     0.120 C 
HETATM   32  C23 UNL     1      22.372  -1.003  53.062  1.00  0.00     0.057 C 
BRANCH  31  33
HETATM   33  O3  UNL     1      21.941  -1.669  55.360  1.00  0.00    -0.396 OA
HETATM   34  H21 UNL     1      22.176  -0.771  55.623  1.00  0.00     0.210 HD
ENDBRANCH  31  33
ENDBRANCH  18  28
TORSDOF 4
ENDMDL
MODEL 9
REMARK VINA RESULT:      -8.4      2.388      5.820
REMARK  4 active torsions:
REMARK  status: ('A' for Active; 'I' for Inactive)
REMARK    1  A    between atoms: C11_15  and  N3_16 
REMARK    2  A    between atoms: N3_16  and  C12_17 
REMARK    3  A    between atoms: N5_25  and  C19_26 
REMARK    4  A    between atoms: C22_29  and  O3_30 
ROOT
HETATM    1  O1  UNL     1      23.286   6.287  50.695  1.00  0.00    -0.271 OA
HETATM    2  C1  UNL     1      22.299   6.047  49.986  1.00  0.00     0.250 C 
HETATM    3  C2  UNL     1      21.643   7.368  50.375  1.00  0.00     0.278 C 
HETATM    4  O2  UNL     1      22.853   8.177  50.839  1.00  0.00    -0.346 OA
HETATM    5  C3  UNL     1      23.928   7.892  49.895  1.00  0.00     0.054 A 
HETATM    6  C4  UNL     1      23.546   7.683  48.563  1.00  0.00     0.031 A 
HETATM    7  C5  UNL     1      24.590   7.342  47.762  1.00  0.00     0.007 A 
HETATM    8  C6  UNL     1      25.460   7.415  48.783  1.00  0.00     0.063 A 
HETATM    9  C7  UNL     1      26.317   7.500  49.841  1.00  0.00     0.039 A 
HETATM   10  C8  UNL     1      25.160   7.820  50.472  1.00  0.00     0.082 A 
HETATM   11  N1  UNL     1      26.064   6.170  48.267  1.00  0.00    -0.372 N 
HETATM   12  C9  UNL     1      25.504   5.080  49.092  1.00  0.00     0.094 A 
HETATM   13  C10 UNL     1      26.623   4.346  49.515  1.00  0.00     0.169 A 
HETATM   14  N2  UNL     1      26.693   3.259  50.296  1.00  0.00    -0.073 NA
HETATM   15  C11 UNL     1      25.573   2.746  50.777  1.00  0.00     0.728 A 
HETATM   16  N4  UNL     1      24.493   3.398  50.411  1.00  0.00    -0.042 NA
HETATM   17  C18 UNL     1      24.359   4.469  49.647  1.00  0.00     0.180 A 
HETATM   18  N5  UNL     1      22.896   4.772  49.594  1.00  0.00    -0.293 N 
HETATM   19  H7  UNL     1      26.740   5.926  47.515  1.00  0.00     0.161 HD
ENDROOT
BRANCH  15  20
HETATM   20  N3  UNL     1      25.573   1.610  51.619  1.00  0.00    -0.188 N 
HETATM   21  H9  UNL     1      26.551   1.215  51.746  1.00  0.00     0.184 HD
BRANCH  20  22
HETATM   22  C12 UNL     1      24.502   1.000  52.257  1.00  0.00     0.049 A 
HETATM   23  C13 UNL     1      23.158   1.147  52.005  1.00  0.00     0.030 A 
HETATM   24  C14 UNL     1      22.131   0.499  52.659  1.00  0.00     0.002 A 
HETATM   25  C15 UNL     1      22.485  -0.382  53.661  1.00  0.00     0.000 A 
HETATM   26  C16 UNL     1      23.802  -0.573  53.960  1.00  0.00     0.002 A 
HETATM   27  C17 UNL     1      24.797   0.102  53.277  1.00  0.00     0.030 A 
ENDBRANCH  20  22
ENDBRANCH  15  20
BRANCH  18  28
HETATM   28  C19 UNL     1      21.986   3.872  48.965  1.00  0.00     0.097 C 
HETATM   29  C20 UNL     1      22.619   2.826  48.101  1.00  0.00     0.028 C 
HETATM   30  C21 UNL     1      22.066   1.483  48.512  1.00  0.00     0.034 C 
HETATM   31  C22 UNL     1      20.687   1.850  49.022  1.00  0.00     0.120 C 
HETATM   32  C23 UNL     1      21.043   3.116  49.829  1.00  0.00     0.057 C 
BRANCH  31  33
HETATM   33  O3  UNL     1      19.828   2.101  47.984  1.00  0.00    -0.396 OA
HETATM   34  H21 UNL     1      20.292   2.075  47.138  1.00  0.00     0.210 HD
ENDBRANCH  31  33
ENDBRANCH  18  28
TORSDOF 4
ENDMDL
