MODEL 1
REMARK VINA RESULT:      -8.5      0.000      0.000
REMARK  4 active torsions:
REMARK  status: ('A' for Active; 'I' for Inactive)
REMARK    1  A    between atoms: C5_5  and  C6_6 
REMARK       I    between atoms: C6_6  and  N1_8 
REMARK    2  A    between atoms: N1_8  and  C7_9 
REMARK    3  A    between atoms: C10_12  and  O2_13 
REMARK    4  A    between atoms: O2_13  and  C11_14 
ROOT
HETATM    1  C7  UNL     1      24.814   3.596  50.189  1.00  0.00     0.035 A 
HETATM    2  C8  UNL     1      26.092   3.158  49.936  1.00  0.00     0.032 A 
HETATM    3  C9  UNL     1      27.015   3.941  49.300  1.00  0.00     0.039 A 
HETATM    4  C10 UNL     1      26.702   5.206  48.888  1.00  0.00     0.075 A 
HETATM    5  C20 UNL     1      25.391   5.634  49.157  1.00  0.00     0.039 A 
HETATM    6  C21 UNL     1      24.434   4.846  49.805  1.00  0.00     0.032 A 
ENDROOT
BRANCH   4   7
HETATM    7  O2  UNL     1      27.370   6.119  48.288  1.00  0.00    -0.313 OA
BRANCH   7   8
HETATM    8  C11 UNL     1      28.038   7.034  47.689  1.00  0.00     0.076 C 
HETATM    9  C12 UNL     1      29.295   6.822  48.051  1.00  0.00    -0.035 C 
HETATM   10  C13 UNL     1      30.161   5.638  48.327  1.00  0.00     0.067 C 
HETATM   11  C18 UNL     1      30.450   7.830  48.189  1.00  0.00     0.070 C 
HETATM   12  C14 UNL     1      31.270   6.017  47.289  1.00  0.00     0.011 C 
HETATM   13  C15 UNL     1      30.916   7.254  46.816  1.00  0.00     0.059 C 
HETATM   14  O3  UNL     1      30.791   8.162  45.696  1.00  0.00    -0.308 OA
HETATM   15  C16 UNL     1      29.486   8.586  45.137  1.00  0.00     0.252 C 
HETATM   16  N2  UNL     1      28.315   8.624  45.748  1.00  0.00    -0.271 NA
HETATM   17  C17 UNL     1      27.503   8.102  46.780  1.00  0.00     0.215 C 
HETATM   18  C19 UNL     1      31.337   7.501  49.303  1.00  0.00     0.022 C 
ENDBRANCH   7   8
ENDBRANCH   4   7
BRANCH   1  19
HETATM   19  N1  UNL     1      23.995   2.663  50.859  1.00  0.00    -0.323 N 
HETATM   20  C6  UNL     1      23.697   2.545  52.242  1.00  0.00     0.257 C 
HETATM   21  O1  UNL     1      24.203   3.361  53.041  1.00  0.00    -0.267 OA
HETATM   22  H5  UNL     1      23.482   1.893  50.330  1.00  0.00     0.169 HD
BRANCH  20  23
HETATM   23  C5  UNL     1      22.824   1.507  52.775  1.00  0.00     0.050 A 
HETATM   24  C4  UNL     1      21.382   1.490  52.801  1.00  0.00     0.019 A 
HETATM   25  C3  UNL     1      20.857   0.405  53.352  1.00  0.00     0.013 A 
HETATM   26  C2  UNL     1      22.026  -0.378  53.732  1.00  0.00    -0.027 A 
HETATM   27  C1  UNL     1      21.969  -1.559  54.326  1.00  0.00     0.025 C 
HETATM   28  C22 UNL     1      23.202   0.373  53.340  1.00  0.00     0.036 A 
HETATM   29 BR1  UNL     1      25.027  -0.140  53.576  1.00  0.00    -0.049 Br
ENDBRANCH  20  23
ENDBRANCH   1  19
TORSDOF 4
ENDMDL
MODEL 2
REMARK VINA RESULT:      -8.5      6.125     10.660
REMARK  4 active torsions:
REMARK  status: ('A' for Active; 'I' for Inactive)
REMARK    1  A    between atoms: C5_5  and  C6_6 
REMARK       I    between atoms: C6_6  and  N1_8 
REMARK    2  A    between atoms: N1_8  and  C7_9 
REMARK    3  A    between atoms: C10_12  and  O2_13 
REMARK    4  A    between atoms: O2_13  and  C11_14 
ROOT
HETATM    1  C7  UNL     1      23.505   1.248  52.890  1.00  0.00     0.035 A 
HETATM    2  C8  UNL     1      22.687   0.149  52.787  1.00  0.00     0.032 A 
HETATM    3  C9  UNL     1      21.363   0.257  52.465  1.00  0.00     0.039 A 
HETATM    4  C10 UNL     1      20.793   1.476  52.229  1.00  0.00     0.075 A 
HETATM    5  C20 UNL     1      21.646   2.587  52.339  1.00  0.00     0.039 A 
HETATM    6  C21 UNL     1      23.002   2.494  52.669  1.00  0.00     0.032 A 
ENDROOT
BRANCH   4   7
HETATM    7  O2  UNL     1      19.605   1.839  51.916  1.00  0.00    -0.313 OA
BRANCH   7   8
HETATM    8  C11 UNL     1      18.417   2.201  51.603  1.00  0.00     0.076 C 
HETATM    9  C12 UNL     1      17.773   1.068  51.364  1.00  0.00    -0.035 C 
HETATM   10  C13 UNL     1      17.767  -0.316  51.922  1.00  0.00     0.067 C 
HETATM   11  C18 UNL     1      16.585   0.805  50.421  1.00  0.00     0.070 C 
HETATM   12  C14 UNL     1      16.236  -0.342  52.247  1.00  0.00     0.011 C 
HETATM   13  C15 UNL     1      15.736   0.825  51.730  1.00  0.00     0.059 C 
HETATM   14  O3  UNL     1      14.853   1.963  51.871  1.00  0.00    -0.308 OA
HETATM   15  C16 UNL     1      15.340   3.344  52.099  1.00  0.00     0.252 C 
HETATM   16  N2  UNL     1      16.516   3.854  51.780  1.00  0.00    -0.271 NA
HETATM   17  C17 UNL     1      17.884   3.603  51.529  1.00  0.00     0.215 C 
HETATM   18  C19 UNL     1      16.667  -0.509  49.786  1.00  0.00     0.022 C 
ENDBRANCH   7   8
ENDBRANCH   4   7
BRANCH   1  19
HETATM   19  N1  UNL     1      24.844   0.955  53.224  1.00  0.00    -0.323 N 
HETATM   20  C6  UNL     1      26.031   1.145  52.467  1.00  0.00     0.257 C 
HETATM   21  O1  UNL     1      25.946   1.646  51.327  1.00  0.00    -0.267 OA
HETATM   22  H5  UNL     1      25.101   0.523  54.163  1.00  0.00     0.169 HD
BRANCH  20  23
HETATM   23  C5  UNL     1      27.351   0.778  52.965  1.00  0.00     0.050 A 
HETATM   24  C4  UNL     1      28.379   1.652  53.473  1.00  0.00     0.019 A 
HETATM   25  C3  UNL     1      29.485   1.030  53.858  1.00  0.00     0.013 A 
HETATM   26  C2  UNL     1      29.191  -0.372  53.593  1.00  0.00    -0.027 A 
HETATM   27  C1  UNL     1      30.031  -1.366  53.833  1.00  0.00     0.025 C 
HETATM   28  C22 UNL     1      27.853  -0.443  53.043  1.00  0.00     0.036 A 
HETATM   29 BR1  UNL     1      26.912  -2.014  52.498  1.00  0.00    -0.049 Br
ENDBRANCH  20  23
ENDBRANCH   1  19
TORSDOF 4
ENDMDL
MODEL 3
REMARK VINA RESULT:      -8.3      1.100      2.528
REMARK  4 active torsions:
REMARK  status: ('A' for Active; 'I' for Inactive)
REMARK    1  A    between atoms: C5_5  and  C6_6 
REMARK       I    between atoms: C6_6  and  N1_8 
REMARK    2  A    between atoms: N1_8  and  C7_9 
REMARK    3  A    between atoms: C10_12  and  O2_13 
REMARK    4  A    between atoms: O2_13  and  C11_14 
ROOT
HETATM    1  C7  UNL     1      25.020   3.388  50.245  1.00  0.00     0.035 A 
HETATM    2  C8  UNL     1      24.491   4.601  49.875  1.00  0.00     0.032 A 
HETATM    3  C9  UNL     1      25.235   5.553  49.236  1.00  0.00     0.039 A 
HETATM    4  C10 UNL     1      26.550   5.335  48.936  1.00  0.00     0.075 A 
HETATM    5  C20 UNL     1      27.072   4.089  49.323  1.00  0.00     0.039 A 
HETATM    6  C21 UNL     1      26.325   3.104  49.978  1.00  0.00     0.032 A 
ENDROOT
BRANCH   4   7
HETATM    7  O2  UNL     1      27.443   6.046  48.355  1.00  0.00    -0.313 OA
BRANCH   7   8
HETATM    8  C11 UNL     1      28.338   6.757  47.775  1.00  0.00     0.076 C 
HETATM    9  C12 UNL     1      27.655   7.676  47.108  1.00  0.00    -0.035 C 
HETATM   10  C13 UNL     1      26.411   8.473  47.321  1.00  0.00     0.067 C 
HETATM   11  C18 UNL     1      28.029   8.412  45.809  1.00  0.00     0.070 C 
HETATM   12  C14 UNL     1      27.094   9.870  47.141  1.00  0.00     0.011 C 
HETATM   13  C15 UNL     1      28.383   9.597  46.761  1.00  0.00     0.059 C 
HETATM   14  O3  UNL     1      29.795   9.900  46.865  1.00  0.00    -0.308 OA
HETATM   15  C16 UNL     1      30.770   9.002  47.528  1.00  0.00     0.252 C 
HETATM   16  N2  UNL     1      30.680   7.697  47.709  1.00  0.00    -0.271 NA
HETATM   17  C17 UNL     1      29.827   6.579  47.847  1.00  0.00     0.215 C 
HETATM   18  C19 UNL     1      26.864   8.659  44.961  1.00  0.00     0.022 C 
ENDBRANCH   7   8
ENDBRANCH   4   7
BRANCH   1  19
HETATM   19  N1  UNL     1      24.111   2.522  50.888  1.00  0.00    -0.323 N 
HETATM   20  C6  UNL     1      23.847   2.349  52.273  1.00  0.00     0.257 C 
HETATM   21  O1  UNL     1      24.481   3.039  53.099  1.00  0.00    -0.267 OA
HETATM   22  H5  UNL     1      23.486   1.861  50.334  1.00  0.00     0.169 HD
BRANCH  20  23
HETATM   23  C5  UNL     1      22.866   1.396  52.776  1.00  0.00     0.050 A 
HETATM   24  C4  UNL     1      21.429   1.515  52.763  1.00  0.00     0.019 A 
HETATM   25  C3  UNL     1      20.789   0.482  53.294  1.00  0.00     0.013 A 
HETATM   26  C2  UNL     1      21.869  -0.409  53.701  1.00  0.00    -0.027 A 
HETATM   27  C1  UNL     1      21.685  -1.581  54.285  1.00  0.00     0.025 C 
HETATM   28  C22 UNL     1      23.120   0.229  53.345  1.00  0.00     0.036 A 
HETATM   29 BR1  UNL     1      24.883  -0.453  53.626  1.00  0.00    -0.049 Br
ENDBRANCH  20  23
ENDBRANCH   1  19
TORSDOF 4
ENDMDL
MODEL 4
REMARK VINA RESULT:      -8.0      6.347     11.588
REMARK  4 active torsions:
REMARK  status: ('A' for Active; 'I' for Inactive)
REMARK    1  A    between atoms: C5_5  and  C6_6 
REMARK       I    between atoms: C6_6  and  N1_8 
REMARK    2  A    between atoms: N1_8  and  C7_9 
REMARK    3  A    between atoms: C10_12  and  O2_13 
REMARK    4  A    between atoms: O2_13  and  C11_14 
ROOT
HETATM    1  C7  UNL     1      23.078  -0.157  53.414  1.00  0.00     0.035 A 
HETATM    2  C8  UNL     1      22.515   0.563  52.387  1.00  0.00     0.032 A 
HETATM    3  C9  UNL     1      21.188   0.465  52.074  1.00  0.00     0.039 A 
HETATM    4  C10 UNL     1      20.357  -0.362  52.778  1.00  0.00     0.075 A 
HETATM    5  C20 UNL     1      20.953  -1.088  53.824  1.00  0.00     0.039 A 
HETATM    6  C21 UNL     1      22.308  -1.000  54.156  1.00  0.00     0.032 A 
ENDROOT
BRANCH   4   7
HETATM    7  O2  UNL     1      19.108  -0.626  52.689  1.00  0.00    -0.313 OA
BRANCH   7   8
HETATM    8  C11 UNL     1      17.857  -0.891  52.601  1.00  0.00     0.076 C 
HETATM    9  C12 UNL     1      17.386  -0.002  51.739  1.00  0.00    -0.035 C 
HETATM   10  C13 UNL     1      17.867   0.664  50.494  1.00  0.00     0.067 C 
HETATM   11  C18 UNL     1      15.974   0.605  51.643  1.00  0.00     0.070 C 
HETATM   12  C14 UNL     1      16.659   0.217  49.605  1.00  0.00     0.011 C 
HETATM   13  C15 UNL     1      15.786  -0.400  50.464  1.00  0.00     0.059 C 
HETATM   14  O3  UNL     1      14.865  -1.485  50.725  1.00  0.00    -0.308 OA
HETATM   15  C16 UNL     1      15.150  -2.578  51.684  1.00  0.00     0.252 C 
HETATM   16  N2  UNL     1      15.961  -2.553  52.726  1.00  0.00    -0.271 NA
HETATM   17  C17 UNL     1      17.106  -1.975  53.318  1.00  0.00     0.215 C 
HETATM   18  C19 UNL     1      16.006   2.007  51.229  1.00  0.00     0.022 C 
ENDBRANCH   7   8
ENDBRANCH   4   7
BRANCH   1  19
HETATM   19  N1  UNL     1      24.457   0.070  53.603  1.00  0.00    -0.323 N 
HETATM   20  C6  UNL     1      25.397   0.710  52.751  1.00  0.00     0.257 C 
HETATM   21  O1  UNL     1      25.006   1.165  51.656  1.00  0.00    -0.267 OA
HETATM   22  H5  UNL     1      24.958  -0.252  54.486  1.00  0.00     0.169 HD
BRANCH  20  23
HETATM   23  C5  UNL     1      26.804   0.858  53.100  1.00  0.00     0.050 A 
HETATM   24  C4  UNL     1      27.496   2.059  53.497  1.00  0.00     0.019 A 
HETATM   25  C3  UNL     1      28.785   1.889  53.756  1.00  0.00     0.013 A 
HETATM   26  C2  UNL     1      28.990   0.466  53.516  1.00  0.00    -0.027 A 
HETATM   27  C1  UNL     1      30.152  -0.151  53.656  1.00  0.00     0.025 C 
HETATM   28  C22 UNL     1      27.717  -0.098  53.114  1.00  0.00     0.036 A 
HETATM   29 BR1  UNL     1      27.355  -1.920  52.666  1.00  0.00    -0.049 Br
ENDBRANCH  20  23
ENDBRANCH   1  19
TORSDOF 4
ENDMDL
MODEL 5
REMARK VINA RESULT:      -8.0      1.978      2.711
REMARK  4 active torsions:
REMARK  status: ('A' for Active; 'I' for Inactive)
REMARK    1  A    between atoms: C5_5  and  C6_6 
REMARK       I    between atoms: C6_6  and  N1_8 
REMARK    2  A    between atoms: N1_8  and  C7_9 
REMARK    3  A    between atoms: C10_12  and  O2_13 
REMARK    4  A    between atoms: O2_13  and  C11_14 
ROOT
HETATM    1  C7  UNL     1      26.393   4.238  49.754  1.00  0.00     0.035 A 
HETATM    2  C8  UNL     1      25.638   5.378  49.893  1.00  0.00     0.032 A 
HETATM    3  C9  UNL     1      25.964   6.547  49.264  1.00  0.00     0.039 A 
HETATM    4  C10 UNL     1      27.068   6.630  48.462  1.00  0.00     0.075 A 
HETATM    5  C20 UNL     1      27.826   5.454  48.334  1.00  0.00     0.039 A 
HETATM    6  C21 UNL     1      27.507   4.251  48.971  1.00  0.00     0.032 A 
ENDROOT
BRANCH   4   7
HETATM    7  O2  UNL     1      27.579   7.583  47.775  1.00  0.00    -0.313 OA
BRANCH   7   8
HETATM    8  C11 UNL     1      28.088   8.536  47.088  1.00  0.00     0.076 C 
HETATM    9  C12 UNL     1      29.159   8.909  47.773  1.00  0.00    -0.035 C 
HETATM   10  C13 UNL     1      30.209   8.240  48.596  1.00  0.00     0.067 C 
HETATM   11  C18 UNL     1      29.835  10.290  47.845  1.00  0.00     0.070 C 
HETATM   12  C14 UNL     1      31.421   8.789  47.771  1.00  0.00     0.011 C 
HETATM   13  C15 UNL     1      30.877   9.663  46.866  1.00  0.00     0.059 C 
HETATM   14  O3  UNL     1      30.849  10.194  45.520  1.00  0.00    -0.308 OA
HETATM   15  C16 UNL     1      29.733   9.951  44.576  1.00  0.00     0.252 C 
HETATM   16  N2  UNL     1      28.476   9.661  44.861  1.00  0.00    -0.271 NA
HETATM   17  C17 UNL     1      27.576   9.096  45.792  1.00  0.00     0.215 C 
HETATM   18  C19 UNL     1      30.367  10.573  49.177  1.00  0.00     0.022 C 
ENDBRANCH   7   8
ENDBRANCH   4   7
BRANCH   1  19
HETATM   19  N1  UNL     1      25.909   3.122  50.468  1.00  0.00    -0.323 N 
HETATM   20  C6  UNL     1      26.530   2.362  51.494  1.00  0.00     0.257 C 
HETATM   21  O1  UNL     1      27.678   2.678  51.870  1.00  0.00    -0.267 OA
HETATM   22  H5  UNL     1      24.942   2.717  50.277  1.00  0.00     0.169 HD
BRANCH  20  23
HETATM   23  C5  UNL     1      25.884   1.221  52.131  1.00  0.00     0.050 A 
HETATM   24  C4  UNL     1      26.435  -0.091  52.365  1.00  0.00     0.019 A 
HETATM   25  C3  UNL     1      25.608  -0.933  52.969  1.00  0.00     0.013 A 
HETATM   26  C2  UNL     1      24.401  -0.138  53.162  1.00  0.00    -0.027 A 
HETATM   27  C1  UNL     1      23.299  -0.587  53.739  1.00  0.00     0.025 C 
HETATM   28  C22 UNL     1      24.655   1.180  52.617  1.00  0.00     0.036 A 
HETATM   29 BR1  UNL     1      23.448   2.662  52.576  1.00  0.00    -0.049 Br
ENDBRANCH  20  23
ENDBRANCH   1  19
TORSDOF 4
ENDMDL
MODEL 6
REMARK VINA RESULT:      -7.7      2.090      2.640
REMARK  4 active torsions:
REMARK  status: ('A' for Active; 'I' for Inactive)
REMARK    1  A    between atoms: C5_5  and  C6_6 
REMARK       I    between atoms: C6_6  and  N1_8 
REMARK    2  A    between atoms: N1_8  and  C7_9 
REMARK    3  A    between atoms: C10_12  and  O2_13 
REMARK    4  A    between atoms: O2_13  and  C11_14 
ROOT
HETATM    1  C7  UNL     1      25.814   4.729  50.132  1.00  0.00     0.035 A 
HETATM    2  C8  UNL     1      26.872   4.214  49.422  1.00  0.00     0.032 A 
HETATM    3  C9  UNL     1      27.627   4.984  48.582  1.00  0.00     0.039 A 
HETATM    4  C10 UNL     1      27.358   6.313  48.412  1.00  0.00     0.075 A 
HETATM    5  C20 UNL     1      26.272   6.820  49.147  1.00  0.00     0.039 A 
HETATM    6  C21 UNL     1      25.490   6.046  50.010  1.00  0.00     0.032 A 
ENDROOT
BRANCH   4   7
HETATM    7  O2  UNL     1      27.901   7.231  47.704  1.00  0.00    -0.313 OA
BRANCH   7   8
HETATM    8  C11 UNL     1      28.446   8.149  46.995  1.00  0.00     0.076 C 
HETATM    9  C12 UNL     1      28.777   9.092  47.865  1.00  0.00    -0.035 C 
HETATM   10  C13 UNL     1      29.282   9.147  49.268  1.00  0.00     0.067 C 
HETATM   11  C18 UNL     1      28.897  10.612  47.651  1.00  0.00     0.070 C 
HETATM   12  C14 UNL     1      30.552  10.000  48.939  1.00  0.00     0.011 C 
HETATM   13  C15 UNL     1      30.432  10.333  47.614  1.00  0.00     0.059 C 
HETATM   14  O3  UNL     1      31.056  10.507  46.320  1.00  0.00    -0.308 OA
HETATM   15  C16 UNL     1      30.807   9.604  45.172  1.00  0.00     0.252 C 
HETATM   16  N2  UNL     1      29.748   8.847  44.948  1.00  0.00    -0.271 NA
HETATM   17  C17 UNL     1      28.660   8.143  45.509  1.00  0.00     0.215 C 
HETATM   18  C19 UNL     1      28.459  11.368  48.823  1.00  0.00     0.022 C 
ENDBRANCH   7   8
ENDBRANCH   4   7
BRANCH   1  19
HETATM   19  N1  UNL     1      25.149   3.797  50.955  1.00  0.00    -0.323 N 
HETATM   20  C6  UNL     1      24.118   2.874  50.632  1.00  0.00     0.257 C 
HETATM   21  O1  UNL     1      23.693   2.831  49.459  1.00  0.00    -0.267 OA
HETATM   22  H5  UNL     1      25.388   3.697  51.989  1.00  0.00     0.169 HD
BRANCH  20  23
HETATM   23  C5  UNL     1      23.531   1.973  51.616  1.00  0.00     0.050 A 
HETATM   24  C4  UNL     1      24.143   0.830  52.246  1.00  0.00     0.019 A 
HETATM   25  C3  UNL     1      23.361   0.195  53.107  1.00  0.00     0.013 A 
HETATM   26  C2  UNL     1      22.120   0.959  53.061  1.00  0.00    -0.027 A 
HETATM   27  C1  UNL     1      21.045   0.674  53.776  1.00  0.00     0.025 C 
HETATM   28  C22 UNL     1      22.308   2.041  52.116  1.00  0.00     0.036 A 
HETATM   29 BR1  UNL     1      21.035   3.380  51.628  1.00  0.00    -0.049 Br
ENDBRANCH  20  23
ENDBRANCH   1  19
TORSDOF 4
ENDMDL
MODEL 7
REMARK VINA RESULT:      -7.6      3.088     10.365
REMARK  4 active torsions:
REMARK  status: ('A' for Active; 'I' for Inactive)
REMARK    1  A    between atoms: C5_5  and  C6_6 
REMARK       I    between atoms: C6_6  and  N1_8 
REMARK    2  A    between atoms: N1_8  and  C7_9 
REMARK    3  A    between atoms: C10_12  and  O2_13 
REMARK    4  A    between atoms: O2_13  and  C11_14 
ROOT
HETATM    1  C7  UNL     1      24.917   5.065  50.246  1.00  0.00     0.035 A 
HETATM    2  C8  UNL     1      23.950   5.371  51.173  1.00  0.00     0.032 A 
HETATM    3  C9  UNL     1      22.915   4.521  51.451  1.00  0.00     0.039 A 
HETATM    4  C10 UNL     1      22.800   3.319  50.811  1.00  0.00     0.075 A 
HETATM    5  C20 UNL     1      23.799   3.026  49.867  1.00  0.00     0.039 A 
HETATM    6  C21 UNL     1      24.863   3.884  49.571  1.00  0.00     0.032 A 
ENDROOT
BRANCH   4   7
HETATM    7  O2  UNL     1      21.949   2.366  50.890  1.00  0.00    -0.313 OA
BRANCH   7   8
HETATM    8  C11 UNL     1      21.096   1.412  50.969  1.00  0.00     0.076 C 
HETATM    9  C12 UNL     1      21.435   0.750  52.066  1.00  0.00    -0.035 C 
HETATM   10  C13 UNL     1      21.967   1.089  53.418  1.00  0.00     0.067 C 
HETATM   11  C18 UNL     1      21.242  -0.740  52.400  1.00  0.00     0.070 C 
HETATM   12  C14 UNL     1      20.810   0.398  54.214  1.00  0.00     0.011 C 
HETATM   13  C15 UNL     1      20.047  -0.235  53.267  1.00  0.00     0.059 C 
HETATM   14  O3  UNL     1      18.735  -0.591  52.769  1.00  0.00    -0.308 OA
HETATM   15  C16 UNL     1      18.154  -0.016  51.533  1.00  0.00     0.252 C 
HETATM   16  N2  UNL     1      18.793   0.494  50.496  1.00  0.00    -0.271 NA
HETATM   17  C17 UNL     1      19.967   1.122  50.024  1.00  0.00     0.215 C 
HETATM   18  C19 UNL     1      22.356  -1.277  53.180  1.00  0.00     0.022 C 
ENDBRANCH   7   8
ENDBRANCH   4   7
BRANCH   1  19
HETATM   19  N1  UNL     1      25.913   6.051  50.089  1.00  0.00    -0.323 N 
HETATM   20  C6  UNL     1      26.160   6.926  48.998  1.00  0.00     0.257 C 
HETATM   21  O1  UNL     1      25.418   6.865  47.995  1.00  0.00    -0.267 OA
HETATM   22  H5  UNL     1      26.633   6.241  50.851  1.00  0.00     0.169 HD
BRANCH  20  23
HETATM   23  C5  UNL     1      27.248   7.896  48.995  1.00  0.00     0.050 A 
HETATM   24  C4  UNL     1      27.188   9.294  49.343  1.00  0.00     0.019 A 
HETATM   25  C3  UNL     1      28.346   9.932  49.247  1.00  0.00     0.013 A 
HETATM   26  C2  UNL     1      29.266   8.894  48.798  1.00  0.00    -0.027 A 
HETATM   27  C1  UNL     1      30.554   9.090  48.568  1.00  0.00     0.025 C 
HETATM   28  C22 UNL     1      28.508   7.665  48.668  1.00  0.00     0.036 A 
HETATM   29 BR1  UNL     1      29.167   5.959  48.116  1.00  0.00    -0.049 Br
ENDBRANCH  20  23
ENDBRANCH   1  19
TORSDOF 4
ENDMDL
MODEL 8
REMARK VINA RESULT:      -7.5      2.753      3.638
REMARK  4 active torsions:
REMARK  status: ('A' for Active; 'I' for Inactive)
REMARK    1  A    between atoms: C5_5  and  C6_6 
REMARK       I    between atoms: C6_6  and  N1_8 
REMARK    2  A    between atoms: N1_8  and  C7_9 
REMARK    3  A    between atoms: C10_12  and  O2_13 
REMARK    4  A    between atoms: O2_13  and  C11_14 
ROOT
HETATM    1  C7  UNL     1      25.176   4.929  49.164  1.00  0.00     0.035 A 
HETATM    2  C8  UNL     1      25.414   6.195  48.685  1.00  0.00     0.032 A 
HETATM    3  C9  UNL     1      26.669   6.620  48.348  1.00  0.00     0.039 A 
HETATM    4  C10 UNL     1      27.750   5.793  48.474  1.00  0.00     0.075 A 
HETATM    5  C20 UNL     1      27.485   4.504  48.965  1.00  0.00     0.039 A 
HETATM    6  C21 UNL     1      26.208   4.053  49.316  1.00  0.00     0.032 A 
ENDROOT
BRANCH   4   7
HETATM    7  O2  UNL     1      28.998   5.944  48.231  1.00  0.00    -0.313 OA
BRANCH   7   8
HETATM    8  C11 UNL     1      30.247   6.097  47.988  1.00  0.00     0.076 C 
HETATM    9  C12 UNL     1      30.450   7.402  48.085  1.00  0.00    -0.035 C 
HETATM   10  C13 UNL     1      29.943   8.520  48.934  1.00  0.00     0.067 C 
HETATM   11  C18 UNL     1      31.495   8.279  47.371  1.00  0.00     0.070 C 
HETATM   12  C14 UNL     1      31.353   8.982  49.434  1.00  0.00     0.011 C 
HETATM   13  C15 UNL     1      32.253   8.222  48.734  1.00  0.00     0.059 C 
HETATM   14  O3  UNL     1      33.480   7.453  48.721  1.00  0.00    -0.308 OA
HETATM   15  C16 UNL     1      33.511   5.978  48.577  1.00  0.00     0.252 C 
HETATM   16  N2  UNL     1      32.606   5.197  48.016  1.00  0.00    -0.271 NA
HETATM   17  C17 UNL     1      31.247   5.024  47.668  1.00  0.00     0.215 C 
HETATM   18  C19 UNL     1      30.968   9.602  47.039  1.00  0.00     0.022 C 
ENDBRANCH   7   8
ENDBRANCH   4   7
BRANCH   1  19
HETATM   19  N1  UNL     1      23.823   4.656  49.456  1.00  0.00    -0.323 N 
HETATM   20  C6  UNL     1      23.094   4.863  50.658  1.00  0.00     0.257 C 
HETATM   21  O1  UNL     1      23.681   5.360  51.641  1.00  0.00    -0.267 OA
HETATM   22  H5  UNL     1      23.172   4.231  48.728  1.00  0.00     0.169 HD
BRANCH  20  23
HETATM   23  C5  UNL     1      21.685   4.517  50.794  1.00  0.00     0.050 A 
HETATM   24  C4  UNL     1      20.543   5.251  50.309  1.00  0.00     0.019 A 
HETATM   25  C3  UNL     1      19.374   4.689  50.584  1.00  0.00     0.013 A 
HETATM   26  C2  UNL     1      19.744   3.483  51.313  1.00  0.00    -0.027 A 
HETATM   27  C1  UNL     1      18.876   2.605  51.788  1.00  0.00     0.025 C 
HETATM   28  C22 UNL     1      21.190   3.451  51.400  1.00  0.00     0.036 A 
HETATM   29 BR1  UNL     1      22.265   2.113  52.239  1.00  0.00    -0.049 Br
ENDBRANCH  20  23
ENDBRANCH   1  19
TORSDOF 4
ENDMDL
MODEL 9
REMARK VINA RESULT:      -7.5      2.395      3.172
REMARK  4 active torsions:
REMARK  status: ('A' for Active; 'I' for Inactive)
REMARK    1  A    between atoms: C5_5  and  C6_6 
REMARK       I    between atoms: C6_6  and  N1_8 
REMARK    2  A    between atoms: N1_8  and  C7_9 
REMARK    3  A    between atoms: C10_12  and  O2_13 
REMARK    4  A    between atoms: O2_13  and  C11_14 
ROOT
HETATM    1  C7  UNL     1      26.291   5.156  49.085  1.00  0.00     0.035 A 
HETATM    2  C8  UNL     1      27.517   4.709  48.655  1.00  0.00     0.032 A 
HETATM    3  C9  UNL     1      28.539   5.566  48.356  1.00  0.00     0.039 A 
HETATM    4  C10 UNL     1      28.381   6.919  48.476  1.00  0.00     0.075 A 
HETATM    5  C20 UNL     1      27.121   7.355  48.918  1.00  0.00     0.039 A 
HETATM    6  C21 UNL     1      26.064   6.492  49.226  1.00  0.00     0.032 A 
ENDROOT
BRANCH   4   7
HETATM    7  O2  UNL     1      29.163   7.911  48.267  1.00  0.00    -0.313 OA
BRANCH   7   8
HETATM    8  C11 UNL     1      29.944   8.905  48.057  1.00  0.00     0.076 C 
HETATM    9  C12 UNL     1      31.104   8.355  47.725  1.00  0.00    -0.035 C 
HETATM   10  C13 UNL     1      31.558   7.162  46.954  1.00  0.00     0.067 C 
HETATM   11  C18 UNL     1      32.530   8.899  47.926  1.00  0.00     0.070 C 
HETATM   12  C14 UNL     1      32.460   7.961  45.955  1.00  0.00     0.011 C 
HETATM   13  C15 UNL     1      32.446   9.254  46.409  1.00  0.00     0.059 C 
HETATM   14  O3  UNL     1      32.381  10.670  46.114  1.00  0.00    -0.308 OA
HETATM   15  C16 UNL     1      31.204  11.511  46.433  1.00  0.00     0.252 C 
HETATM   16  N2  UNL     1      30.287  11.308  47.363  1.00  0.00    -0.271 NA
HETATM   17  C17 UNL     1      29.607  10.364  48.164  1.00  0.00     0.215 C 
HETATM   18  C19 UNL     1      33.485   7.836  48.236  1.00  0.00     0.022 C 
ENDBRANCH   7   8
ENDBRANCH   4   7
BRANCH   1  19
HETATM   19  N1  UNL     1      25.354   4.136  49.354  1.00  0.00    -0.323 N 
HETATM   20  C6  UNL     1      23.975   4.060  49.022  1.00  0.00     0.257 C 
HETATM   21  O1  UNL     1      23.451   5.005  48.397  1.00  0.00    -0.267 OA
HETATM   22  H5  UNL     1      25.631   3.251  49.879  1.00  0.00     0.169 HD
BRANCH  20  23
HETATM   23  C5  UNL     1      23.140   2.921  49.383  1.00  0.00     0.050 A 
HETATM   24  C4  UNL     1      22.361   2.081  48.507  1.00  0.00     0.019 A 
HETATM   25  C3  UNL     1      21.695   1.115  49.124  1.00  0.00     0.013 A 
HETATM   26  C2  UNL     1      22.043   1.309  50.526  1.00  0.00    -0.027 A 
HETATM   27  C1  UNL     1      21.595   0.553  51.514  1.00  0.00     0.025 C 
HETATM   28  C22 UNL     1      22.939   2.445  50.601  1.00  0.00     0.036 A 
HETATM   29 BR1  UNL     1      23.735   3.183  52.173  1.00  0.00    -0.049 Br
ENDBRANCH  20  23
ENDBRANCH   1  19
TORSDOF 4
ENDMDL
