MODEL 1
REMARK VINA RESULT:      -8.4      0.000      0.000
REMARK  0 active torsions:
REMARK  status: ('A' for Active; 'I' for Inactive)
ROOT
HETATM    1  C1  UNL     1      28.487   2.139  53.651  1.00  0.00    -0.027 C 
HETATM    2  C2  UNL     1      29.415   1.209  53.810  1.00  0.00     0.014 C 
HETATM    3  C3  UNL     1      29.367  -0.254  53.771  1.00  0.00     0.025 C 
HETATM    4  C4  UNL     1      28.475  -1.089  53.266  1.00  0.00     0.135 C 
HETATM    5  O1  UNL     1      27.265  -1.095  52.591  1.00  0.00    -0.360 OA
HETATM    6  C5  UNL     1      26.298  -0.086  52.334  1.00  0.00     0.210 C 
HETATM    7  C6  UNL     1      26.118   0.823  53.522  1.00  0.00     0.082 C 
HETATM    8  C7  UNL     1      27.229   1.818  53.613  1.00  0.00     0.019 C 
HETATM    9  N1  UNL     1      26.157  -0.090  54.687  1.00  0.00    -0.369 N 
HETATM   10  C8  UNL     1      25.010  -0.931  54.693  1.00  0.00     0.205 C 
HETATM   11  N2  UNL     1      23.911  -0.675  54.072  1.00  0.00    -0.229 NA
HETATM   12  C9  UNL     1      23.716   0.515  53.286  1.00  0.00     0.129 C 
HETATM   13  N3  UNL     1      22.729   0.044  52.753  1.00  0.00    -0.264 NA
HETATM   14  C10 UNL     1      21.694   0.111  51.899  1.00  0.00     0.224 C 
HETATM   15  S1  UNL     1      21.280   1.713  51.146  1.00  0.00    -0.147 SA
HETATM   16  C11 UNL     1      22.588   2.231  49.997  1.00  0.00     0.075 C 
HETATM   17  C12 UNL     1      23.919   2.174  50.753  1.00  0.00     0.010 C 
HETATM   18  C13 UNL     1      23.664   2.973  51.998  1.00  0.00     0.002 C 
HETATM   19  C14 UNL     1      24.712   2.845  53.056  1.00  0.00     0.015 C 
HETATM   20  C15 UNL     1      24.779   1.484  53.630  1.00  0.00     0.091 C 
HETATM   21  H7  UNL     1      26.955  -0.032  55.341  1.00  0.00     0.161 HD
ENDROOT
TORSDOF 0
ENDMDL
MODEL 2
REMARK VINA RESULT:      -7.6      2.667      5.871
REMARK  0 active torsions:
REMARK  status: ('A' for Active; 'I' for Inactive)
ROOT
HETATM    1  C1  UNL     1      21.289   0.274  50.840  1.00  0.00    -0.027 C 
HETATM    2  C2  UNL     1      20.781   1.101  49.940  1.00  0.00     0.014 C 
HETATM    3  C3  UNL     1      21.210   2.410  49.446  1.00  0.00     0.025 C 
HETATM    4  C4  UNL     1      22.377   3.031  49.504  1.00  0.00     0.135 C 
HETATM    5  O1  UNL     1      23.668   2.857  49.978  1.00  0.00    -0.360 OA
HETATM    6  C5  UNL     1      24.249   1.921  50.875  1.00  0.00     0.210 C 
HETATM    7  C6  UNL     1      23.328   1.613  52.027  1.00  0.00     0.082 C 
HETATM    8  C7  UNL     1      22.256   0.657  51.619  1.00  0.00     0.019 C 
HETATM    9  N1  UNL     1      22.733   2.923  52.377  1.00  0.00    -0.369 N 
HETATM   10  C8  UNL     1      23.724   3.785  52.922  1.00  0.00     0.205 C 
HETATM   11  N2  UNL     1      24.836   3.388  53.438  1.00  0.00    -0.229 NA
HETATM   12  C9  UNL     1      25.207   2.000  53.523  1.00  0.00     0.129 C 
HETATM   13  N3  UNL     1      26.366   2.287  53.759  1.00  0.00    -0.264 NA
HETATM   14  C10 UNL     1      27.640   1.958  54.024  1.00  0.00     0.224 C 
HETATM   15  S1  UNL     1      28.034   0.231  54.430  1.00  0.00    -0.147 SA
HETATM   16  C11 UNL     1      27.798  -0.832  52.976  1.00  0.00     0.075 C 
HETATM   17  C12 UNL     1      26.386  -0.579  52.441  1.00  0.00     0.010 C 
HETATM   18  C13 UNL     1      25.504  -0.757  53.642  1.00  0.00     0.002 C 
HETATM   19  C14 UNL     1      24.095  -0.288  53.468  1.00  0.00     0.015 C 
HETATM   20  C15 UNL     1      24.000   1.177  53.291  1.00  0.00     0.091 C 
HETATM   21  H7  UNL     1      21.725   3.077  52.207  1.00  0.00     0.161 HD
ENDROOT
TORSDOF 0
ENDMDL
MODEL 3
REMARK VINA RESULT:      -7.5      2.726      4.130
REMARK  0 active torsions:
REMARK  status: ('A' for Active; 'I' for Inactive)
ROOT
HETATM    1  C1  UNL     1      23.760  -0.511  53.761  1.00  0.00    -0.027 C 
HETATM    2  C2  UNL     1      24.733  -0.880  54.579  1.00  0.00     0.014 C 
HETATM    3  C3  UNL     1      26.038  -0.297  54.891  1.00  0.00     0.025 C 
HETATM    4  C4  UNL     1      26.524   0.918  54.702  1.00  0.00     0.135 C 
HETATM    5  O1  UNL     1      26.165   2.155  54.191  1.00  0.00    -0.360 OA
HETATM    6  C5  UNL     1      25.077   2.588  53.385  1.00  0.00     0.210 C 
HETATM    7  C6  UNL     1      24.737   1.573  52.325  1.00  0.00     0.082 C 
HETATM    8  C7  UNL     1      23.949   0.440  52.896  1.00  0.00     0.019 C 
HETATM    9  N1  UNL     1      26.053   1.089  51.849  1.00  0.00    -0.369 N 
HETATM   10  C8  UNL     1      26.739   2.124  51.157  1.00  0.00     0.205 C 
HETATM   11  N2  UNL     1      26.173   3.159  50.640  1.00  0.00    -0.229 NA
HETATM   12  C9  UNL     1      24.753   3.388  50.704  1.00  0.00     0.129 C 
HETATM   13  N3  UNL     1      24.890   4.552  50.379  1.00  0.00    -0.264 NA
HETATM   14  C10 UNL     1      24.403   5.771  50.094  1.00  0.00     0.224 C 
HETATM   15  S1  UNL     1      22.609   5.970  49.880  1.00  0.00    -0.147 SA
HETATM   16  C11 UNL     1      21.749   5.720  51.460  1.00  0.00     0.075 C 
HETATM   17  C12 UNL     1      22.208   4.374  52.029  1.00  0.00     0.010 C 
HETATM   18  C13 UNL     1      21.985   3.408  50.902  1.00  0.00     0.002 C 
HETATM   19  C14 UNL     1      22.614   2.065  51.086  1.00  0.00     0.015 C 
HETATM   20  C15 UNL     1      24.091   2.123  51.091  1.00  0.00     0.091 C 
HETATM   21  H7  UNL     1      26.328   0.112  52.049  1.00  0.00     0.161 HD
ENDROOT
TORSDOF 0
ENDMDL
MODEL 4
REMARK VINA RESULT:      -7.0      3.260      5.761
REMARK  0 active torsions:
REMARK  status: ('A' for Active; 'I' for Inactive)
ROOT
HETATM    1  C1  UNL     1      25.270   6.073  50.048  1.00  0.00    -0.027 C 
HETATM    2  C2  UNL     1      24.306   6.980  50.004  1.00  0.00     0.014 C 
HETATM    3  C3  UNL     1      22.914   6.967  50.457  1.00  0.00     0.025 C 
HETATM    4  C4  UNL     1      22.278   6.186  51.313  1.00  0.00     0.135 C 
HETATM    5  O1  UNL     1      22.493   5.105  52.153  1.00  0.00    -0.360 OA
HETATM    6  C5  UNL     1      23.561   4.175  52.274  1.00  0.00     0.210 C 
HETATM    7  C6  UNL     1      24.109   3.784  50.926  1.00  0.00     0.082 C 
HETATM    8  C7  UNL     1      25.007   4.845  50.381  1.00  0.00     0.019 C 
HETATM    9  N1  UNL     1      22.908   3.646  50.071  1.00  0.00    -0.369 N 
HETATM   10  C8  UNL     1      22.131   2.531  50.488  1.00  0.00     0.205 C 
HETATM   11  N2  UNL     1      22.580   1.545  51.186  1.00  0.00    -0.229 NA
HETATM   12  C9  UNL     1      23.947   1.460  51.630  1.00  0.00     0.129 C 
HETATM   13  N3  UNL     1      23.670   0.584  52.427  1.00  0.00    -0.264 NA
HETATM   14  C10 UNL     1      24.001  -0.296  53.386  1.00  0.00     0.224 C 
HETATM   15  S1  UNL     1      25.760  -0.610  53.720  1.00  0.00    -0.147 SA
HETATM   16  C11 UNL     1      26.540   0.860  54.449  1.00  0.00     0.075 C 
HETATM   17  C12 UNL     1      26.237   2.048  53.531  1.00  0.00     0.010 C 
HETATM   18  C13 UNL     1      26.666   1.576  52.172  1.00  0.00     0.002 C 
HETATM   19  C14 UNL     1      26.220   2.436  51.034  1.00  0.00     0.015 C 
HETATM   20  C15 UNL     1      24.751   2.433  50.859  1.00  0.00     0.091 C 
HETATM   21  H7  UNL     1      22.759   4.325  49.305  1.00  0.00     0.161 HD
ENDROOT
TORSDOF 0
ENDMDL
MODEL 5
REMARK VINA RESULT:      -6.9     10.072     11.633
REMARK  0 active torsions:
REMARK  status: ('A' for Active; 'I' for Inactive)
ROOT
HETATM    1  C1  UNL     1      35.184   4.066  47.568  1.00  0.00    -0.027 C 
HETATM    2  C2  UNL     1      34.516   2.927  47.477  1.00  0.00     0.014 C 
HETATM    3  C3  UNL     1      33.086   2.616  47.465  1.00  0.00     0.025 C 
HETATM    4  C4  UNL     1      32.027   3.371  47.229  1.00  0.00     0.135 C 
HETATM    5  O1  UNL     1      31.681   4.674  46.907  1.00  0.00    -0.360 OA
HETATM    6  C5  UNL     1      32.408   5.895  46.913  1.00  0.00     0.210 C 
HETATM    7  C6  UNL     1      33.336   5.980  48.097  1.00  0.00     0.082 C 
HETATM    8  C7  UNL     1      34.570   5.169  47.874  1.00  0.00     0.019 C 
HETATM    9  N1  UNL     1      32.550   5.413  49.216  1.00  0.00    -0.369 N 
HETATM   10  C8  UNL     1      31.463   6.270  49.541  1.00  0.00     0.205 C 
HETATM   11  N2  UNL     1      31.401   7.521  49.237  1.00  0.00    -0.229 NA
HETATM   12  C9  UNL     1      32.447   8.205  48.523  1.00  0.00     0.129 C 
HETATM   13  N3  UNL     1      31.716   9.147  48.282  1.00  0.00    -0.264 NA
HETATM   14  C10 UNL     1      31.469  10.350  47.740  1.00  0.00     0.224 C 
HETATM   15  S1  UNL     1      32.864  11.333  47.113  1.00  0.00    -0.147 SA
HETATM   16  C11 UNL     1      33.590  10.542  45.648  1.00  0.00     0.075 C 
HETATM   17  C12 UNL     1      33.909   9.090  46.016  1.00  0.00     0.010 C 
HETATM   18  C13 UNL     1      34.717   9.203  47.275  1.00  0.00     0.002 C 
HETATM   19  C14 UNL     1      34.923   7.918  48.012  1.00  0.00     0.015 C 
HETATM   20  C15 UNL     1      33.665   7.366  48.558  1.00  0.00     0.091 C 
HETATM   21  H7  UNL     1      32.845   4.512  49.628  1.00  0.00     0.161 HD
ENDROOT
TORSDOF 0
ENDMDL
MODEL 6
REMARK VINA RESULT:      -6.8     10.059     11.362
REMARK  0 active torsions:
REMARK  status: ('A' for Active; 'I' for Inactive)
ROOT
HETATM    1  C1  UNL     1      33.783   4.640  44.642  1.00  0.00    -0.027 C 
HETATM    2  C2  UNL     1      34.648   3.743  45.089  1.00  0.00     0.014 C 
HETATM    3  C3  UNL     1      35.194   3.471  46.420  1.00  0.00     0.025 C 
HETATM    4  C4  UNL     1      34.775   3.815  47.626  1.00  0.00     0.135 C 
HETATM    5  O1  UNL     1      33.756   4.510  48.256  1.00  0.00    -0.360 OA
HETATM    6  C5  UNL     1      32.763   5.409  47.780  1.00  0.00     0.210 C 
HETATM    7  C6  UNL     1      33.309   6.324  46.716  1.00  0.00     0.082 C 
HETATM    8  C7  UNL     1      33.403   5.625  45.399  1.00  0.00     0.019 C 
HETATM    9  N1  UNL     1      34.663   6.677  47.200  1.00  0.00    -0.369 N 
HETATM   10  C8  UNL     1      34.574   7.486  48.367  1.00  0.00     0.205 C 
HETATM   11  N2  UNL     1      33.535   8.166  48.709  1.00  0.00    -0.229 NA
HETATM   12  C9  UNL     1      32.323   8.187  47.932  1.00  0.00     0.129 C 
HETATM   13  N3  UNL     1      31.697   8.670  48.856  1.00  0.00    -0.264 NA
HETATM   14  C10 UNL     1      30.566   9.145  49.404  1.00  0.00     0.224 C 
HETATM   15  S1  UNL     1      29.131   9.450  48.332  1.00  0.00    -0.147 SA
HETATM   16  C11 UNL     1      28.465   7.882  47.702  1.00  0.00     0.075 C 
HETATM   17  C12 UNL     1      29.623   7.109  47.063  1.00  0.00     0.010 C 
HETATM   18  C13 UNL     1      30.233   8.094  46.108  1.00  0.00     0.002 C 
HETATM   19  C14 UNL     1      31.563   7.696  45.554  1.00  0.00     0.015 C 
HETATM   20  C15 UNL     1      32.619   7.647  46.587  1.00  0.00     0.091 C 
HETATM   21  H7  UNL     1      35.487   6.330  46.681  1.00  0.00     0.161 HD
ENDROOT
TORSDOF 0
ENDMDL
MODEL 7
REMARK VINA RESULT:      -6.8      2.646      3.815
REMARK  0 active torsions:
REMARK  status: ('A' for Active; 'I' for Inactive)
ROOT
HETATM    1  C1  UNL     1      26.792   0.287  51.635  1.00  0.00    -0.027 C 
HETATM    2  C2  UNL     1      26.689  -0.482  52.708  1.00  0.00     0.014 C 
HETATM    3  C3  UNL     1      25.727  -0.518  53.811  1.00  0.00     0.025 C 
HETATM    4  C4  UNL     1      24.508  -0.019  53.928  1.00  0.00     0.135 C 
HETATM    5  O1  UNL     1      23.566   0.707  53.215  1.00  0.00    -0.360 OA
HETATM    6  C5  UNL     1      23.639   1.465  52.015  1.00  0.00     0.210 C 
HETATM    7  C6  UNL     1      24.929   2.237  51.925  1.00  0.00     0.082 C 
HETATM    8  C7  UNL     1      26.059   1.352  51.512  1.00  0.00     0.019 C 
HETATM    9  N1  UNL     1      25.151   2.736  53.302  1.00  0.00    -0.369 N 
HETATM   10  C8  UNL     1      24.167   3.706  53.640  1.00  0.00     0.205 C 
HETATM   11  N2  UNL     1      23.470   4.371  52.785  1.00  0.00    -0.229 NA
HETATM   12  C9  UNL     1      23.613   4.204  51.361  1.00  0.00     0.129 C 
HETATM   13  N3  UNL     1      22.566   4.787  51.153  1.00  0.00    -0.264 NA
HETATM   14  C10 UNL     1      21.622   5.275  50.332  1.00  0.00     0.224 C 
HETATM   15  S1  UNL     1      21.956   5.332  48.546  1.00  0.00    -0.147 SA
HETATM   16  C11 UNL     1      22.039   3.652  47.862  1.00  0.00     0.075 C 
HETATM   17  C12 UNL     1      23.043   2.858  48.703  1.00  0.00     0.010 C 
HETATM   18  C13 UNL     1      24.272   3.718  48.710  1.00  0.00     0.002 C 
HETATM   19  C14 UNL     1      25.320   3.316  49.697  1.00  0.00     0.015 C 
HETATM   20  C15 UNL     1      24.877   3.484  51.098  1.00  0.00     0.091 C 
HETATM   21  H7  UNL     1      25.945   2.360  53.848  1.00  0.00     0.161 HD
ENDROOT
TORSDOF 0
ENDMDL
MODEL 8
REMARK VINA RESULT:      -6.7      8.578      9.898
REMARK  0 active torsions:
REMARK  status: ('A' for Active; 'I' for Inactive)
ROOT
HETATM    1  C1  UNL     1      27.193   4.395  48.843  1.00  0.00    -0.027 C 
HETATM    2  C2  UNL     1      26.030   4.080  49.392  1.00  0.00     0.014 C 
HETATM    3  C3  UNL     1      24.849   4.873  49.734  1.00  0.00     0.025 C 
HETATM    4  C4  UNL     1      24.447   6.066  49.328  1.00  0.00     0.135 C 
HETATM    5  O1  UNL     1      24.822   7.103  48.490  1.00  0.00    -0.360 OA
HETATM    6  C5  UNL     1      26.038   7.411  47.820  1.00  0.00     0.210 C 
HETATM    7  C6  UNL     1      27.236   7.103  48.679  1.00  0.00     0.082 C 
HETATM    8  C7  UNL     1      27.533   5.639  48.685  1.00  0.00     0.019 C 
HETATM    9  N1  UNL     1      26.835   7.545  50.034  1.00  0.00    -0.369 N 
HETATM   10  C8  UNL     1      26.712   8.961  50.075  1.00  0.00     0.205 C 
HETATM   11  N2  UNL     1      27.263   9.769  49.236  1.00  0.00    -0.229 NA
HETATM   12  C9  UNL     1      28.085   9.319  48.142  1.00  0.00     0.129 C 
HETATM   13  N3  UNL     1      28.017  10.405  47.599  1.00  0.00    -0.264 NA
HETATM   14  C10 UNL     1      28.311  11.253  46.600  1.00  0.00     0.224 C 
HETATM   15  S1  UNL     1      29.585  10.780  45.393  1.00  0.00    -0.147 SA
HETATM   16  C11 UNL     1      29.011   9.387  44.378  1.00  0.00     0.075 C 
HETATM   17  C12 UNL     1      28.550   8.279  45.330  1.00  0.00     0.010 C 
HETATM   18  C13 UNL     1      29.713   8.091  46.260  1.00  0.00     0.002 C 
HETATM   19  C14 UNL     1      29.427   7.264  47.472  1.00  0.00     0.015 C 
HETATM   20  C15 UNL     1      28.463   7.910  48.388  1.00  0.00     0.091 C 
HETATM   21  H7  UNL     1      26.696   6.834  50.772  1.00  0.00     0.161 HD
ENDROOT
TORSDOF 0
ENDMDL
MODEL 9
REMARK VINA RESULT:      -6.7      3.364      7.025
REMARK  0 active torsions:
REMARK  status: ('A' for Active; 'I' for Inactive)
ROOT
HETATM    1  C1  UNL     1      18.252  -0.819  52.516  1.00  0.00    -0.027 C 
HETATM    2  C2  UNL     1      17.443  -0.541  51.506  1.00  0.00     0.014 C 
HETATM    3  C3  UNL     1      17.566   0.358  50.357  1.00  0.00     0.025 C 
HETATM    4  C4  UNL     1      18.621   0.930  49.800  1.00  0.00     0.135 C 
HETATM    5  O1  UNL     1      19.998   1.013  49.932  1.00  0.00    -0.360 OA
HETATM    6  C5  UNL     1      20.892   0.639  50.972  1.00  0.00     0.210 C 
HETATM    7  C6  UNL     1      20.314   0.934  52.332  1.00  0.00     0.082 C 
HETATM    8  C7  UNL     1      19.314  -0.101  52.729  1.00  0.00     0.019 C 
HETATM    9  N1  UNL     1      19.648   2.247  52.166  1.00  0.00    -0.369 N 
HETATM   10  C8  UNL     1      20.615   3.267  51.951  1.00  0.00     0.205 C 
HETATM   11  N2  UNL     1      21.860   3.176  52.272  1.00  0.00    -0.229 NA
HETATM   12  C9  UNL     1      22.422   2.009  52.900  1.00  0.00     0.129 C 
HETATM   13  N3  UNL     1      23.554   2.377  52.651  1.00  0.00    -0.264 NA
HETATM   14  C10 UNL     1      24.888   2.223  52.687  1.00  0.00     0.224 C 
HETATM   15  S1  UNL     1      25.592   0.918  53.737  1.00  0.00    -0.147 SA
HETATM   16  C11 UNL     1      25.168  -0.722  53.082  1.00  0.00     0.075 C 
HETATM   17  C12 UNL     1      23.649  -0.767  52.892  1.00  0.00     0.010 C 
HETATM   18  C13 UNL     1      23.103  -0.334  54.222  1.00  0.00     0.002 C 
HETATM   19  C14 UNL     1      21.644  -0.013  54.233  1.00  0.00     0.015 C 
HETATM   20  C15 UNL     1      21.315   1.176  53.418  1.00  0.00     0.091 C 
HETATM   21  H7  UNL     1      18.617   2.295  52.222  1.00  0.00     0.161 HD
ENDROOT
TORSDOF 0
ENDMDL
