MODEL 1
REMARK VINA RESULT:      -8.4      0.000      0.000
REMARK  2 active torsions:
REMARK  status: ('A' for Active; 'I' for Inactive)
REMARK    1  A    between atoms: O1_2  and  C2_3 
REMARK    2  A    between atoms: N3_13  and  C9_14 
ROOT
HETATM    1  C2  UNL     1      22.290   3.205  48.042  1.00  0.00     0.070 A 
HETATM    2  C3  UNL     1      23.012   4.392  48.136  1.00  0.00     0.037 A 
HETATM    3  C4  UNL     1      23.473   4.868  49.344  1.00  0.00     0.012 A 
HETATM    4  C5  UNL     1      23.208   4.135  50.508  1.00  0.00    -0.024 A 
HETATM    5  C6  UNL     1      22.501   2.968  50.429  1.00  0.00     0.081 A 
HETATM    6  C7  UNL     1      22.050   2.516  49.201  1.00  0.00     0.074 A 
HETATM    7  O2  UNL     1      22.146   2.121  51.444  1.00  0.00    -0.318 OA
HETATM    8  C8  UNL     1      22.824   1.802  52.641  1.00  0.00     0.306 A 
HETATM    9  N1  UNL     1      23.342   0.465  52.646  1.00  0.00    -0.136 NA
HETATM   10  N2  UNL     1      24.552   0.243  52.850  1.00  0.00    -0.064 NA
HETATM   11  N3  UNL     1      25.543   1.165  53.091  1.00  0.00    -0.227 N 
HETATM   12  C15 UNL     1      25.218   2.544  53.124  1.00  0.00     0.128 A 
HETATM   13  C16 UNL     1      23.931   2.749  52.904  1.00  0.00    -0.010 A 
HETATM   14  C17 UNL     1      23.658   4.211  52.952  1.00  0.00     0.045 C 
HETATM   15  C18 UNL     1      23.817   4.880  51.629  1.00  0.00     0.046 C 
ENDROOT
BRANCH  11  16
HETATM   16  C9  UNL     1      26.871   0.717  53.301  1.00  0.00     0.061 A 
HETATM   17  C10 UNL     1      27.842   1.635  53.668  1.00  0.00     0.032 A 
HETATM   18  C11 UNL     1      29.153   1.271  53.889  1.00  0.00     0.004 A 
HETATM   19  C12 UNL     1      29.535  -0.044  53.747  1.00  0.00     0.024 A 
HETATM   20  C13 UNL     1      28.589  -1.002  53.378  1.00  0.00     0.036 A 
HETATM   21 CL1  UNL     1      29.077  -2.674  53.199  1.00  0.00    -0.084 Cl
HETATM   22  C14 UNL     1      27.299  -0.586  53.171  1.00  0.00     0.055 A 
ENDBRANCH  11  16
BRANCH   1  23
HETATM   23  O1  UNL     1      21.896   2.862  46.756  1.00  0.00    -0.356 OA
HETATM   24  C1  UNL     1      21.861   3.820  45.724  1.00  0.00     0.210 C 
ENDBRANCH   1  23
TORSDOF 2
ENDMDL
MODEL 2
REMARK VINA RESULT:      -8.2      1.945      3.146
REMARK  2 active torsions:
REMARK  status: ('A' for Active; 'I' for Inactive)
REMARK    1  A    between atoms: O1_2  and  C2_3 
REMARK    2  A    between atoms: N3_13  and  C9_14 
ROOT
HETATM    1  C2  UNL     1      19.810   1.448  50.953  1.00  0.00     0.070 A 
HETATM    2  C3  UNL     1      20.248   0.985  49.715  1.00  0.00     0.037 A 
HETATM    3  C4  UNL     1      21.428   1.420  49.152  1.00  0.00     0.012 A 
HETATM    4  C5  UNL     1      22.208   2.351  49.847  1.00  0.00    -0.024 A 
HETATM    5  C6  UNL     1      21.790   2.814  51.064  1.00  0.00     0.081 A 
HETATM    6  C7  UNL     1      20.600   2.359  51.604  1.00  0.00     0.074 A 
HETATM    7  O2  UNL     1      22.408   3.716  51.887  1.00  0.00    -0.318 OA
HETATM    8  C8  UNL     1      23.783   3.958  52.101  1.00  0.00     0.306 A 
HETATM    9  N1  UNL     1      24.227   3.531  53.396  1.00  0.00    -0.136 NA
HETATM   10  N2  UNL     1      25.174   2.730  53.521  1.00  0.00    -0.064 NA
HETATM   11  N3  UNL     1      25.917   2.149  52.521  1.00  0.00    -0.227 N 
HETATM   12  C15 UNL     1      25.622   2.453  51.169  1.00  0.00     0.128 A 
HETATM   13  C16 UNL     1      24.615   3.303  51.067  1.00  0.00    -0.010 A 
HETATM   14  C17 UNL     1      24.358   3.580  49.627  1.00  0.00     0.045 C 
HETATM   15  C18 UNL     1      23.394   2.624  49.010  1.00  0.00     0.046 C 
ENDROOT
BRANCH  11  16
HETATM   16  C9  UNL     1      26.962   1.256  52.864  1.00  0.00     0.061 A 
HETATM   17  C10 UNL     1      28.116   1.760  53.443  1.00  0.00     0.032 A 
HETATM   18  C11 UNL     1      29.173   0.951  53.802  1.00  0.00     0.004 A 
HETATM   19  C12 UNL     1      29.103  -0.407  53.590  1.00  0.00     0.024 A 
HETATM   20  C13 UNL     1      27.958  -0.957  53.009  1.00  0.00     0.036 A 
HETATM   21 CL1  UNL     1      27.871  -2.685  52.740  1.00  0.00    -0.084 Cl
HETATM   22  C14 UNL     1      26.937  -0.108  52.671  1.00  0.00     0.055 A 
ENDBRANCH  11  16
BRANCH   1  23
HETATM   23  O1  UNL     1      18.603   0.915  51.383  1.00  0.00    -0.356 OA
HETATM   24  C1  UNL     1      18.555  -0.301  52.092  1.00  0.00     0.210 C 
ENDBRANCH   1  23
TORSDOF 2
ENDMDL
MODEL 3
REMARK VINA RESULT:      -8.2      3.634      7.496
REMARK  2 active torsions:
REMARK  status: ('A' for Active; 'I' for Inactive)
REMARK    1  A    between atoms: O1_2  and  C2_3 
REMARK    2  A    between atoms: N3_13  and  C9_14 
ROOT
HETATM    1  C2  UNL     1      27.938   0.574  53.392  1.00  0.00     0.070 A 
HETATM    2  C3  UNL     1      27.333  -0.639  53.074  1.00  0.00     0.037 A 
HETATM    3  C4  UNL     1      25.966  -0.758  52.950  1.00  0.00     0.012 A 
HETATM    4  C5  UNL     1      25.165   0.374  53.147  1.00  0.00    -0.024 A 
HETATM    5  C6  UNL     1      25.747   1.571  53.459  1.00  0.00     0.081 A 
HETATM    6  C7  UNL     1      27.123   1.659  53.578  1.00  0.00     0.074 A 
HETATM    7  O2  UNL     1      25.140   2.776  53.686  1.00  0.00    -0.318 OA
HETATM    8  C8  UNL     1      23.968   3.325  53.120  1.00  0.00     0.306 A 
HETATM    9  N1  UNL     1      24.239   4.420  52.235  1.00  0.00    -0.136 NA
HETATM   10  N2  UNL     1      23.836   4.412  51.055  1.00  0.00    -0.064 NA
HETATM   11  N3  UNL     1      23.112   3.428  50.425  1.00  0.00    -0.227 N 
HETATM   12  C15 UNL     1      22.748   2.262  51.145  1.00  0.00     0.128 A 
HETATM   13  C16 UNL     1      23.188   2.299  52.391  1.00  0.00    -0.010 A 
HETATM   14  C17 UNL     1      22.774   1.051  53.089  1.00  0.00     0.045 C 
HETATM   15  C18 UNL     1      23.765  -0.054  52.950  1.00  0.00     0.046 C 
ENDROOT
BRANCH  11  16
HETATM   16  C9  UNL     1      22.744   3.599  49.068  1.00  0.00     0.061 A 
HETATM   17  C10 UNL     1      22.387   2.487  48.321  1.00  0.00     0.032 A 
HETATM   18  C11 UNL     1      22.018   2.578  46.996  1.00  0.00     0.004 A 
HETATM   19  C12 UNL     1      21.994   3.805  46.372  1.00  0.00     0.024 A 
HETATM   20  C13 UNL     1      22.345   4.951  47.088  1.00  0.00     0.036 A 
HETATM   21 CL1  UNL     1      22.313   6.511  46.292  1.00  0.00    -0.084 Cl
HETATM   22  C14 UNL     1      22.704   4.804  48.402  1.00  0.00     0.055 A 
ENDBRANCH  11  16
BRANCH   1  23
HETATM   23  O1  UNL     1      29.322   0.530  53.481  1.00  0.00    -0.356 OA
HETATM   24  C1  UNL     1      30.008  -0.696  53.576  1.00  0.00     0.210 C 
ENDBRANCH   1  23
TORSDOF 2
ENDMDL
MODEL 4
REMARK VINA RESULT:      -8.0      5.899      7.586
REMARK  2 active torsions:
REMARK  status: ('A' for Active; 'I' for Inactive)
REMARK    1  A    between atoms: O1_2  and  C2_3 
REMARK    2  A    between atoms: N3_13  and  C9_14 
ROOT
HETATM    1  C2  UNL     1      14.368   3.890  53.312  1.00  0.00     0.070 A 
HETATM    2  C3  UNL     1      13.859   2.654  52.921  1.00  0.00     0.037 A 
HETATM    3  C4  UNL     1      14.524   1.845  52.026  1.00  0.00     0.012 A 
HETATM    4  C5  UNL     1      15.745   2.278  51.497  1.00  0.00    -0.024 A 
HETATM    5  C6  UNL     1      16.256   3.490  51.872  1.00  0.00     0.081 A 
HETATM    6  C7  UNL     1      15.565   4.281  52.773  1.00  0.00     0.074 A 
HETATM    7  O2  UNL     1      17.423   4.081  51.469  1.00  0.00    -0.318 OA
HETATM    8  C8  UNL     1      18.662   3.500  51.119  1.00  0.00     0.306 A 
HETATM    9  N1  UNL     1      19.687   3.752  52.089  1.00  0.00    -0.136 NA
HETATM   10  N2  UNL     1      20.316   2.816  52.621  1.00  0.00    -0.064 NA
HETATM   11  N3  UNL     1      20.159   1.469  52.398  1.00  0.00    -0.227 N 
HETATM   12  C15 UNL     1      19.187   1.026  51.466  1.00  0.00     0.128 A 
HETATM   13  C16 UNL     1      18.537   2.039  50.918  1.00  0.00    -0.010 A 
HETATM   14  C17 UNL     1      17.536   1.507  49.954  1.00  0.00     0.045 C 
HETATM   15  C18 UNL     1      16.214   1.218  50.581  1.00  0.00     0.046 C 
ENDROOT
BRANCH  11  16
HETATM   16  C9  UNL     1      20.973   0.550  53.105  1.00  0.00     0.061 A 
HETATM   17  C10 UNL     1      20.371  -0.487  53.801  1.00  0.00     0.032 A 
HETATM   18  C11 UNL     1      21.099  -1.418  54.510  1.00  0.00     0.004 A 
HETATM   19  C12 UNL     1      22.473  -1.337  54.542  1.00  0.00     0.024 A 
HETATM   20  C13 UNL     1      23.120  -0.309  53.855  1.00  0.00     0.036 A 
HETATM   21 CL1  UNL     1      24.868  -0.208  53.897  1.00  0.00    -0.084 Cl
HETATM   22  C14 UNL     1      22.348   0.590  53.166  1.00  0.00     0.055 A 
ENDBRANCH  11  16
BRANCH   1  23
HETATM   23  O1  UNL     1      13.581   4.585  54.219  1.00  0.00    -0.356 OA
HETATM   24  C1  UNL     1      12.200   4.331  54.330  1.00  0.00     0.210 C 
ENDBRANCH   1  23
TORSDOF 2
ENDMDL
MODEL 5
REMARK VINA RESULT:      -7.6      7.565      8.735
REMARK  2 active torsions:
REMARK  status: ('A' for Active; 'I' for Inactive)
REMARK    1  A    between atoms: O1_2  and  C2_3 
REMARK    2  A    between atoms: N3_13  and  C9_14 
ROOT
HETATM    1  C2  UNL     1      26.061   7.949  49.558  1.00  0.00     0.070 A 
HETATM    2  C3  UNL     1      25.723   7.525  48.275  1.00  0.00     0.037 A 
HETATM    3  C4  UNL     1      26.599   7.639  47.218  1.00  0.00     0.012 A 
HETATM    4  C5  UNL     1      27.864   8.194  47.442  1.00  0.00    -0.024 A 
HETATM    5  C6  UNL     1      28.210   8.614  48.696  1.00  0.00     0.081 A 
HETATM    6  C7  UNL     1      27.308   8.487  49.738  1.00  0.00     0.074 A 
HETATM    7  O2  UNL     1      29.387   9.177  49.109  1.00  0.00    -0.318 OA
HETATM    8  C8  UNL     1      30.707   8.955  48.659  1.00  0.00     0.306 A 
HETATM    9  N1  UNL     1      31.512   8.260  49.620  1.00  0.00    -0.136 NA
HETATM   10  N2  UNL     1      32.094   7.197  49.327  1.00  0.00    -0.064 NA
HETATM   11  N3  UNL     1      32.077   6.539  48.120  1.00  0.00    -0.227 N 
HETATM   12  C15 UNL     1      31.330   7.079  47.043  1.00  0.00     0.128 A 
HETATM   13  C16 UNL     1      30.725   8.204  47.383  1.00  0.00    -0.010 A 
HETATM   14  C17 UNL     1      29.961   8.716  46.212  1.00  0.00     0.045 C 
HETATM   15  C18 UNL     1      28.569   8.186  46.143  1.00  0.00     0.046 C 
ENDROOT
BRANCH  11  16
HETATM   16  C9  UNL     1      32.806   5.333  47.978  1.00  0.00     0.061 A 
HETATM   17  C10 UNL     1      34.153   5.317  48.308  1.00  0.00     0.032 A 
HETATM   18  C11 UNL     1      34.925   4.181  48.195  1.00  0.00     0.004 A 
HETATM   19  C12 UNL     1      34.362   3.009  47.743  1.00  0.00     0.024 A 
HETATM   20  C13 UNL     1      33.008   2.980  47.400  1.00  0.00     0.036 A 
HETATM   21 CL1  UNL     1      32.294   1.488  46.826  1.00  0.00    -0.084 Cl
HETATM   22  C14 UNL     1      32.287   4.138  47.531  1.00  0.00     0.055 A 
ENDBRANCH  11  16
BRANCH   1  23
HETATM   23  O1  UNL     1      25.072   7.767  50.513  1.00  0.00    -0.356 OA
HETATM   24  C1  UNL     1      24.570   6.484  50.808  1.00  0.00     0.210 C 
ENDBRANCH   1  23
TORSDOF 2
ENDMDL
MODEL 6
REMARK VINA RESULT:      -7.5      5.026      6.554
REMARK  2 active torsions:
REMARK  status: ('A' for Active; 'I' for Inactive)
REMARK    1  A    between atoms: O1_2  and  C2_3 
REMARK    2  A    between atoms: N3_13  and  C9_14 
ROOT
HETATM    1  C2  UNL     1      20.858   0.962  53.043  1.00  0.00     0.070 A 
HETATM    2  C3  UNL     1      21.148  -0.005  52.084  1.00  0.00     0.037 A 
HETATM    3  C4  UNL     1      21.251   0.307  50.746  1.00  0.00     0.012 A 
HETATM    4  C5  UNL     1      21.061   1.634  50.342  1.00  0.00    -0.024 A 
HETATM    5  C6  UNL     1      20.776   2.593  51.274  1.00  0.00     0.081 A 
HETATM    6  C7  UNL     1      20.678   2.249  52.611  1.00  0.00     0.074 A 
HETATM    7  O2  UNL     1      20.559   3.930  51.077  1.00  0.00    -0.318 OA
HETATM    8  C8  UNL     1      21.118   4.811  50.124  1.00  0.00     0.306 A 
HETATM    9  N1  UNL     1      22.023   5.757  50.707  1.00  0.00    -0.136 NA
HETATM   10  N2  UNL     1      23.197   5.862  50.300  1.00  0.00    -0.064 NA
HETATM   11  N3  UNL     1      23.801   5.147  49.294  1.00  0.00    -0.227 N 
HETATM   12  C15 UNL     1      23.058   4.160  48.598  1.00  0.00     0.128 A 
HETATM   13  C16 UNL     1      21.819   4.072  49.050  1.00  0.00    -0.010 A 
HETATM   14  C17 UNL     1      21.096   3.023  48.280  1.00  0.00     0.045 C 
HETATM   15  C18 UNL     1      21.231   1.662  48.875  1.00  0.00     0.046 C 
ENDROOT
BRANCH  11  16
HETATM   16  C9  UNL     1      25.155   5.410  48.973  1.00  0.00     0.061 A 
HETATM   17  C10 UNL     1      26.104   4.424  49.192  1.00  0.00     0.032 A 
HETATM   18  C11 UNL     1      27.440   4.609  48.904  1.00  0.00     0.004 A 
HETATM   19  C12 UNL     1      27.869   5.806  48.378  1.00  0.00     0.024 A 
HETATM   20  C13 UNL     1      26.947   6.827  48.140  1.00  0.00     0.036 A 
HETATM   21 CL1  UNL     1      27.496   8.349  47.471  1.00  0.00    -0.084 Cl
HETATM   22  C14 UNL     1      25.632   6.590  48.445  1.00  0.00     0.055 A 
ENDBRANCH  11  16
BRANCH   1  23
HETATM   23  O1  UNL     1      20.787   0.489  54.346  1.00  0.00    -0.356 OA
HETATM   24  C1  UNL     1      21.344  -0.755  54.701  1.00  0.00     0.210 C 
ENDBRANCH   1  23
TORSDOF 2
ENDMDL
MODEL 7
REMARK VINA RESULT:      -7.4      3.994      7.634
REMARK  2 active torsions:
REMARK  status: ('A' for Active; 'I' for Inactive)
REMARK    1  A    between atoms: O1_2  and  C2_3 
REMARK    2  A    between atoms: N3_13  and  C9_14 
ROOT
HETATM    1  C2  UNL     1      25.718   0.878  53.402  1.00  0.00     0.070 A 
HETATM    2  C3  UNL     1      24.729  -0.076  53.170  1.00  0.00     0.037 A 
HETATM    3  C4  UNL     1      23.430   0.281  52.882  1.00  0.00     0.012 A 
HETATM    4  C5  UNL     1      23.097   1.639  52.817  1.00  0.00    -0.024 A 
HETATM    5  C6  UNL     1      24.058   2.586  53.042  1.00  0.00     0.081 A 
HETATM    6  C7  UNL     1      25.354   2.197  53.331  1.00  0.00     0.074 A 
HETATM    7  O2  UNL     1      23.928   3.948  53.024  1.00  0.00    -0.318 OA
HETATM    8  C8  UNL     1      23.091   4.771  52.238  1.00  0.00     0.306 A 
HETATM    9  N1  UNL     1      23.817   5.527  51.260  1.00  0.00    -0.136 NA
HETATM   10  N2  UNL     1      23.530   5.459  50.049  1.00  0.00    -0.064 NA
HETATM   11  N3  UNL     1      22.540   4.704  49.465  1.00  0.00    -0.227 N 
HETATM   12  C15 UNL     1      21.715   3.888  50.278  1.00  0.00     0.128 A 
HETATM   13  C16 UNL     1      22.042   3.981  51.556  1.00  0.00    -0.010 A 
HETATM   14  C17 UNL     1      21.142   3.103  52.352  1.00  0.00     0.045 C 
HETATM   15  C18 UNL     1      21.657   1.711  52.495  1.00  0.00     0.046 C 
ENDROOT
BRANCH  11  16
HETATM   16  C9  UNL     1      22.365   4.758  48.060  1.00  0.00     0.061 A 
HETATM   17  C10 UNL     1      21.963   3.615  47.386  1.00  0.00     0.032 A 
HETATM   18  C11 UNL     1      21.773   3.593  46.021  1.00  0.00     0.004 A 
HETATM   19  C12 UNL     1      21.982   4.735  45.280  1.00  0.00     0.024 A 
HETATM   20  C13 UNL     1      22.388   5.909  45.918  1.00  0.00     0.036 A 
HETATM   21 CL1  UNL     1      22.652   7.359  44.973  1.00  0.00    -0.084 Cl
HETATM   22  C14 UNL     1      22.562   5.874  47.277  1.00  0.00     0.055 A 
ENDBRANCH  11  16
BRANCH   1  23
HETATM   23  O1  UNL     1      26.974   0.360  53.680  1.00  0.00    -0.356 OA
HETATM   24  C1  UNL     1      27.408  -0.851  53.104  1.00  0.00     0.210 C 
ENDBRANCH   1  23
TORSDOF 2
ENDMDL
MODEL 8
REMARK VINA RESULT:      -7.3      2.832      4.002
REMARK  2 active torsions:
REMARK  status: ('A' for Active; 'I' for Inactive)
REMARK    1  A    between atoms: O1_2  and  C2_3 
REMARK    2  A    between atoms: N3_13  and  C9_14 
ROOT
HETATM    1  C2  UNL     1      18.371   2.678  51.093  1.00  0.00     0.070 A 
HETATM    2  C3  UNL     1      18.593   1.620  50.214  1.00  0.00     0.037 A 
HETATM    3  C4  UNL     1      19.788   1.469  49.546  1.00  0.00     0.012 A 
HETATM    4  C5  UNL     1      20.808   2.405  49.760  1.00  0.00    -0.024 A 
HETATM    5  C6  UNL     1      20.604   3.448  50.619  1.00  0.00     0.081 A 
HETATM    6  C7  UNL     1      19.391   3.573  51.276  1.00  0.00     0.074 A 
HETATM    7  O2  UNL     1      21.469   4.453  50.955  1.00  0.00    -0.318 OA
HETATM    8  C8  UNL     1      22.877   4.440  51.072  1.00  0.00     0.306 A 
HETATM    9  N1  UNL     1      23.323   4.551  52.429  1.00  0.00    -0.136 NA
HETATM   10  N2  UNL     1      24.080   3.697  52.932  1.00  0.00    -0.064 NA
HETATM   11  N3  UNL     1      24.592   2.573  52.328  1.00  0.00    -0.227 N 
HETATM   12  C15 UNL     1      24.260   2.296  50.978  1.00  0.00     0.128 A 
HETATM   13  C16 UNL     1      23.457   3.216  50.473  1.00  0.00    -0.010 A 
HETATM   14  C17 UNL     1      23.148   2.867  49.059  1.00  0.00     0.045 C 
HETATM   15  C18 UNL     1      21.951   1.989  48.921  1.00  0.00     0.046 C 
ENDROOT
BRANCH  11  16
HETATM   16  C9  UNL     1      25.442   1.715  53.068  1.00  0.00     0.061 A 
HETATM   17  C10 UNL     1      24.937   0.517  53.549  1.00  0.00     0.032 A 
HETATM   18  C11 UNL     1      25.705  -0.367  54.277  1.00  0.00     0.004 A 
HETATM   19  C12 UNL     1      27.023  -0.072  54.545  1.00  0.00     0.024 A 
HETATM   20  C13 UNL     1      27.572   1.124  54.079  1.00  0.00     0.036 A 
HETATM   21 CL1  UNL     1      29.249   1.496  54.422  1.00  0.00    -0.084 Cl
HETATM   22  C14 UNL     1      26.764   1.966  53.362  1.00  0.00     0.055 A 
ENDBRANCH  11  16
BRANCH   1  23
HETATM   23  O1  UNL     1      17.117   2.691  51.686  1.00  0.00    -0.356 OA
HETATM   24  C1  UNL     1      16.403   3.893  51.856  1.00  0.00     0.210 C 
ENDBRANCH   1  23
TORSDOF 2
ENDMDL
MODEL 9
REMARK VINA RESULT:      -7.2      4.797      6.811
REMARK  2 active torsions:
REMARK  status: ('A' for Active; 'I' for Inactive)
REMARK    1  A    between atoms: O1_2  and  C2_3 
REMARK    2  A    between atoms: N3_13  and  C9_14 
ROOT
HETATM    1  C2  UNL     1      22.812   2.035  52.184  1.00  0.00     0.070 A 
HETATM    2  C3  UNL     1      22.865   1.378  50.957  1.00  0.00     0.037 A 
HETATM    3  C4  UNL     1      22.848   2.065  49.763  1.00  0.00     0.012 A 
HETATM    4  C5  UNL     1      22.778   3.463  49.786  1.00  0.00    -0.024 A 
HETATM    5  C6  UNL     1      22.725   4.121  50.983  1.00  0.00     0.081 A 
HETATM    6  C7  UNL     1      22.743   3.403  52.166  1.00  0.00     0.074 A 
HETATM    7  O2  UNL     1      22.654   5.469  51.208  1.00  0.00    -0.318 OA
HETATM    8  C8  UNL     1      23.202   6.544  50.473  1.00  0.00     0.306 A 
HETATM    9  N1  UNL     1      24.280   7.194  51.159  1.00  0.00    -0.136 NA
HETATM   10  N2  UNL     1      25.401   7.316  50.629  1.00  0.00    -0.064 NA
HETATM   11  N3  UNL     1      25.789   6.885  49.382  1.00  0.00    -0.227 N 
HETATM   12  C15 UNL     1      24.853   6.218  48.554  1.00  0.00     0.128 A 
HETATM   13  C16 UNL     1      23.674   6.103  49.141  1.00  0.00    -0.010 A 
HETATM   14  C17 UNL     1      22.741   5.396  48.222  1.00  0.00     0.045 C 
HETATM   15  C18 UNL     1      22.776   3.913  48.379  1.00  0.00     0.046 C 
ENDROOT
BRANCH  11  16
HETATM   16  C9  UNL     1      27.118   7.118  48.951  1.00  0.00     0.061 A 
HETATM   17  C10 UNL     1      27.815   6.092  48.331  1.00  0.00     0.032 A 
HETATM   18  C11 UNL     1      29.111   6.246  47.886  1.00  0.00     0.004 A 
HETATM   19  C12 UNL     1      29.755   7.451  48.050  1.00  0.00     0.024 A 
HETATM   20  C13 UNL     1      29.091   8.511  48.670  1.00  0.00     0.036 A 
HETATM   21 CL1  UNL     1      29.913  10.043  48.877  1.00  0.00    -0.084 Cl
HETATM   22  C14 UNL     1      27.804   8.304  49.093  1.00  0.00     0.055 A 
ENDBRANCH  11  16
BRANCH   1  23
HETATM   23  O1  UNL     1      22.837   1.203  53.294  1.00  0.00    -0.356 OA
HETATM   24  C1  UNL     1      23.716   0.105  53.361  1.00  0.00     0.210 C 
ENDBRANCH   1  23
TORSDOF 2
ENDMDL
