MODEL 1
REMARK VINA RESULT:      -7.6      0.000      0.000
REMARK  0 active torsions:
REMARK  status: ('A' for Active; 'I' for Inactive)
ROOT
HETATM    1  C1  UNL     1      25.713   0.958  52.136  1.00  0.00    -0.006 C 
HETATM    2  C2  UNL     1      24.414   0.820  52.250  1.00  0.00     0.087 C 
HETATM    3  N1  UNL     1      23.315   1.586  51.790  1.00  0.00    -0.355 N 
HETATM    4  C3  UNL     1      23.301   2.770  52.617  1.00  0.00     0.158 C 
HETATM    5  C4  UNL     1      22.138   3.686  52.261  1.00  0.00     0.295 C 
HETATM    6  N2  UNL     1      22.088   3.971  50.867  1.00  0.00     0.129 N 
HETATM    7  C5  UNL     1      23.165   4.742  50.327  1.00  0.00     0.450 C 
HETATM    8  N3  UNL     1      23.572   5.855  51.089  1.00  0.00    -0.230 NA
HETATM    9  C6  UNL     1      24.593   6.630  51.097  1.00  0.00     0.212 C 
HETATM   10  N4  UNL     1      25.770   6.606  50.246  1.00  0.00    -0.320 N 
HETATM   11  S1  UNL     1      26.328   5.189  49.296  1.00  0.00     0.004 SA
HETATM   12  C7  UNL     1      25.683   3.740  50.174  1.00  0.00     0.088 C 
HETATM   13  C8  UNL     1      26.442   2.886  50.817  1.00  0.00     0.015 C 
HETATM   14  C9  UNL     1      26.858   1.703  51.640  1.00  0.00     0.058 C 
HETATM   15  N5  UNL     1      24.244   3.806  49.945  1.00  0.00    -0.323 N 
HETATM   16  C10 UNL     1      23.835   2.680  49.129  1.00  0.00     0.168 C 
HETATM   17  C11 UNL     1      22.562   2.108  49.590  1.00  0.00    -0.013 A 
HETATM   18  C12 UNL     1      21.467   2.045  48.750  1.00  0.00     0.011 A 
HETATM   19  C13 UNL     1      20.221   1.527  49.032  1.00  0.00     0.001 A 
HETATM   20  C14 UNL     1      20.033   1.006  50.292  1.00  0.00     0.002 A 
HETATM   21  C15 UNL     1      21.079   1.031  51.186  1.00  0.00     0.030 A 
HETATM   22  C16 UNL     1      22.285   1.570  50.816  1.00  0.00     0.042 A 
HETATM   23  H7  UNL     1      21.182   4.440  50.642  1.00  0.00     0.321 HD
HETATM   24  H10 UNL     1      26.257   7.529  50.257  1.00  0.00     0.175 HD
ENDROOT
TORSDOF 0
ENDMDL
MODEL 2
REMARK VINA RESULT:      -7.5      1.581      2.077
REMARK  0 active torsions:
REMARK  status: ('A' for Active; 'I' for Inactive)
ROOT
HETATM    1  C1  UNL     1      26.606   3.221  50.350  1.00  0.00    -0.006 C 
HETATM    2  C2  UNL     1      25.790   2.513  51.093  1.00  0.00     0.087 C 
HETATM    3  N1  UNL     1      24.393   2.565  51.317  1.00  0.00    -0.355 N 
HETATM    4  C3  UNL     1      24.178   3.738  52.129  1.00  0.00     0.158 C 
HETATM    5  C4  UNL     1      22.707   3.910  52.486  1.00  0.00     0.295 C 
HETATM    6  N2  UNL     1      21.868   3.858  51.337  1.00  0.00     0.129 N 
HETATM    7  C5  UNL     1      22.003   4.922  50.391  1.00  0.00     0.450 C 
HETATM    8  N3  UNL     1      22.097   6.220  50.930  1.00  0.00    -0.230 NA
HETATM    9  C6  UNL     1      22.449   7.370  50.483  1.00  0.00     0.212 C 
HETATM   10  N4  UNL     1      22.910   7.735  49.155  1.00  0.00    -0.320 N 
HETATM   11  S1  UNL     1      23.577   6.594  47.942  1.00  0.00     0.004 SA
HETATM   12  C7  UNL     1      24.255   5.215  48.905  1.00  0.00     0.088 C 
HETATM   13  C8  UNL     1      25.538   4.964  49.004  1.00  0.00     0.015 C 
HETATM   14  C9  UNL     1      26.824   4.304  49.405  1.00  0.00     0.058 C 
HETATM   15  N5  UNL     1      23.073   4.550  49.441  1.00  0.00    -0.323 N 
HETATM   16  C10 UNL     1      22.959   3.229  48.856  1.00  0.00     0.168 C 
HETATM   17  C11 UNL     1      22.544   2.228  49.850  1.00  0.00    -0.013 A 
HETATM   18  C12 UNL     1      21.387   1.494  49.678  1.00  0.00     0.011 A 
HETATM   19  C13 UNL     1      20.881   0.516  50.508  1.00  0.00     0.001 A 
HETATM   20  C14 UNL     1      21.603   0.227  51.643  1.00  0.00     0.002 A 
HETATM   21  C15 UNL     1      22.769   0.917  51.883  1.00  0.00     0.030 A 
HETATM   22  C16 UNL     1      23.195   1.875  51.000  1.00  0.00     0.042 A 
HETATM   23  H7  UNL     1      20.871   3.791  51.640  1.00  0.00     0.321 HD
HETATM   24  H10 UNL     1      22.802   8.761  48.993  1.00  0.00     0.175 HD
ENDROOT
TORSDOF 0
ENDMDL
MODEL 3
REMARK VINA RESULT:      -7.2      2.921      5.195
REMARK  0 active torsions:
REMARK  status: ('A' for Active; 'I' for Inactive)
ROOT
HETATM    1  C1  UNL     1      22.648   2.908  48.033  1.00  0.00    -0.006 C 
HETATM    2  C2  UNL     1      23.292   2.781  49.168  1.00  0.00     0.087 C 
HETATM    3  N1  UNL     1      22.873   2.514  50.495  1.00  0.00    -0.355 N 
HETATM    4  C3  UNL     1      22.237   3.729  50.947  1.00  0.00     0.158 C 
HETATM    5  C4  UNL     1      21.759   3.608  52.387  1.00  0.00     0.295 C 
HETATM    6  N2  UNL     1      20.964   2.444  52.592  1.00  0.00     0.129 N 
HETATM    7  C5  UNL     1      19.700   2.403  51.923  1.00  0.00     0.450 C 
HETATM    8  N3  UNL     1      18.939   3.587  51.963  1.00  0.00    -0.230 NA
HETATM    9  C6  UNL     1      17.919   4.038  51.330  1.00  0.00     0.212 C 
HETATM   10  N4  UNL     1      17.150   3.414  50.268  1.00  0.00    -0.320 N 
HETATM   11  S1  UNL     1      17.727   2.070  49.228  1.00  0.00     0.004 SA
HETATM   12  C7  UNL     1      19.534   2.211  49.221  1.00  0.00     0.088 C 
HETATM   13  C8  UNL     1      20.228   2.564  48.166  1.00  0.00     0.015 C 
HETATM   14  C9  UNL     1      21.398   2.905  47.291  1.00  0.00     0.058 C 
HETATM   15  N5  UNL     1      19.919   1.833  50.577  1.00  0.00    -0.323 N 
HETATM   16  C10 UNL     1      20.668   0.594  50.535  1.00  0.00     0.168 C 
HETATM   17  C11 UNL     1      21.808   0.616  51.465  1.00  0.00    -0.013 A 
HETATM   18  C12 UNL     1      21.919  -0.321  52.473  1.00  0.00     0.011 A 
HETATM   19  C13 UNL     1      22.929  -0.438  53.404  1.00  0.00     0.001 A 
HETATM   20  C14 UNL     1      23.953   0.478  53.330  1.00  0.00     0.002 A 
HETATM   21  C15 UNL     1      23.913   1.443  52.350  1.00  0.00     0.030 A 
HETATM   22  C16 UNL     1      22.865   1.483  51.467  1.00  0.00     0.042 A 
HETATM   23  H7  UNL     1      20.817   2.301  53.616  1.00  0.00     0.321 HD
HETATM   24  H10 UNL     1      16.207   3.853  50.184  1.00  0.00     0.175 HD
ENDROOT
TORSDOF 0
ENDMDL
MODEL 4
REMARK VINA RESULT:      -7.1      6.964      9.532
REMARK  0 active torsions:
REMARK  status: ('A' for Active; 'I' for Inactive)
ROOT
HETATM    1  C1  UNL     1      32.016   8.081  44.938  1.00  0.00    -0.006 C 
HETATM    2  C2  UNL     1      31.663   7.155  45.797  1.00  0.00     0.087 C 
HETATM    3  N1  UNL     1      30.886   7.177  46.980  1.00  0.00    -0.355 N 
HETATM    4  C3  UNL     1      31.710   7.834  47.967  1.00  0.00     0.158 C 
HETATM    5  C4  UNL     1      31.014   7.903  49.320  1.00  0.00     0.295 C 
HETATM    6  N2  UNL     1      29.705   8.454  49.222  1.00  0.00     0.129 N 
HETATM    7  C5  UNL     1      29.611   9.829  48.842  1.00  0.00     0.450 C 
HETATM    8  N3  UNL     1      30.518  10.707  49.468  1.00  0.00    -0.230 NA
HETATM    9  C6  UNL     1      30.917  11.908  49.258  1.00  0.00     0.212 C 
HETATM   10  N4  UNL     1      30.530  12.832  48.207  1.00  0.00    -0.320 N 
HETATM   11  S1  UNL     1      29.769  12.366  46.650  1.00  0.00     0.004 SA
HETATM   12  C7  UNL     1      30.298  10.658  46.351  1.00  0.00     0.088 C 
HETATM   13  C8  UNL     1      31.125  10.314  45.393  1.00  0.00     0.015 C 
HETATM   14  C9  UNL     1      31.985   9.468  44.503  1.00  0.00     0.058 C 
HETATM   15  N5  UNL     1      29.585   9.890  47.365  1.00  0.00    -0.323 N 
HETATM   16  C10 UNL     1      28.627   9.016  46.720  1.00  0.00     0.168 C 
HETATM   17  C11 UNL     1      28.588   7.689  47.353  1.00  0.00    -0.013 A 
HETATM   18  C12 UNL     1      27.417   7.196  47.895  1.00  0.00     0.011 A 
HETATM   19  C13 UNL     1      27.223   5.974  48.503  1.00  0.00     0.001 A 
HETATM   20  C14 UNL     1      28.313   5.137  48.582  1.00  0.00     0.002 A 
HETATM   21  C15 UNL     1      29.515   5.559  48.063  1.00  0.00     0.030 A 
HETATM   22  C16 UNL     1      29.614   6.794  47.477  1.00  0.00     0.042 A 
HETATM   23  H7  UNL     1      29.201   8.310  50.125  1.00  0.00     0.321 HD
HETATM   24  H10 UNL     1      30.753  13.816  48.476  1.00  0.00     0.175 HD
ENDROOT
TORSDOF 0
ENDMDL
MODEL 5
REMARK VINA RESULT:      -7.1      8.816     10.829
REMARK  0 active torsions:
REMARK  status: ('A' for Active; 'I' for Inactive)
ROOT
HETATM    1  C1  UNL     1      31.902   7.631  44.226  1.00  0.00    -0.006 C 
HETATM    2  C2  UNL     1      32.961   6.961  44.610  1.00  0.00     0.087 C 
HETATM    3  N1  UNL     1      33.360   6.409  45.851  1.00  0.00    -0.355 N 
HETATM    4  C3  UNL     1      33.728   7.538  46.672  1.00  0.00     0.158 C 
HETATM    5  C4  UNL     1      34.219   7.095  48.044  1.00  0.00     0.295 C 
HETATM    6  N2  UNL     1      33.303   6.210  48.681  1.00  0.00     0.129 N 
HETATM    7  C5  UNL     1      32.033   6.755  49.052  1.00  0.00     0.450 C 
HETATM    8  N3  UNL     1      32.058   8.027  49.655  1.00  0.00    -0.230 NA
HETATM    9  C6  UNL     1      31.186   8.933  49.909  1.00  0.00     0.212 C 
HETATM   10  N4  UNL     1      29.761   8.939  49.627  1.00  0.00    -0.320 N 
HETATM   11  S1  UNL     1      28.944   7.902  48.412  1.00  0.00     0.004 SA
HETATM   12  C7  UNL     1      30.218   7.512  47.182  1.00  0.00     0.088 C 
HETATM   13  C8  UNL     1      30.204   7.974  45.955  1.00  0.00     0.015 C 
HETATM   14  C9  UNL     1      30.614   8.231  44.535  1.00  0.00     0.058 C 
HETATM   15  N5  UNL     1      31.126   6.619  47.892  1.00  0.00    -0.323 N 
HETATM   16  C10 UNL     1      31.069   5.301  47.293  1.00  0.00     0.168 C 
HETATM   17  C11 UNL     1      32.403   4.689  47.196  1.00  0.00    -0.013 A 
HETATM   18  C12 UNL     1      32.678   3.484  47.814  1.00  0.00     0.011 A 
HETATM   19  C13 UNL     1      33.866   2.785  47.799  1.00  0.00     0.001 A 
HETATM   20  C14 UNL     1      34.906   3.339  47.090  1.00  0.00     0.002 A 
HETATM   21  C15 UNL     1      34.709   4.539  46.447  1.00  0.00     0.030 A 
HETATM   22  C16 UNL     1      33.491   5.164  46.518  1.00  0.00     0.042 A 
HETATM   23  H7  UNL     1      33.756   5.789  49.522  1.00  0.00     0.321 HD
HETATM   24  H10 UNL     1      29.266   9.633  50.230  1.00  0.00     0.175 HD
ENDROOT
TORSDOF 0
ENDMDL
MODEL 6
REMARK VINA RESULT:      -7.0      7.566      9.808
REMARK  0 active torsions:
REMARK  status: ('A' for Active; 'I' for Inactive)
ROOT
HETATM    1  C1  UNL     1      32.602   3.616  45.960  1.00  0.00    -0.006 C 
HETATM    2  C2  UNL     1      31.631   3.764  46.828  1.00  0.00     0.087 C 
HETATM    3  N1  UNL     1      31.136   4.880  47.547  1.00  0.00    -0.355 N 
HETATM    4  C3  UNL     1      32.131   5.156  48.556  1.00  0.00     0.158 C 
HETATM    5  C4  UNL     1      31.720   6.323  49.443  1.00  0.00     0.295 C 
HETATM    6  N2  UNL     1      31.353   7.470  48.683  1.00  0.00     0.129 N 
HETATM    7  C5  UNL     1      32.393   8.104  47.932  1.00  0.00     0.450 C 
HETATM    8  N3  UNL     1      33.623   8.270  48.597  1.00  0.00    -0.230 NA
HETATM    9  C6  UNL     1      34.822   8.554  48.239  1.00  0.00     0.212 C 
HETATM   10  N4  UNL     1      35.344   8.817  46.910  1.00  0.00    -0.320 N 
HETATM   11  S1  UNL     1      34.555   8.326  45.375  1.00  0.00     0.004 SA
HETATM   12  C7  UNL     1      33.541   6.884  45.797  1.00  0.00     0.088 C 
HETATM   13  C8  UNL     1      33.805   5.668  45.384  1.00  0.00     0.015 C 
HETATM   14  C9  UNL     1      33.691   4.186  45.183  1.00  0.00     0.058 C 
HETATM   15  N5  UNL     1      32.468   7.440  46.613  1.00  0.00    -0.323 N 
HETATM   16  C10 UNL     1      31.208   7.302  45.910  1.00  0.00     0.168 C 
HETATM   17  C11 UNL     1      30.119   6.907  46.816  1.00  0.00    -0.013 A 
HETATM   18  C12 UNL     1      28.996   7.698  46.961  1.00  0.00     0.011 A 
HETATM   19  C13 UNL     1      27.894   7.454  47.754  1.00  0.00     0.001 A 
HETATM   20  C14 UNL     1      27.901   6.291  48.489  1.00  0.00     0.002 A 
HETATM   21  C15 UNL     1      28.986   5.451  48.397  1.00  0.00     0.030 A 
HETATM   22  C16 UNL     1      30.040   5.777  47.581  1.00  0.00     0.042 A 
HETATM   23  H7  UNL     1      30.904   8.172  49.312  1.00  0.00     0.321 HD
HETATM   24  H10 UNL     1      36.249   9.334  46.961  1.00  0.00     0.175 HD
ENDROOT
TORSDOF 0
ENDMDL
MODEL 7
REMARK VINA RESULT:      -6.9      8.155     10.956
REMARK  0 active torsions:
REMARK  status: ('A' for Active; 'I' for Inactive)
ROOT
HETATM    1  C1  UNL     1      34.486   9.316  47.328  1.00  0.00    -0.006 C 
HETATM    2  C2  UNL     1      34.803   8.166  47.872  1.00  0.00     0.087 C 
HETATM    3  N1  UNL     1      34.107   6.942  48.024  1.00  0.00    -0.355 N 
HETATM    4  C3  UNL     1      33.111   7.191  49.039  1.00  0.00     0.158 C 
HETATM    5  C4  UNL     1      32.296   5.942  49.341  1.00  0.00     0.295 C 
HETATM    6  N2  UNL     1      31.762   5.351  48.160  1.00  0.00     0.129 N 
HETATM    7  C5  UNL     1      30.776   6.106  47.451  1.00  0.00     0.450 C 
HETATM    8  N3  UNL     1      29.785   6.722  48.238  1.00  0.00    -0.230 NA
HETATM    9  C6  UNL     1      28.903   7.634  48.046  1.00  0.00     0.212 C 
HETATM   10  N4  UNL     1      28.621   8.397  46.843  1.00  0.00    -0.320 N 
HETATM   11  S1  UNL     1      29.754   8.614  45.468  1.00  0.00     0.004 SA
HETATM   12  C7  UNL     1      31.411   8.416  46.177  1.00  0.00     0.088 C 
HETATM   13  C8  UNL     1      32.269   9.401  46.294  1.00  0.00     0.015 C 
HETATM   14  C9  UNL     1      33.524  10.152  46.627  1.00  0.00     0.058 C 
HETATM   15  N5  UNL     1      31.482   6.998  46.506  1.00  0.00    -0.323 N 
HETATM   16  C10 UNL     1      32.477   6.359  45.668  1.00  0.00     0.168 C 
HETATM   17  C11 UNL     1      33.279   5.384  46.421  1.00  0.00    -0.013 A 
HETATM   18  C12 UNL     1      33.319   4.056  46.045  1.00  0.00     0.011 A 
HETATM   19  C13 UNL     1      34.032   3.036  46.638  1.00  0.00     0.001 A 
HETATM   20  C14 UNL     1      34.799   3.366  47.731  1.00  0.00     0.002 A 
HETATM   21  C15 UNL     1      34.812   4.671  48.166  1.00  0.00     0.030 A 
HETATM   22  C16 UNL     1      34.068   5.620  47.513  1.00  0.00     0.042 A 
HETATM   23  H7  UNL     1      31.376   4.408  48.389  1.00  0.00     0.321 HD
HETATM   24  H10 UNL     1      27.663   8.810  46.880  1.00  0.00     0.175 HD
ENDROOT
TORSDOF 0
ENDMDL
MODEL 8
REMARK VINA RESULT:      -6.9      8.778     11.750
REMARK  0 active torsions:
REMARK  status: ('A' for Active; 'I' for Inactive)
ROOT
HETATM    1  C1  UNL     1      29.867   7.186  48.318  1.00  0.00    -0.006 C 
HETATM    2  C2  UNL     1      30.655   8.212  48.108  1.00  0.00     0.087 C 
HETATM    3  N1  UNL     1      31.980   8.333  47.621  1.00  0.00    -0.355 N 
HETATM    4  C3  UNL     1      32.825   7.852  48.687  1.00  0.00     0.158 C 
HETATM    5  C4  UNL     1      34.300   7.953  48.321  1.00  0.00     0.295 C 
HETATM    6  N2  UNL     1      34.582   7.350  47.063  1.00  0.00     0.129 N 
HETATM    7  C5  UNL     1      34.418   5.931  46.977  1.00  0.00     0.450 C 
HETATM    8  N3  UNL     1      34.925   5.183  48.057  1.00  0.00    -0.230 NA
HETATM    9  C6  UNL     1      34.786   3.979  48.478  1.00  0.00     0.212 C 
HETATM   10  N4  UNL     1      33.985   2.902  47.925  1.00  0.00    -0.320 N 
HETATM   11  S1  UNL     1      32.601   3.114  46.803  1.00  0.00     0.004 SA
HETATM   12  C7  UNL     1      31.966   4.779  47.137  1.00  0.00     0.088 C 
HETATM   13  C8  UNL     1      30.805   5.011  47.702  1.00  0.00     0.015 C 
HETATM   14  C9  UNL     1      29.636   5.751  48.282  1.00  0.00     0.058 C 
HETATM   15  N5  UNL     1      33.008   5.660  46.622  1.00  0.00    -0.323 N 
HETATM   16  C10 UNL     1      32.495   6.400  45.488  1.00  0.00     0.168 C 
HETATM   17  C11 UNL     1      32.940   7.801  45.505  1.00  0.00    -0.013 A 
HETATM   18  C12 UNL     1      33.671   8.326  44.457  1.00  0.00     0.011 A 
HETATM   19  C13 UNL     1      34.141   9.615  44.324  1.00  0.00     0.001 A 
HETATM   20  C14 UNL     1      33.855  10.491  45.346  1.00  0.00     0.002 A 
HETATM   21  C15 UNL     1      33.130  10.042  46.425  1.00  0.00     0.030 A 
HETATM   22  C16 UNL     1      32.704   8.739  46.472  1.00  0.00     0.042 A 
HETATM   23  H7  UNL     1      35.551   7.603  46.767  1.00  0.00     0.321 HD
HETATM   24  H10 UNL     1      34.322   1.975  48.267  1.00  0.00     0.175 HD
ENDROOT
TORSDOF 0
ENDMDL
MODEL 9
REMARK VINA RESULT:      -6.9      2.117      3.858
REMARK  0 active torsions:
REMARK  status: ('A' for Active; 'I' for Inactive)
ROOT
HETATM    1  C1  UNL     1      21.545   2.246  47.985  1.00  0.00    -0.006 C 
HETATM    2  C2  UNL     1      21.912   1.359  48.879  1.00  0.00     0.087 C 
HETATM    3  N1  UNL     1      22.225   1.446  50.257  1.00  0.00    -0.355 N 
HETATM    4  C3  UNL     1      23.513   2.095  50.317  1.00  0.00     0.158 C 
HETATM    5  C4  UNL     1      24.006   2.229  51.751  1.00  0.00     0.295 C 
HETATM    6  N2  UNL     1      23.032   2.830  52.598  1.00  0.00     0.129 N 
HETATM    7  C5  UNL     1      22.705   4.198  52.335  1.00  0.00     0.450 C 
HETATM    8  N3  UNL     1      23.792   5.055  52.075  1.00  0.00    -0.230 NA
HETATM    9  C6  UNL     1      23.928   6.232  51.583  1.00  0.00     0.212 C 
HETATM   10  N4  UNL     1      22.910   7.142  51.089  1.00  0.00    -0.320 N 
HETATM   11  S1  UNL     1      21.257   6.665  50.580  1.00  0.00     0.004 SA
HETATM   12  C7  UNL     1      21.394   4.929  50.075  1.00  0.00     0.088 C 
HETATM   13  C8  UNL     1      21.274   4.526  48.833  1.00  0.00     0.015 C 
HETATM   14  C9  UNL     1      21.222   3.620  47.638  1.00  0.00     0.058 C 
HETATM   15  N5  UNL     1      21.623   4.219  51.328  1.00  0.00    -0.323 N 
HETATM   16  C10 UNL     1      20.486   3.367  51.612  1.00  0.00     0.168 C 
HETATM   17  C11 UNL     1      20.904   2.061  52.143  1.00  0.00    -0.013 A 
HETATM   18  C12 UNL     1      20.479   1.631  53.385  1.00  0.00     0.011 A 
HETATM   19  C13 UNL     1      20.772   0.435  54.005  1.00  0.00     0.001 A 
HETATM   20  C14 UNL     1      21.578  -0.443  53.317  1.00  0.00     0.002 A 
HETATM   21  C15 UNL     1      22.040  -0.085  52.072  1.00  0.00     0.030 A 
HETATM   22  C16 UNL     1      21.698   1.129  51.534  1.00  0.00     0.042 A 
HETATM   23  H7  UNL     1      23.332   2.732  53.594  1.00  0.00     0.321 HD
HETATM   24  H10 UNL     1      23.267   8.123  51.068  1.00  0.00     0.175 HD
ENDROOT
TORSDOF 0
ENDMDL
