MODEL 1
REMARK VINA RESULT:      -7.0      0.000      0.000
REMARK  8 active torsions:
REMARK  status: ('A' for Active; 'I' for Inactive)
REMARK    1  A    between atoms: C2_2  and  C5_5 
REMARK    2  A    between atoms: C7_8  and  C8_9 
REMARK    3  A    between atoms: C8_9  and  S1_10 
REMARK    4  A    between atoms: S1_10  and  C9_11 
REMARK    5  A    between atoms: C11_14  and  C12_15 
REMARK    6  A    between atoms: C12_15  and  C13_16 
REMARK    7  A    between atoms: C12_15  and  C14_18 
REMARK    8  A    between atoms: C13_16  and  N3_17 
ROOT
HETATM    1  C9  UNL     1      22.091   4.254  51.414  1.00  0.00     0.092 A 
HETATM    2  C10 UNL     1      22.915   4.518  52.439  1.00  0.00     0.146 A 
HETATM    3  N2  UNL     1      24.144   3.852  52.576  1.00  0.00    -0.253 NA
HETATM    4  C11 UNL     1      24.362   2.992  51.629  1.00  0.00     0.112 A 
HETATM    5  S2  UNL     1      22.974   2.987  50.483  1.00  0.00     0.108 S 
HETATM    6  O1  UNL     1      23.421   3.675  49.193  1.00  0.00    -0.245 OA
ENDROOT
BRANCH   4   7
HETATM    7  C12 UNL     1      25.488   2.089  51.373  1.00  0.00     0.079 C 
BRANCH   7   8
HETATM    8  C13 UNL     1      26.691   2.904  51.007  1.00  0.00     0.278 C 
BRANCH   8   9
HETATM    9  N3  UNL     1      26.314   4.181  50.421  1.00  0.00     0.079 N 
HETATM   10  H17 UNL     1      25.673   3.968  49.645  1.00  0.00     0.312 HD
HETATM   11  H18 UNL     1      27.198   4.652  50.136  1.00  0.00     0.312 HD
ENDBRANCH   8   9
ENDBRANCH   7   8
BRANCH   7  12
HETATM   12  C14 UNL     1      25.702   1.144  52.515  1.00  0.00     0.001 C 
HETATM   13  C15 UNL     1      26.415   1.728  53.687  1.00  0.00     0.035 C 
HETATM   14  C16 UNL     1      27.019   0.597  54.503  1.00  0.00     0.270 C 
HETATM   15  N4  UNL     1      26.198  -0.597  54.476  1.00  0.00     0.083 N 
HETATM   16  C17 UNL     1      26.094  -1.160  53.144  1.00  0.00     0.270 C 
HETATM   17  H24 UNL     1      25.283  -0.360  54.887  1.00  0.00     0.315 HD
HETATM   18  C18 UNL     1      26.430  -0.099  52.088  1.00  0.00     0.035 C 
ENDBRANCH   7  12
ENDBRANCH   4   7
BRANCH   1  19
HETATM   19  S1  UNL     1      20.557   4.623  50.635  1.00  0.00    -0.111 SA
BRANCH  19  20
HETATM   20  C8  UNL     1      19.155   3.795  51.406  1.00  0.00     0.166 C 
BRANCH  20  21
HETATM   21  C7  UNL     1      19.522   2.392  51.735  1.00  0.00     0.154 A 
HETATM   22  N1  UNL     1      19.221   1.352  50.913  1.00  0.00    -0.237 NA
HETATM   23  C6  UNL     1      19.678   0.222  51.478  1.00  0.00     0.152 A 
HETATM   24  C5  UNL     1      20.269   0.604  52.671  1.00  0.00     0.080 A 
HETATM   25  O2  UNL     1      20.150   1.904  52.779  1.00  0.00    -0.297 OA
BRANCH  24  26
HETATM   26  C2  UNL     1      20.885  -0.415  53.561  1.00  0.00    -0.000 C 
HETATM   27  C1  UNL     1      22.216  -0.863  53.005  1.00  0.00     0.021 C 
HETATM   28  C3  UNL     1      19.910  -1.557  53.694  1.00  0.00     0.021 C 
HETATM   29  C4  UNL     1      21.138   0.145  54.946  1.00  0.00     0.021 C 
ENDBRANCH  24  26
ENDBRANCH  20  21
ENDBRANCH  19  20
ENDBRANCH   1  19
TORSDOF 8
ENDMDL
MODEL 2
REMARK VINA RESULT:      -6.8      2.036      5.892
REMARK  8 active torsions:
REMARK  status: ('A' for Active; 'I' for Inactive)
REMARK    1  A    between atoms: C2_2  and  C5_5 
REMARK    2  A    between atoms: C7_8  and  C8_9 
REMARK    3  A    between atoms: C8_9  and  S1_10 
REMARK    4  A    between atoms: S1_10  and  C9_11 
REMARK    5  A    between atoms: C11_14  and  C12_15 
REMARK    6  A    between atoms: C12_15  and  C13_16 
REMARK    7  A    between atoms: C12_15  and  C14_18 
REMARK    8  A    between atoms: C13_16  and  N3_17 
ROOT
HETATM    1  C9  UNL     1      23.458   3.222  50.245  1.00  0.00     0.092 A 
HETATM    2  C10 UNL     1      22.674   2.266  49.722  1.00  0.00     0.146 A 
HETATM    3  N2  UNL     1      21.475   1.885  50.346  1.00  0.00    -0.253 NA
HETATM    4  C11 UNL     1      21.242   2.546  51.438  1.00  0.00     0.112 A 
HETATM    5  S2  UNL     1      22.575   3.719  51.735  1.00  0.00     0.108 S 
HETATM    6  O1  UNL     1      22.046   5.123  51.440  1.00  0.00    -0.245 OA
ENDROOT
BRANCH   4   7
HETATM    7  C12 UNL     1      20.135   2.483  52.398  1.00  0.00     0.079 C 
BRANCH   7   8
HETATM    8  C13 UNL     1      18.868   2.880  51.705  1.00  0.00     0.278 C 
BRANCH   8   9
HETATM    9  N3  UNL     1      19.088   3.974  50.771  1.00  0.00     0.079 N 
HETATM   10  H17 UNL     1      18.846   3.614  49.838  1.00  0.00     0.312 HD
HETATM   11  H18 UNL     1      20.083   4.263  50.879  1.00  0.00     0.312 HD
ENDBRANCH   8   9
ENDBRANCH   7   8
BRANCH   7  12
HETATM   12  C14 UNL     1      20.078   1.151  53.081  1.00  0.00     0.001 C 
HETATM   13  C15 UNL     1      21.402   0.595  53.482  1.00  0.00     0.035 C 
HETATM   14  C16 UNL     1      21.266  -0.909  53.656  1.00  0.00     0.270 C 
HETATM   15  N4  UNL     1      19.961  -1.286  54.163  1.00  0.00     0.083 N 
HETATM   16  C17 UNL     1      18.897  -0.957  53.235  1.00  0.00     0.270 C 
HETATM   17  H24 UNL     1      19.842  -0.845  55.087  1.00  0.00     0.315 HD
HETATM   18  C18 UNL     1      19.364   0.123  52.249  1.00  0.00     0.035 C 
ENDBRANCH   7  12
ENDBRANCH   4   7
BRANCH   1  19
HETATM   19  S1  UNL     1      24.942   4.153  50.078  1.00  0.00    -0.111 SA
BRANCH  19  20
HETATM   20  C8  UNL     1      26.395   3.125  49.802  1.00  0.00     0.166 C 
BRANCH  20  21
HETATM   21  C7  UNL     1      26.667   2.309  51.015  1.00  0.00     0.154 A 
HETATM   22  N1  UNL     1      27.630   2.644  51.913  1.00  0.00    -0.237 NA
HETATM   23  C6  UNL     1      27.635   1.722  52.890  1.00  0.00     0.152 A 
HETATM   24  C5  UNL     1      26.644   0.812  52.561  1.00  0.00     0.080 A 
HETATM   25  O2  UNL     1      26.097   1.204  51.437  1.00  0.00    -0.297 OA
BRANCH  24  26
HETATM   26  C2  UNL     1      26.377  -0.355  53.442  1.00  0.00    -0.000 C 
HETATM   27  C1  UNL     1      27.033  -0.160  54.788  1.00  0.00     0.021 C 
HETATM   28  C3  UNL     1      26.883  -1.588  52.736  1.00  0.00     0.021 C 
HETATM   29  C4  UNL     1      24.892  -0.534  53.683  1.00  0.00     0.021 C 
ENDBRANCH  24  26
ENDBRANCH  20  21
ENDBRANCH  19  20
ENDBRANCH   1  19
TORSDOF 8
ENDMDL
MODEL 3
REMARK VINA RESULT:      -6.6      2.594      5.290
REMARK  8 active torsions:
REMARK  status: ('A' for Active; 'I' for Inactive)
REMARK    1  A    between atoms: C2_2  and  C5_5 
REMARK    2  A    between atoms: C7_8  and  C8_9 
REMARK    3  A    between atoms: C8_9  and  S1_10 
REMARK    4  A    between atoms: S1_10  and  C9_11 
REMARK    5  A    between atoms: C11_14  and  C12_15 
REMARK    6  A    between atoms: C12_15  and  C13_16 
REMARK    7  A    between atoms: C12_15  and  C14_18 
REMARK    8  A    between atoms: C13_16  and  N3_17 
ROOT
HETATM    1  C9  UNL     1      22.379   2.647  51.865  1.00  0.00     0.092 A 
HETATM    2  C10 UNL     1      23.205   3.355  52.650  1.00  0.00     0.146 A 
HETATM    3  N2  UNL     1      23.800   4.544  52.196  1.00  0.00    -0.253 NA
HETATM    4  C11 UNL     1      23.461   4.847  50.981  1.00  0.00     0.112 A 
HETATM    5  S2  UNL     1      22.337   3.598  50.335  1.00  0.00     0.108 S 
HETATM    6  O1  UNL     1      20.935   4.205  50.278  1.00  0.00    -0.245 OA
ENDROOT
BRANCH   4   7
HETATM    7  C12 UNL     1      23.832   5.972  50.118  1.00  0.00     0.079 C 
BRANCH   7   8
HETATM    8  C13 UNL     1      23.383   7.248  50.762  1.00  0.00     0.278 C 
BRANCH   8   9
HETATM    9  N3  UNL     1      22.045   7.122  51.323  1.00  0.00     0.079 N 
HETATM   10  H17 UNL     1      21.891   6.119  51.486  1.00  0.00     0.312 HD
HETATM   11  H18 UNL     1      21.392   7.555  50.636  1.00  0.00     0.312 HD
ENDBRANCH   8   9
ENDBRANCH   7   8
BRANCH   7  12
HETATM   12  C14 UNL     1      25.287   5.934  49.764  1.00  0.00     0.001 C 
HETATM   13  C15 UNL     1      25.783   7.127  49.019  1.00  0.00     0.035 C 
HETATM   14  C16 UNL     1      27.058   6.746  48.285  1.00  0.00     0.270 C 
HETATM   15  N4  UNL     1      27.845   5.776  49.021  1.00  0.00     0.083 N 
HETATM   16  C17 UNL     1      27.154   4.511  49.172  1.00  0.00     0.270 C 
HETATM   17  H24 UNL     1      28.109   6.202  49.921  1.00  0.00     0.315 HD
HETATM   18  C18 UNL     1      25.643   4.702  48.980  1.00  0.00     0.035 C 
ENDBRANCH   7  12
ENDBRANCH   4   7
BRANCH   1  19
HETATM   19  S1  UNL     1      21.359   1.220  51.723  1.00  0.00    -0.111 SA
BRANCH  19  20
HETATM   20  C8  UNL     1      21.446   0.141  53.163  1.00  0.00     0.166 C 
BRANCH  20  21
HETATM   21  C7  UNL     1      22.866  -0.184  53.459  1.00  0.00     0.154 A 
HETATM   22  N1  UNL     1      23.247  -0.787  54.616  1.00  0.00    -0.237 NA
HETATM   23  C6  UNL     1      24.580  -0.946  54.590  1.00  0.00     0.152 A 
HETATM   24  C5  UNL     1      25.004  -0.422  53.380  1.00  0.00     0.080 A 
HETATM   25  O2  UNL     1      23.948   0.019  52.743  1.00  0.00    -0.297 OA
BRANCH  24  26
HETATM   26  C2  UNL     1      26.446  -0.437  53.021  1.00  0.00    -0.000 C 
HETATM   27  C1  UNL     1      26.862  -1.815  52.565  1.00  0.00     0.021 C 
HETATM   28  C3  UNL     1      27.224   0.021  54.230  1.00  0.00     0.021 C 
HETATM   29  C4  UNL     1      26.742   0.524  51.888  1.00  0.00     0.021 C 
ENDBRANCH  24  26
ENDBRANCH  20  21
ENDBRANCH  19  20
ENDBRANCH   1  19
TORSDOF 8
ENDMDL
MODEL 4
REMARK VINA RESULT:      -6.6      3.794      7.602
REMARK  8 active torsions:
REMARK  status: ('A' for Active; 'I' for Inactive)
REMARK    1  A    between atoms: C2_2  and  C5_5 
REMARK    2  A    between atoms: C7_8  and  C8_9 
REMARK    3  A    between atoms: C8_9  and  S1_10 
REMARK    4  A    between atoms: S1_10  and  C9_11 
REMARK    5  A    between atoms: C11_14  and  C12_15 
REMARK    6  A    between atoms: C12_15  and  C13_16 
REMARK    7  A    between atoms: C12_15  and  C14_18 
REMARK    8  A    between atoms: C13_16  and  N3_17 
ROOT
HETATM    1  C9  UNL     1      24.629   3.491  51.143  1.00  0.00     0.092 A 
HETATM    2  C10 UNL     1      24.051   3.590  52.349  1.00  0.00     0.146 A 
HETATM    3  N2  UNL     1      24.326   2.662  53.367  1.00  0.00    -0.253 NA
HETATM    4  C11 UNL     1      25.168   1.745  53.001  1.00  0.00     0.112 A 
HETATM    5  S2  UNL     1      25.667   2.025  51.294  1.00  0.00     0.108 S 
HETATM    6  O1  UNL     1      27.103   2.548  51.299  1.00  0.00    -0.245 OA
ENDROOT
BRANCH   4   7
HETATM    7  C12 UNL     1      25.732   0.598  53.719  1.00  0.00     0.079 C 
BRANCH   7   8
HETATM    8  C13 UNL     1      24.994  -0.641  53.312  1.00  0.00     0.278 C 
BRANCH   8   9
HETATM    9  N3  UNL     1      23.555  -0.476  53.453  1.00  0.00     0.079 N 
HETATM   10  H17 UNL     1      23.125  -0.997  52.677  1.00  0.00     0.312 HD
HETATM   11  H18 UNL     1      23.368   0.549  53.443  1.00  0.00     0.312 HD
ENDBRANCH   8   9
ENDBRANCH   7   8
BRANCH   7  12
HETATM   12  C14 UNL     1      27.218   0.520  53.543  1.00  0.00     0.001 C 
HETATM   13  C15 UNL     1      27.720  -0.780  53.012  1.00  0.00     0.035 C 
HETATM   14  C16 UNL     1      29.189  -0.919  53.375  1.00  0.00     0.270 C 
HETATM   15  N4  UNL     1      29.877   0.357  53.377  1.00  0.00     0.083 N 
HETATM   16  C17 UNL     1      29.363   1.255  54.392  1.00  0.00     0.270 C 
HETATM   17  H24 UNL     1      29.818   0.748  52.425  1.00  0.00     0.315 HD
HETATM   18  C18 UNL     1      27.952   0.827  54.819  1.00  0.00     0.035 C 
ENDBRANCH   7  12
ENDBRANCH   4   7
BRANCH   1  19
HETATM   19  S1  UNL     1      24.781   4.180  49.531  1.00  0.00    -0.111 SA
BRANCH  19  20
HETATM   20  C8  UNL     1      25.338   5.893  49.543  1.00  0.00     0.166 C 
BRANCH  20  21
HETATM   21  C7  UNL     1      26.711   5.976  48.981  1.00  0.00     0.154 A 
HETATM   22  N1  UNL     1      27.466   4.871  48.745  1.00  0.00    -0.237 NA
HETATM   23  C6  UNL     1      28.647   5.266  48.241  1.00  0.00     0.152 A 
HETATM   24  C5  UNL     1      28.590   6.649  48.175  1.00  0.00     0.080 A 
HETATM   25  O2  UNL     1      27.419   7.024  48.626  1.00  0.00    -0.297 OA
BRANCH  24  26
HETATM   26  C2  UNL     1      29.749   7.422  47.656  1.00  0.00    -0.000 C 
HETATM   27  C1  UNL     1      29.361   8.175  46.406  1.00  0.00     0.021 C 
HETATM   28  C3  UNL     1      30.875   6.450  47.409  1.00  0.00     0.021 C 
HETATM   29  C4  UNL     1      30.229   8.441  48.669  1.00  0.00     0.021 C 
ENDBRANCH  24  26
ENDBRANCH  20  21
ENDBRANCH  19  20
ENDBRANCH   1  19
TORSDOF 8
ENDMDL
MODEL 5
REMARK VINA RESULT:      -6.6      3.689      7.951
REMARK  8 active torsions:
REMARK  status: ('A' for Active; 'I' for Inactive)
REMARK    1  A    between atoms: C2_2  and  C5_5 
REMARK    2  A    between atoms: C7_8  and  C8_9 
REMARK    3  A    between atoms: C8_9  and  S1_10 
REMARK    4  A    between atoms: S1_10  and  C9_11 
REMARK    5  A    between atoms: C11_14  and  C12_15 
REMARK    6  A    between atoms: C12_15  and  C13_16 
REMARK    7  A    between atoms: C12_15  and  C14_18 
REMARK    8  A    between atoms: C13_16  and  N3_17 
ROOT
HETATM    1  C9  UNL     1      24.441   4.319  51.282  1.00  0.00     0.092 A 
HETATM    2  C10 UNL     1      23.537   4.267  52.273  1.00  0.00     0.146 A 
HETATM    3  N2  UNL     1      23.226   3.056  52.912  1.00  0.00    -0.253 NA
HETATM    4  C11 UNL     1      23.893   2.049  52.440  1.00  0.00     0.112 A 
HETATM    5  S2  UNL     1      24.982   2.607  51.119  1.00  0.00     0.108 S 
HETATM    6  O1  UNL     1      26.417   2.588  51.647  1.00  0.00    -0.245 OA
ENDROOT
BRANCH   4   7
HETATM    7  C12 UNL     1      23.892   0.626  52.795  1.00  0.00     0.079 C 
BRANCH   7   8
HETATM    8  C13 UNL     1      25.081   0.341  53.661  1.00  0.00     0.278 C 
BRANCH   8   9
HETATM    9  N3  UNL     1      26.130  -0.346  52.921  1.00  0.00     0.079 N 
HETATM   10  H17 UNL     1      27.017   0.095  53.198  1.00  0.00     0.312 HD
HETATM   11  H18 UNL     1      25.895  -0.249  51.911  1.00  0.00     0.312 HD
ENDBRANCH   8   9
ENDBRANCH   7   8
BRANCH   7  12
HETATM   12  C14 UNL     1      22.580   0.211  53.386  1.00  0.00     0.001 C 
HETATM   13  C15 UNL     1      22.654  -0.937  54.335  1.00  0.00     0.035 C 
HETATM   14  C16 UNL     1      21.279  -1.575  54.435  1.00  0.00     0.270 C 
HETATM   15  N4  UNL     1      20.212  -0.601  54.312  1.00  0.00     0.083 N 
HETATM   16  C17 UNL     1      20.196   0.031  53.007  1.00  0.00     0.270 C 
HETATM   17  H24 UNL     1      20.310   0.073  55.086  1.00  0.00     0.315 HD
HETATM   18  C18 UNL     1      21.564  -0.113  52.327  1.00  0.00     0.035 C 
ENDBRANCH   7  12
ENDBRANCH   4   7
BRANCH   1  19
HETATM   19  S1  UNL     1      25.281   5.336  50.118  1.00  0.00    -0.111 SA
BRANCH  19  20
HETATM   20  C8  UNL     1      26.305   4.399  48.969  1.00  0.00     0.166 C 
BRANCH  20  21
HETATM   21  C7  UNL     1      27.512   5.191  48.616  1.00  0.00     0.154 A 
HETATM   22  N1  UNL     1      27.447   6.514  48.308  1.00  0.00    -0.237 NA
HETATM   23  C6  UNL     1      28.689   6.946  48.035  1.00  0.00     0.152 A 
HETATM   24  C5  UNL     1      29.517   5.845  48.186  1.00  0.00     0.080 A 
HETATM   25  O2  UNL     1      28.770   4.826  48.532  1.00  0.00    -0.297 OA
BRANCH  24  26
HETATM   26  C2  UNL     1      30.980   5.972  47.956  1.00  0.00    -0.000 C 
HETATM   27  C1  UNL     1      31.688   6.317  49.245  1.00  0.00     0.021 C 
HETATM   28  C3  UNL     1      31.188   7.022  46.894  1.00  0.00     0.021 C 
HETATM   29  C4  UNL     1      31.572   4.674  47.447  1.00  0.00     0.021 C 
ENDBRANCH  24  26
ENDBRANCH  20  21
ENDBRANCH  19  20
ENDBRANCH   1  19
TORSDOF 8
ENDMDL
MODEL 6
REMARK VINA RESULT:      -6.5      3.867      7.679
REMARK  8 active torsions:
REMARK  status: ('A' for Active; 'I' for Inactive)
REMARK    1  A    between atoms: C2_2  and  C5_5 
REMARK    2  A    between atoms: C7_8  and  C8_9 
REMARK    3  A    between atoms: C8_9  and  S1_10 
REMARK    4  A    between atoms: S1_10  and  C9_11 
REMARK    5  A    between atoms: C11_14  and  C12_15 
REMARK    6  A    between atoms: C12_15  and  C13_16 
REMARK    7  A    between atoms: C12_15  and  C14_18 
REMARK    8  A    between atoms: C13_16  and  N3_17 
ROOT
HETATM    1  C9  UNL     1      24.069   4.655  51.149  1.00  0.00     0.092 A 
HETATM    2  C10 UNL     1      23.515   4.541  52.366  1.00  0.00     0.146 A 
HETATM    3  N2  UNL     1      23.427   3.296  53.012  1.00  0.00    -0.253 NA
HETATM    4  C11 UNL     1      23.925   2.326  52.309  1.00  0.00     0.112 A 
HETATM    5  S2  UNL     1      24.548   2.965  50.746  1.00  0.00     0.108 S 
HETATM    6  O1  UNL     1      26.076   2.957  50.805  1.00  0.00    -0.245 OA
ENDROOT
BRANCH   4   7
HETATM    7  C12 UNL     1      24.046   0.890  52.579  1.00  0.00     0.079 C 
BRANCH   7   8
HETATM    8  C13 UNL     1      25.365   0.628  53.238  1.00  0.00     0.278 C 
BRANCH   8   9
HETATM    9  N3  UNL     1      25.937   1.847  53.793  1.00  0.00     0.079 N 
HETATM   10  H17 UNL     1      26.957   1.713  53.799  1.00  0.00     0.312 HD
HETATM   11  H18 UNL     1      25.511   1.975  54.734  1.00  0.00     0.312 HD
ENDBRANCH   8   9
ENDBRANCH   7   8
BRANCH   7  12
HETATM   12  C14 UNL     1      22.861   0.374  53.336  1.00  0.00     0.001 C 
HETATM   13  C15 UNL     1      23.145  -0.781  54.235  1.00  0.00     0.035 C 
HETATM   14  C16 UNL     1      21.844  -1.516  54.510  1.00  0.00     0.270 C 
HETATM   15  N4  UNL     1      20.707  -0.617  54.561  1.00  0.00     0.083 N 
HETATM   16  C17 UNL     1      20.465   0.033  53.288  1.00  0.00     0.270 C 
HETATM   17  H24 UNL     1      20.867   0.049  55.331  1.00  0.00     0.315 HD
HETATM   18  C18 UNL     1      21.730  -0.004  52.420  1.00  0.00     0.035 C 
ENDBRANCH   7  12
ENDBRANCH   4   7
BRANCH   1  19
HETATM   19  S1  UNL     1      24.500   5.741  49.833  1.00  0.00    -0.111 SA
BRANCH  19  20
HETATM   20  C8  UNL     1      25.034   7.365  50.401  1.00  0.00     0.166 C 
BRANCH  20  21
HETATM   21  C7  UNL     1      26.351   7.697  49.797  1.00  0.00     0.154 A 
HETATM   22  N1  UNL     1      26.957   8.898  49.992  1.00  0.00    -0.237 NA
HETATM   23  C6  UNL     1      28.122   8.897  49.324  1.00  0.00     0.152 A 
HETATM   24  C5  UNL     1      28.211   7.656  48.714  1.00  0.00     0.080 A 
HETATM   25  O2  UNL     1      27.134   6.979  49.025  1.00  0.00    -0.297 OA
BRANCH  24  26
HETATM   26  C2  UNL     1      29.394   7.314  47.882  1.00  0.00    -0.000 C 
HETATM   27  C1  UNL     1      29.189   7.776  46.459  1.00  0.00     0.021 C 
HETATM   28  C3  UNL     1      29.602   5.823  47.972  1.00  0.00     0.021 C 
HETATM   29  C4  UNL     1      30.646   7.990  48.402  1.00  0.00     0.021 C 
ENDBRANCH  24  26
ENDBRANCH  20  21
ENDBRANCH  19  20
ENDBRANCH   1  19
TORSDOF 8
ENDMDL
MODEL 7
REMARK VINA RESULT:      -6.5      2.306      7.064
REMARK  8 active torsions:
REMARK  status: ('A' for Active; 'I' for Inactive)
REMARK    1  A    between atoms: C2_2  and  C5_5 
REMARK    2  A    between atoms: C7_8  and  C8_9 
REMARK    3  A    between atoms: C8_9  and  S1_10 
REMARK    4  A    between atoms: S1_10  and  C9_11 
REMARK    5  A    between atoms: C11_14  and  C12_15 
REMARK    6  A    between atoms: C12_15  and  C13_16 
REMARK    7  A    between atoms: C12_15  and  C14_18 
REMARK    8  A    between atoms: C13_16  and  N3_17 
ROOT
HETATM    1  C9  UNL     1      22.064   3.225  52.090  1.00  0.00     0.092 A 
HETATM    2  C10 UNL     1      20.773   3.461  52.370  1.00  0.00     0.146 A 
HETATM    3  N2  UNL     1      19.863   2.407  52.552  1.00  0.00    -0.253 NA
HETATM    4  C11 UNL     1      20.409   1.238  52.417  1.00  0.00     0.112 A 
HETATM    5  S2  UNL     1      22.160   1.426  52.041  1.00  0.00     0.108 S 
HETATM    6  O1  UNL     1      22.957   1.033  53.285  1.00  0.00    -0.245 OA
ENDROOT
BRANCH   4   7
HETATM    7  C12 UNL     1      19.853  -0.115  52.517  1.00  0.00     0.079 C 
BRANCH   7   8
HETATM    8  C13 UNL     1      20.361  -0.757  53.772  1.00  0.00     0.278 C 
BRANCH   8   9
HETATM    9  N3  UNL     1      20.480   0.206  54.856  1.00  0.00     0.079 N 
HETATM   10  H17 UNL     1      19.635   0.101  55.432  1.00  0.00     0.312 HD
HETATM   11  H18 UNL     1      20.589   1.143  54.413  1.00  0.00     0.312 HD
ENDBRANCH   8   9
ENDBRANCH   7   8
BRANCH   7  12
HETATM   12  C14 UNL     1      18.361  -0.104  52.386  1.00  0.00     0.001 C 
HETATM   13  C15 UNL     1      17.663  -1.234  53.065  1.00  0.00     0.035 C 
HETATM   14  C16 UNL     1      16.290  -1.405  52.437  1.00  0.00     0.270 C 
HETATM   15  N4  UNL     1      15.718  -0.141  52.016  1.00  0.00     0.083 N 
HETATM   16  C17 UNL     1      16.493   0.487  50.964  1.00  0.00     0.270 C 
HETATM   17  H24 UNL     1      15.616   0.453  52.852  1.00  0.00     0.315 HD
HETATM   18  C18 UNL     1      17.923  -0.070  50.948  1.00  0.00     0.035 C 
ENDBRANCH   7  12
ENDBRANCH   4   7
BRANCH   1  19
HETATM   19  S1  UNL     1      23.643   3.927  51.759  1.00  0.00    -0.111 SA
BRANCH  19  20
HETATM   20  C8  UNL     1      24.685   2.874  50.733  1.00  0.00     0.166 C 
BRANCH  20  21
HETATM   21  C7  UNL     1      25.795   2.321  51.552  1.00  0.00     0.154 A 
HETATM   22  N1  UNL     1      27.057   2.824  51.498  1.00  0.00    -0.237 NA
HETATM   23  C6  UNL     1      27.829   2.121  52.343  1.00  0.00     0.152 A 
HETATM   24  C5  UNL     1      26.999   1.171  52.917  1.00  0.00     0.080 A 
HETATM   25  O2  UNL     1      25.799   1.331  52.415  1.00  0.00    -0.297 OA
BRANCH  24  26
HETATM   26  C2  UNL     1      27.538   0.211  53.916  1.00  0.00    -0.000 C 
HETATM   27  C1  UNL     1      26.503  -0.083  54.975  1.00  0.00     0.021 C 
HETATM   28  C3  UNL     1      28.793   0.812  54.498  1.00  0.00     0.021 C 
HETATM   29  C4  UNL     1      27.910  -1.106  53.268  1.00  0.00     0.021 C 
ENDBRANCH  24  26
ENDBRANCH  20  21
ENDBRANCH  19  20
ENDBRANCH   1  19
TORSDOF 8
ENDMDL
MODEL 8
REMARK VINA RESULT:      -6.4      3.838      6.028
REMARK  8 active torsions:
REMARK  status: ('A' for Active; 'I' for Inactive)
REMARK    1  A    between atoms: C2_2  and  C5_5 
REMARK    2  A    between atoms: C7_8  and  C8_9 
REMARK    3  A    between atoms: C8_9  and  S1_10 
REMARK    4  A    between atoms: S1_10  and  C9_11 
REMARK    5  A    between atoms: C11_14  and  C12_15 
REMARK    6  A    between atoms: C12_15  and  C13_16 
REMARK    7  A    between atoms: C12_15  and  C14_18 
REMARK    8  A    between atoms: C13_16  and  N3_17 
ROOT
HETATM    1  C9  UNL     1      23.874   5.470  50.809  1.00  0.00     0.092 A 
HETATM    2  C10 UNL     1      24.425   6.648  51.141  1.00  0.00     0.146 A 
HETATM    3  N2  UNL     1      25.389   7.257  50.321  1.00  0.00    -0.253 NA
HETATM    4  C11 UNL     1      25.661   6.564  49.259  1.00  0.00     0.112 A 
HETATM    5  S2  UNL     1      24.675   5.057  49.248  1.00  0.00     0.108 S 
HETATM    6  O1  UNL     1      23.587   5.210  48.185  1.00  0.00    -0.245 OA
ENDROOT
BRANCH   4   7
HETATM    7  C12 UNL     1      26.585   6.807  48.146  1.00  0.00     0.079 C 
BRANCH   7   8
HETATM    8  C13 UNL     1      26.015   7.876  47.266  1.00  0.00     0.278 C 
BRANCH   8   9
HETATM    9  N3  UNL     1      24.616   8.132  47.572  1.00  0.00     0.079 N 
HETATM   10  H17 UNL     1      24.137   8.249  46.669  1.00  0.00     0.312 HD
HETATM   11  H18 UNL     1      24.593   8.974  48.186  1.00  0.00     0.312 HD
ENDBRANCH   8   9
ENDBRANCH   7   8
BRANCH   7  12
HETATM   12  C14 UNL     1      27.973   7.082  48.639  1.00  0.00     0.001 C 
HETATM   13  C15 UNL     1      28.291   8.525  48.842  1.00  0.00     0.035 C 
HETATM   14  C16 UNL     1      29.800   8.699  48.816  1.00  0.00     0.270 C 
HETATM   15  N4  UNL     1      30.493   7.555  49.376  1.00  0.00     0.083 N 
HETATM   16  C17 UNL     1      30.280   6.350  48.599  1.00  0.00     0.270 C 
HETATM   17  H24 UNL     1      30.200   7.459  50.359  1.00  0.00     0.315 HD
HETATM   18  C18 UNL     1      29.018   6.488  47.736  1.00  0.00     0.035 C 
ENDBRANCH   7  12
ENDBRANCH   4   7
BRANCH   1  19
HETATM   19  S1  UNL     1      22.733   4.209  51.259  1.00  0.00    -0.111 SA
BRANCH  19  20
HETATM   20  C8  UNL     1      23.076   2.628  50.464  1.00  0.00     0.166 C 
BRANCH  20  21
HETATM   21  C7  UNL     1      23.789   1.736  51.415  1.00  0.00     0.154 A 
HETATM   22  N1  UNL     1      23.129   0.892  52.252  1.00  0.00    -0.237 NA
HETATM   23  C6  UNL     1      24.038   0.224  52.981  1.00  0.00     0.152 A 
HETATM   24  C5  UNL     1      25.276   0.685  52.563  1.00  0.00     0.080 A 
HETATM   25  O2  UNL     1      25.075   1.583  51.630  1.00  0.00    -0.297 OA
BRANCH  24  26
HETATM   26  C2  UNL     1      26.520   0.148  53.173  1.00  0.00    -0.000 C 
HETATM   27  C1  UNL     1      27.690   1.053  52.868  1.00  0.00     0.021 C 
HETATM   28  C3  UNL     1      26.726  -1.248  52.639  1.00  0.00     0.021 C 
HETATM   29  C4  UNL     1      26.399   0.056  54.680  1.00  0.00     0.021 C 
ENDBRANCH  24  26
ENDBRANCH  20  21
ENDBRANCH  19  20
ENDBRANCH   1  19
TORSDOF 8
ENDMDL
MODEL 9
REMARK VINA RESULT:      -6.4      2.526      5.211
REMARK  8 active torsions:
REMARK  status: ('A' for Active; 'I' for Inactive)
REMARK    1  A    between atoms: C2_2  and  C5_5 
REMARK    2  A    between atoms: C7_8  and  C8_9 
REMARK    3  A    between atoms: C8_9  and  S1_10 
REMARK    4  A    between atoms: S1_10  and  C9_11 
REMARK    5  A    between atoms: C11_14  and  C12_15 
REMARK    6  A    between atoms: C12_15  and  C13_16 
REMARK    7  A    between atoms: C12_15  and  C14_18 
REMARK    8  A    between atoms: C13_16  and  N3_17 
ROOT
HETATM    1  C9  UNL     1      21.685   1.893  51.550  1.00  0.00     0.092 A 
HETATM    2  C10 UNL     1      21.900   3.121  52.044  1.00  0.00     0.146 A 
HETATM    3  N2  UNL     1      22.412   4.151  51.238  1.00  0.00    -0.253 NA
HETATM    4  C11 UNL     1      22.638   3.773  50.018  1.00  0.00     0.112 A 
HETATM    5  S2  UNL     1      22.198   2.037  49.829  1.00  0.00     0.108 S 
HETATM    6  O1  UNL     1      20.905   1.961  49.017  1.00  0.00    -0.245 OA
ENDROOT
BRANCH   4   7
HETATM    7  C12 UNL     1      23.161   4.496  48.855  1.00  0.00     0.079 C 
BRANCH   7   8
HETATM    8  C13 UNL     1      22.481   5.827  48.763  1.00  0.00     0.278 C 
BRANCH   8   9
HETATM    9  N3  UNL     1      21.032   5.691  48.791  1.00  0.00     0.079 N 
HETATM   10  H17 UNL     1      20.674   6.498  49.319  1.00  0.00     0.312 HD
HETATM   11  H18 UNL     1      20.827   4.765  49.223  1.00  0.00     0.312 HD
ENDBRANCH   8   9
ENDBRANCH   7   8
BRANCH   7  12
HETATM   12  C14 UNL     1      24.657   4.564  48.881  1.00  0.00     0.001 C 
HETATM   13  C15 UNL     1      25.327   3.401  49.532  1.00  0.00     0.035 C 
HETATM   14  C16 UNL     1      26.724   3.821  49.959  1.00  0.00     0.270 C 
HETATM   15  N4  UNL     1      27.313   4.779  49.044  1.00  0.00     0.083 N 
HETATM   16  C17 UNL     1      26.580   6.030  49.014  1.00  0.00     0.270 C 
HETATM   17  H24 UNL     1      27.383   4.329  48.119  1.00  0.00     0.315 HD
HETATM   18  C18 UNL     1      25.151   5.824  49.535  1.00  0.00     0.035 C 
ENDBRANCH   7  12
ENDBRANCH   4   7
BRANCH   1  19
HETATM   19  S1  UNL     1      21.130   0.257  51.884  1.00  0.00    -0.111 SA
BRANCH  19  20
HETATM   20  C8  UNL     1      21.443  -0.265  53.580  1.00  0.00     0.166 C 
BRANCH  20  21
HETATM   21  C7  UNL     1      22.903  -0.461  53.781  1.00  0.00     0.154 A 
HETATM   22  N1  UNL     1      23.414  -0.976  54.930  1.00  0.00    -0.237 NA
HETATM   23  C6  UNL     1      24.751  -1.029  54.811  1.00  0.00     0.152 A 
HETATM   24  C5  UNL     1      25.042  -0.529  53.552  1.00  0.00     0.080 A 
HETATM   25  O2  UNL     1      23.910  -0.205  52.978  1.00  0.00    -0.297 OA
BRANCH  24  26
HETATM   26  C2  UNL     1      26.451  -0.445  53.087  1.00  0.00    -0.000 C 
HETATM   27  C1  UNL     1      26.925  -1.791  52.596  1.00  0.00     0.021 C 
HETATM   28  C3  UNL     1      27.283   0.067  54.237  1.00  0.00     0.021 C 
HETATM   29  C4  UNL     1      26.594   0.533  51.939  1.00  0.00     0.021 C 
ENDBRANCH  24  26
ENDBRANCH  20  21
ENDBRANCH  19  20
ENDBRANCH   1  19
TORSDOF 8
ENDMDL
