MODEL 1
REMARK VINA RESULT:      -6.7      0.000      0.000
REMARK  8 active torsions:
REMARK  status: ('A' for Active; 'I' for Inactive)
REMARK    1  A    between atoms: O1_2  and  C2_3 
REMARK    2  A    between atoms: C3_4  and  C5_6 
REMARK    3  A    between atoms: C6_7  and  C7_8 
REMARK    4  A    between atoms: C7_8  and  O2_9 
REMARK    5  A    between atoms: C9_13  and  N3_14 
REMARK    6  A    between atoms: N3_14  and  C10_15 
REMARK    7  A    between atoms: C13_18  and  N4_19 
REMARK       I    between atoms: N4_19  and  C14_20 
REMARK    8  A    between atoms: C14_20  and  O4_22 
ROOT
HETATM    1  C5  UNL     1      25.832   0.974  52.693  1.00  0.00     0.139 A 
HETATM    2  C6  UNL     1      26.990   1.316  53.595  1.00  0.00     0.073 A 
HETATM    3  N1  UNL     1      27.216   0.775  54.920  1.00  0.00    -0.243 NA
HETATM    4  C8  UNL     1      26.378  -0.083  55.389  1.00  0.00     0.235 A 
HETATM    5  N2  UNL     1      25.255  -0.486  54.620  1.00  0.00    -0.228 NA
HETATM    6  C9  UNL     1      25.024  -0.007  53.420  1.00  0.00     0.120 A 
ENDROOT
BRANCH   6   7
HETATM    7  N3  UNL     1      23.856  -0.559  52.832  1.00  0.00    -0.344 N 
HETATM    8  H12 UNL     1      23.997  -1.553  52.475  1.00  0.00     0.167 HD
BRANCH   7   9
HETATM    9  C10 UNL     1      22.577   0.023  52.659  1.00  0.00     0.033 A 
HETATM   10  C11 UNL     1      21.716   0.425  53.650  1.00  0.00     0.032 A 
HETATM   11  C12 UNL     1      20.474   0.982  53.438  1.00  0.00     0.032 A 
HETATM   12  C13 UNL     1      20.028   1.168  52.152  1.00  0.00     0.036 A 
HETATM   13  C16 UNL     1      20.864   0.777  51.138  1.00  0.00     0.032 A 
HETATM   14  C17 UNL     1      22.099   0.222  51.382  1.00  0.00     0.032 A 
BRANCH  12  15
HETATM   15  N4  UNL     1      18.754   1.740  51.909  1.00  0.00    -0.303 N 
HETATM   16  C14 UNL     1      18.590   3.145  51.781  1.00  0.00     0.364 C 
HETATM   17  O3  UNL     1      19.552   3.928  51.875  1.00  0.00    -0.238 OA
HETATM   18  H15 UNL     1      18.035   0.979  51.851  1.00  0.00     0.171 HD
BRANCH  16  19
HETATM   19  O4  UNL     1      17.259   3.505  51.544  1.00  0.00    -0.309 OA
HETATM   20  C15 UNL     1      16.223   2.541  51.484  1.00  0.00     0.215 C 
ENDBRANCH  16  19
ENDBRANCH  12  15
ENDBRANCH   7   9
ENDBRANCH   6   7
BRANCH   1  21
HETATM   21  C3  UNL     1      25.109   2.169  52.262  1.00  0.00    -0.045 C 
HETATM   22  C2  UNL     1      25.088   2.462  50.977  1.00  0.00     0.137 C 
HETATM   23  C4  UNL     1      24.394   3.082  53.185  1.00  0.00     0.046 C 
BRANCH  22  24
HETATM   24  O1  UNL     1      24.735   3.229  49.882  1.00  0.00    -0.368 OA
HETATM   25  C1  UNL     1      23.484   3.069  49.206  1.00  0.00     0.208 C 
ENDBRANCH  22  24
ENDBRANCH   1  21
BRANCH   2  26
HETATM   26  C7  UNL     1      27.894   2.176  53.165  1.00  0.00     0.159 C 
BRANCH  26  27
HETATM   27  O2  UNL     1      28.907   3.057  52.930  1.00  0.00    -0.371 OA
HETATM   28  H10 UNL     1      29.242   3.674  53.688  1.00  0.00     0.216 HD
ENDBRANCH  26  27
ENDBRANCH   2  26
TORSDOF 8
ENDMDL
MODEL 2
REMARK VINA RESULT:      -6.4      2.565      7.772
REMARK  8 active torsions:
REMARK  status: ('A' for Active; 'I' for Inactive)
REMARK    1  A    between atoms: O1_2  and  C2_3 
REMARK    2  A    between atoms: C3_4  and  C5_6 
REMARK    3  A    between atoms: C6_7  and  C7_8 
REMARK    4  A    between atoms: C7_8  and  O2_9 
REMARK    5  A    between atoms: C9_13  and  N3_14 
REMARK    6  A    between atoms: N3_14  and  C10_15 
REMARK    7  A    between atoms: C13_18  and  N4_19 
REMARK       I    between atoms: N4_19  and  C14_20 
REMARK    8  A    between atoms: C14_20  and  O4_22 
ROOT
HETATM    1  C5  UNL     1      19.878  -0.218  52.100  1.00  0.00     0.139 A 
HETATM    2  C6  UNL     1      18.384  -0.069  52.229  1.00  0.00     0.073 A 
HETATM    3  N1  UNL     1      17.576   0.937  51.570  1.00  0.00    -0.243 NA
HETATM    4  C8  UNL     1      18.156   1.784  50.792  1.00  0.00     0.235 A 
HETATM    5  N2  UNL     1      19.560   1.730  50.589  1.00  0.00    -0.228 NA
HETATM    6  C9  UNL     1      20.315   0.833  51.178  1.00  0.00     0.120 A 
ENDROOT
BRANCH   6   7
HETATM    7  N3  UNL     1      21.683   0.956  50.820  1.00  0.00    -0.344 N 
HETATM    8  H12 UNL     1      21.874   0.703  49.803  1.00  0.00     0.167 HD
BRANCH   7   9
HETATM    9  C10 UNL     1      22.787   1.352  51.614  1.00  0.00     0.033 A 
HETATM   10  C11 UNL     1      23.093   2.628  52.018  1.00  0.00     0.032 A 
HETATM   11  C12 UNL     1      24.183   2.971  52.787  1.00  0.00     0.032 A 
HETATM   12  C13 UNL     1      25.052   1.992  53.202  1.00  0.00     0.036 A 
HETATM   13  C16 UNL     1      24.776   0.706  52.814  1.00  0.00     0.032 A 
HETATM   14  C17 UNL     1      23.678   0.395  52.045  1.00  0.00     0.032 A 
BRANCH  12  15
HETATM   15  N4  UNL     1      26.181   2.322  53.994  1.00  0.00    -0.303 N 
HETATM   16  C14 UNL     1      27.498   2.250  53.466  1.00  0.00     0.364 C 
HETATM   17  O3  UNL     1      27.714   1.899  52.292  1.00  0.00    -0.238 OA
HETATM   18  H15 UNL     1      25.864   2.600  54.955  1.00  0.00     0.171 HD
BRANCH  16  19
HETATM   19  O4  UNL     1      28.466   2.615  54.406  1.00  0.00    -0.309 OA
HETATM   20  C15 UNL     1      29.713   1.948  54.493  1.00  0.00     0.215 C 
ENDBRANCH  16  19
ENDBRANCH  12  15
ENDBRANCH   7   9
ENDBRANCH   6   7
BRANCH   1  21
HETATM   21  C3  UNL     1      20.539  -0.206  53.404  1.00  0.00    -0.045 C 
HETATM   22  C2  UNL     1      21.112  -1.315  53.828  1.00  0.00     0.137 C 
HETATM   23  C4  UNL     1      20.606   0.982  54.287  1.00  0.00     0.046 C 
BRANCH  22  24
HETATM   24  O1  UNL     1      21.819  -2.080  54.738  1.00  0.00    -0.368 OA
HETATM   25  C1  UNL     1      22.930  -1.562  55.474  1.00  0.00     0.208 C 
ENDBRANCH  22  24
ENDBRANCH   1  21
BRANCH   2  26
HETATM   26  C7  UNL     1      17.728  -0.918  52.998  1.00  0.00     0.159 C 
BRANCH  26  27
HETATM   27  O2  UNL     1      16.944  -1.853  53.605  1.00  0.00    -0.371 OA
HETATM   28  H10 UNL     1      16.692  -1.748  54.602  1.00  0.00     0.216 HD
ENDBRANCH  26  27
ENDBRANCH   2  26
TORSDOF 8
ENDMDL
MODEL 3
REMARK VINA RESULT:      -6.4      3.172      4.453
REMARK  8 active torsions:
REMARK  status: ('A' for Active; 'I' for Inactive)
REMARK    1  A    between atoms: O1_2  and  C2_3 
REMARK    2  A    between atoms: C3_4  and  C5_6 
REMARK    3  A    between atoms: C6_7  and  C7_8 
REMARK    4  A    between atoms: C7_8  and  O2_9 
REMARK    5  A    between atoms: C9_13  and  N3_14 
REMARK    6  A    between atoms: N3_14  and  C10_15 
REMARK    7  A    between atoms: C13_18  and  N4_19 
REMARK       I    between atoms: N4_19  and  C14_20 
REMARK    8  A    between atoms: C14_20  and  O4_22 
ROOT
HETATM    1  C5  UNL     1      24.482   0.617  52.494  1.00  0.00     0.139 A 
HETATM    2  C6  UNL     1      24.847  -0.495  53.444  1.00  0.00     0.073 A 
HETATM    3  N1  UNL     1      23.966  -1.085  54.431  1.00  0.00    -0.243 NA
HETATM    4  C8  UNL     1      22.758  -0.649  54.521  1.00  0.00     0.235 A 
HETATM    5  N2  UNL     1      22.302   0.391  53.669  1.00  0.00    -0.228 NA
HETATM    6  C9  UNL     1      23.081   0.946  52.770  1.00  0.00     0.120 A 
ENDROOT
BRANCH   6   7
HETATM    7  N3  UNL     1      22.415   1.952  52.022  1.00  0.00    -0.344 N 
HETATM    8  H12 UNL     1      21.884   2.645  52.634  1.00  0.00     0.167 HD
BRANCH   7   9
HETATM    9  C10 UNL     1      22.362   2.142  50.620  1.00  0.00     0.033 A 
HETATM   10  C11 UNL     1      21.791   1.299  49.698  1.00  0.00     0.032 A 
HETATM   11  C12 UNL     1      21.766   1.519  48.339  1.00  0.00     0.032 A 
HETATM   12  C13 UNL     1      22.344   2.656  47.828  1.00  0.00     0.036 A 
HETATM   13  C16 UNL     1      22.924   3.519  48.723  1.00  0.00     0.032 A 
HETATM   14  C17 UNL     1      22.932   3.271  50.076  1.00  0.00     0.032 A 
BRANCH  12  15
HETATM   15  N4  UNL     1      22.331   2.905  46.432  1.00  0.00    -0.303 N 
HETATM   16  C14 UNL     1      21.375   3.779  45.848  1.00  0.00     0.364 C 
HETATM   17  O3  UNL     1      20.516   4.361  46.534  1.00  0.00    -0.238 OA
HETATM   18  H15 UNL     1      23.100   2.358  45.973  1.00  0.00     0.171 HD
BRANCH  16  19
HETATM   19  O4  UNL     1      21.532   3.887  44.463  1.00  0.00    -0.309 OA
HETATM   20  C15 UNL     1      20.424   3.886  43.582  1.00  0.00     0.215 C 
ENDBRANCH  16  19
ENDBRANCH  12  15
ENDBRANCH   7   9
ENDBRANCH   6   7
BRANCH   1  21
HETATM   21  C3  UNL     1      25.408   1.743  52.596  1.00  0.00    -0.045 C 
HETATM   22  C2  UNL     1      26.096   2.089  51.525  1.00  0.00     0.137 C 
HETATM   23  C4  UNL     1      25.629   2.526  53.834  1.00  0.00     0.046 C 
BRANCH  22  24
HETATM   24  O1  UNL     1      27.012   2.857  50.830  1.00  0.00    -0.368 OA
HETATM   25  C1  UNL     1      26.640   3.668  49.712  1.00  0.00     0.208 C 
ENDBRANCH  22  24
ENDBRANCH   1  21
BRANCH   2  26
HETATM   26  C7  UNL     1      26.066  -0.998  53.389  1.00  0.00     0.159 C 
BRANCH  26  27
HETATM   27  O2  UNL     1      27.371  -1.375  53.499  1.00  0.00    -0.371 OA
HETATM   28  H10 UNL     1      27.744  -1.686  54.411  1.00  0.00     0.216 HD
ENDBRANCH  26  27
ENDBRANCH   2  26
TORSDOF 8
ENDMDL
MODEL 4
REMARK VINA RESULT:      -6.4      3.836      6.977
REMARK  8 active torsions:
REMARK  status: ('A' for Active; 'I' for Inactive)
REMARK    1  A    between atoms: O1_2  and  C2_3 
REMARK    2  A    between atoms: C3_4  and  C5_6 
REMARK    3  A    between atoms: C6_7  and  C7_8 
REMARK    4  A    between atoms: C7_8  and  O2_9 
REMARK    5  A    between atoms: C9_13  and  N3_14 
REMARK    6  A    between atoms: N3_14  and  C10_15 
REMARK    7  A    between atoms: C13_18  and  N4_19 
REMARK       I    between atoms: N4_19  and  C14_20 
REMARK    8  A    between atoms: C14_20  and  O4_22 
ROOT
HETATM    1  C5  UNL     1      23.103   1.036  51.931  1.00  0.00     0.139 A 
HETATM    2  C6  UNL     1      22.150   0.693  53.047  1.00  0.00     0.073 A 
HETATM    3  N1  UNL     1      20.845   1.289  53.255  1.00  0.00    -0.243 NA
HETATM    4  C8  UNL     1      20.434   2.183  52.426  1.00  0.00     0.235 A 
HETATM    5  N2  UNL     1      21.247   2.577  51.331  1.00  0.00    -0.228 NA
HETATM    6  C9  UNL     1      22.434   2.057  51.122  1.00  0.00     0.120 A 
ENDROOT
BRANCH   6   7
HETATM    7  N3  UNL     1      23.062   2.587  49.965  1.00  0.00    -0.344 N 
HETATM    8  H12 UNL     1      22.733   2.126  49.062  1.00  0.00     0.167 HD
BRANCH   7   9
HETATM    9  C10 UNL     1      24.038   3.607  49.860  1.00  0.00     0.033 A 
HETATM   10  C11 UNL     1      25.330   3.467  49.417  1.00  0.00     0.032 A 
HETATM   11  C12 UNL     1      26.252   4.487  49.336  1.00  0.00     0.032 A 
HETATM   12  C13 UNL     1      25.889   5.756  49.716  1.00  0.00     0.036 A 
HETATM   13  C16 UNL     1      24.605   5.931  50.165  1.00  0.00     0.032 A 
HETATM   14  C17 UNL     1      23.707   4.891  50.234  1.00  0.00     0.032 A 
BRANCH  12  15
HETATM   15  N4  UNL     1      26.820   6.823  49.642  1.00  0.00    -0.303 N 
HETATM   16  C14 UNL     1      26.926   7.628  48.476  1.00  0.00     0.364 C 
HETATM   17  O3  UNL     1      26.209   7.432  47.478  1.00  0.00    -0.238 OA
HETATM   18  H15 UNL     1      27.358   6.880  50.541  1.00  0.00     0.171 HD
BRANCH  16  19
HETATM   19  O4  UNL     1      27.901   8.622  48.605  1.00  0.00    -0.309 OA
HETATM   20  C15 UNL     1      28.013   9.412  49.775  1.00  0.00     0.215 C 
ENDBRANCH  16  19
ENDBRANCH  12  15
ENDBRANCH   7   9
ENDBRANCH   6   7
BRANCH   1  21
HETATM   21  C3  UNL     1      24.418   1.419  52.441  1.00  0.00    -0.045 C 
HETATM   22  C2  UNL     1      25.460   0.681  52.111  1.00  0.00     0.137 C 
HETATM   23  C4  UNL     1      24.659   2.592  53.314  1.00  0.00     0.046 C 
BRANCH  22  24
HETATM   24  O1  UNL     1      26.802   0.348  52.123  1.00  0.00    -0.368 OA
HETATM   25  C1  UNL     1      27.353  -0.574  53.067  1.00  0.00     0.208 C 
ENDBRANCH  22  24
ENDBRANCH   1  21
BRANCH   2  26
HETATM   26  C7  UNL     1      22.505  -0.230  53.921  1.00  0.00     0.159 C 
BRANCH  26  27
HETATM   27  O2  UNL     1      23.077  -1.101  54.799  1.00  0.00    -0.371 OA
HETATM   28  H10 UNL     1      22.754  -1.132  55.780  1.00  0.00     0.216 HD
ENDBRANCH  26  27
ENDBRANCH   2  26
TORSDOF 8
ENDMDL
MODEL 5
REMARK VINA RESULT:      -6.4      2.578      3.173
REMARK  8 active torsions:
REMARK  status: ('A' for Active; 'I' for Inactive)
REMARK    1  A    between atoms: O1_2  and  C2_3 
REMARK    2  A    between atoms: C3_4  and  C5_6 
REMARK    3  A    between atoms: C6_7  and  C7_8 
REMARK    4  A    between atoms: C7_8  and  O2_9 
REMARK    5  A    between atoms: C9_13  and  N3_14 
REMARK    6  A    between atoms: N3_14  and  C10_15 
REMARK    7  A    between atoms: C13_18  and  N4_19 
REMARK       I    between atoms: N4_19  and  C14_20 
REMARK    8  A    between atoms: C14_20  and  O4_22 
ROOT
HETATM    1  C5  UNL     1      25.208   0.018  53.060  1.00  0.00     0.139 A 
HETATM    2  C6  UNL     1      25.872  -0.451  54.329  1.00  0.00     0.073 A 
HETATM    3  N1  UNL     1      25.195  -1.030  55.472  1.00  0.00    -0.243 NA
HETATM    4  C8  UNL     1      23.918  -1.179  55.423  1.00  0.00     0.235 A 
HETATM    5  N2  UNL     1      23.189  -0.780  54.272  1.00  0.00    -0.228 NA
HETATM    6  C9  UNL     1      23.778  -0.248  53.226  1.00  0.00     0.120 A 
ENDROOT
BRANCH   6   7
HETATM    7  N3  UNL     1      22.861   0.061  52.187  1.00  0.00    -0.344 N 
HETATM    8  H12 UNL     1      22.580  -0.790  51.610  1.00  0.00     0.167 HD
BRANCH   7   9
HETATM    9  C10 UNL     1      22.297   1.309  51.829  1.00  0.00     0.033 A 
HETATM   10  C11 UNL     1      21.404   2.049  52.564  1.00  0.00     0.032 A 
HETATM   11  C12 UNL     1      20.874   3.259  52.175  1.00  0.00     0.032 A 
HETATM   12  C13 UNL     1      21.242   3.801  50.968  1.00  0.00     0.036 A 
HETATM   13  C16 UNL     1      22.132   3.086  50.208  1.00  0.00     0.032 A 
HETATM   14  C17 UNL     1      22.644   1.879  50.624  1.00  0.00     0.032 A 
BRANCH  12  15
HETATM   15  N4  UNL     1      20.710   5.046  50.546  1.00  0.00    -0.303 N 
HETATM   16  C14 UNL     1      21.449   6.250  50.690  1.00  0.00     0.364 C 
HETATM   17  O3  UNL     1      22.589   6.262  51.189  1.00  0.00    -0.238 OA
HETATM   18  H15 UNL     1      19.751   4.898  50.147  1.00  0.00     0.171 HD
BRANCH  16  19
HETATM   19  O4  UNL     1      20.749   7.362  50.214  1.00  0.00    -0.309 OA
HETATM   20  C15 UNL     1      21.411   8.467  49.625  1.00  0.00     0.215 C 
ENDBRANCH  16  19
ENDBRANCH  12  15
ENDBRANCH   7   9
ENDBRANCH   6   7
BRANCH   1  21
HETATM   21  C3  UNL     1      25.544   1.407  52.755  1.00  0.00    -0.045 C 
HETATM   22  C2  UNL     1      26.257   1.658  51.675  1.00  0.00     0.137 C 
HETATM   23  C4  UNL     1      25.132   2.561  53.588  1.00  0.00     0.046 C 
BRANCH  22  24
HETATM   24  O1  UNL     1      26.913   2.487  50.782  1.00  0.00    -0.368 OA
HETATM   25  C1  UNL     1      26.248   3.550  50.094  1.00  0.00     0.208 C 
ENDBRANCH  22  24
ENDBRANCH   1  21
BRANCH   2  26
HETATM   26  C7  UNL     1      27.184  -0.343  54.434  1.00  0.00     0.159 C 
BRANCH  26  27
HETATM   27  O2  UNL     1      28.526  -0.424  54.654  1.00  0.00    -0.371 OA
HETATM   28  H10 UNL     1      29.168   0.230  54.177  1.00  0.00     0.216 HD
ENDBRANCH  26  27
ENDBRANCH   2  26
TORSDOF 8
ENDMDL
MODEL 6
REMARK VINA RESULT:      -6.3      5.658      7.990
REMARK  8 active torsions:
REMARK  status: ('A' for Active; 'I' for Inactive)
REMARK    1  A    between atoms: O1_2  and  C2_3 
REMARK    2  A    between atoms: C3_4  and  C5_6 
REMARK    3  A    between atoms: C6_7  and  C7_8 
REMARK    4  A    between atoms: C7_8  and  O2_9 
REMARK    5  A    between atoms: C9_13  and  N3_14 
REMARK    6  A    between atoms: N3_14  and  C10_15 
REMARK    7  A    between atoms: C13_18  and  N4_19 
REMARK       I    between atoms: N4_19  and  C14_20 
REMARK    8  A    between atoms: C14_20  and  O4_22 
ROOT
HETATM    1  C5  UNL     1      27.516   7.461  49.163  1.00  0.00     0.139 A 
HETATM    2  C6  UNL     1      27.634   8.944  49.406  1.00  0.00     0.073 A 
HETATM    3  N1  UNL     1      26.537   9.890  49.403  1.00  0.00    -0.243 NA
HETATM    4  C8  UNL     1      25.345   9.454  49.187  1.00  0.00     0.235 A 
HETATM    5  N2  UNL     1      25.115   8.072  48.955  1.00  0.00    -0.228 NA
HETATM    6  C9  UNL     1      26.092   7.196  48.948  1.00  0.00     0.120 A 
ENDROOT
BRANCH   6   7
HETATM    7  N3  UNL     1      25.632   5.874  48.710  1.00  0.00    -0.344 N 
HETATM    8  H12 UNL     1      25.232   5.739  47.732  1.00  0.00     0.167 HD
BRANCH   7   9
HETATM    9  C10 UNL     1      25.631   4.754  49.577  1.00  0.00     0.033 A 
HETATM   10  C11 UNL     1      26.572   3.756  49.631  1.00  0.00     0.032 A 
HETATM   11  C12 UNL     1      26.530   2.678  50.488  1.00  0.00     0.032 A 
HETATM   12  C13 UNL     1      25.484   2.558  51.372  1.00  0.00     0.036 A 
HETATM   13  C16 UNL     1      24.526   3.539  51.343  1.00  0.00     0.032 A 
HETATM   14  C17 UNL     1      24.597   4.604  50.475  1.00  0.00     0.032 A 
BRANCH  12  15
HETATM   15  N4  UNL     1      25.419   1.458  52.264  1.00  0.00    -0.303 N 
HETATM   16  C14 UNL     1      26.017   1.517  53.551  1.00  0.00     0.364 C 
HETATM   17  O3  UNL     1      26.617   2.532  53.948  1.00  0.00    -0.238 OA
HETATM   18  H15 UNL     1      24.890   0.673  51.811  1.00  0.00     0.171 HD
BRANCH  16  19
HETATM   19  O4  UNL     1      25.840   0.333  54.272  1.00  0.00    -0.309 OA
HETATM   20  C15 UNL     1      25.731  -0.925  53.631  1.00  0.00     0.215 C 
ENDBRANCH  16  19
ENDBRANCH  12  15
ENDBRANCH   7   9
ENDBRANCH   6   7
BRANCH   1  21
HETATM   21  C3  UNL     1      28.395   7.017  48.083  1.00  0.00    -0.045 C 
HETATM   22  C2  UNL     1      29.246   6.041  48.327  1.00  0.00     0.137 C 
HETATM   23  C4  UNL     1      28.392   7.600  46.721  1.00  0.00     0.046 C 
BRANCH  22  24
HETATM   24  O1  UNL     1      30.253   5.155  47.988  1.00  0.00    -0.368 OA
HETATM   25  C1  UNL     1      31.611   5.347  48.395  1.00  0.00     0.208 C 
ENDBRANCH  22  24
ENDBRANCH   1  21
BRANCH   2  26
HETATM   26  C7  UNL     1      28.828   9.451  49.652  1.00  0.00     0.159 C 
BRANCH  26  27
HETATM   27  O2  UNL     1      30.124   9.763  49.936  1.00  0.00    -0.371 OA
HETATM   28  H10 UNL     1      30.339  10.548  50.572  1.00  0.00     0.216 HD
ENDBRANCH  26  27
ENDBRANCH   2  26
TORSDOF 8
ENDMDL
MODEL 7
REMARK VINA RESULT:      -6.1      3.352      7.318
REMARK  8 active torsions:
REMARK  status: ('A' for Active; 'I' for Inactive)
REMARK    1  A    between atoms: O1_2  and  C2_3 
REMARK    2  A    between atoms: C3_4  and  C5_6 
REMARK    3  A    between atoms: C6_7  and  C7_8 
REMARK    4  A    between atoms: C7_8  and  O2_9 
REMARK    5  A    between atoms: C9_13  and  N3_14 
REMARK    6  A    between atoms: N3_14  and  C10_15 
REMARK    7  A    between atoms: C13_18  and  N4_19 
REMARK       I    between atoms: N4_19  and  C14_20 
REMARK    8  A    between atoms: C14_20  and  O4_22 
ROOT
HETATM    1  C5  UNL     1      22.648   4.546  49.545  1.00  0.00     0.139 A 
HETATM    2  C6  UNL     1      22.280   4.476  48.086  1.00  0.00     0.073 A 
HETATM    3  N1  UNL     1      21.634   3.356  47.431  1.00  0.00    -0.243 NA
HETATM    4  C8  UNL     1      21.325   2.323  48.134  1.00  0.00     0.235 A 
HETATM    5  N2  UNL     1      21.616   2.284  49.523  1.00  0.00    -0.228 NA
HETATM    6  C9  UNL     1      22.206   3.282  50.139  1.00  0.00     0.120 A 
ENDROOT
BRANCH   6   7
HETATM    7  N3  UNL     1      22.386   3.034  51.525  1.00  0.00    -0.344 N 
HETATM    8  H12 UNL     1      21.551   3.334  52.115  1.00  0.00     0.167 HD
BRANCH   7   9
HETATM    9  C10 UNL     1      23.493   2.465  52.199  1.00  0.00     0.033 A 
HETATM   10  C11 UNL     1      24.327   3.097  53.088  1.00  0.00     0.032 A 
HETATM   11  C12 UNL     1      25.400   2.506  53.719  1.00  0.00     0.032 A 
HETATM   12  C13 UNL     1      25.688   1.187  53.468  1.00  0.00     0.036 A 
HETATM   13  C16 UNL     1      24.874   0.526  52.584  1.00  0.00     0.032 A 
HETATM   14  C17 UNL     1      23.810   1.144  51.969  1.00  0.00     0.032 A 
BRANCH  12  15
HETATM   15  N4  UNL     1      26.787   0.557  54.106  1.00  0.00    -0.303 N 
HETATM   16  C14 UNL     1      28.121   0.793  53.679  1.00  0.00     0.364 C 
HETATM   17  O3  UNL     1      28.380   1.559  52.733  1.00  0.00    -0.238 OA
HETATM   18  H15 UNL     1      26.436  -0.057  54.881  1.00  0.00     0.171 HD
BRANCH  16  19
HETATM   19  O4  UNL     1      29.055   0.080  54.436  1.00  0.00    -0.309 OA
HETATM   20  C15 UNL     1      29.954  -0.840  53.843  1.00  0.00     0.215 C 
ENDBRANCH  16  19
ENDBRANCH  12  15
ENDBRANCH   7   9
ENDBRANCH   6   7
BRANCH   1  21
HETATM   21  C3  UNL     1      24.065   4.851  49.733  1.00  0.00    -0.045 C 
HETATM   22  C2  UNL     1      24.392   5.999  50.294  1.00  0.00     0.137 C 
HETATM   23  C4  UNL     1      25.168   3.948  49.329  1.00  0.00     0.046 C 
BRANCH  22  24
HETATM   24  O1  UNL     1      25.286   6.941  50.770  1.00  0.00    -0.368 OA
HETATM   25  C1  UNL     1      26.174   7.658  49.908  1.00  0.00     0.208 C 
ENDBRANCH  22  24
ENDBRANCH   1  21
BRANCH   2  26
HETATM   26  C7  UNL     1      22.554   5.511  47.314  1.00  0.00     0.159 C 
BRANCH  26  27
HETATM   27  O2  UNL     1      23.009   6.614  46.655  1.00  0.00    -0.371 OA
HETATM   28  H10 UNL     1      23.287   7.455  47.187  1.00  0.00     0.216 HD
ENDBRANCH  26  27
ENDBRANCH   2  26
TORSDOF 8
ENDMDL
MODEL 8
REMARK VINA RESULT:      -5.9      3.640      6.397
REMARK  8 active torsions:
REMARK  status: ('A' for Active; 'I' for Inactive)
REMARK    1  A    between atoms: O1_2  and  C2_3 
REMARK    2  A    between atoms: C3_4  and  C5_6 
REMARK    3  A    between atoms: C6_7  and  C7_8 
REMARK    4  A    between atoms: C7_8  and  O2_9 
REMARK    5  A    between atoms: C9_13  and  N3_14 
REMARK    6  A    between atoms: N3_14  and  C10_15 
REMARK    7  A    between atoms: C13_18  and  N4_19 
REMARK       I    between atoms: N4_19  and  C14_20 
REMARK    8  A    between atoms: C14_20  and  O4_22 
ROOT
HETATM    1  C5  UNL     1      24.516   0.541  53.438  1.00  0.00     0.139 A 
HETATM    2  C6  UNL     1      25.487  -0.342  54.178  1.00  0.00     0.073 A 
HETATM    3  N1  UNL     1      26.780  -0.773  53.686  1.00  0.00    -0.243 NA
HETATM    4  C8  UNL     1      27.163  -0.374  52.524  1.00  0.00     0.235 A 
HETATM    5  N2  UNL     1      26.331   0.470  51.742  1.00  0.00    -0.228 NA
HETATM    6  C9  UNL     1      25.154   0.870  52.162  1.00  0.00     0.120 A 
ENDROOT
BRANCH   6   7
HETATM    7  N3  UNL     1      24.504   1.717  51.226  1.00  0.00    -0.344 N 
HETATM    8  H12 UNL     1      23.491   1.441  51.045  1.00  0.00     0.167 HD
BRANCH   7   9
HETATM    9  C10 UNL     1      25.013   2.836  50.524  1.00  0.00     0.033 A 
HETATM   10  C11 UNL     1      26.324   3.072  50.193  1.00  0.00     0.032 A 
HETATM   11  C12 UNL     1      26.778   4.180  49.512  1.00  0.00     0.032 A 
HETATM   12  C13 UNL     1      25.883   5.143  49.115  1.00  0.00     0.036 A 
HETATM   13  C16 UNL     1      24.564   4.938  49.431  1.00  0.00     0.032 A 
HETATM   14  C17 UNL     1      24.141   3.821  50.113  1.00  0.00     0.032 A 
BRANCH  12  15
HETATM   15  N4  UNL     1      26.327   6.292  48.413  1.00  0.00    -0.303 N 
HETATM   16  C14 UNL     1      26.521   7.532  49.077  1.00  0.00     0.364 C 
HETATM   17  O3  UNL     1      26.311   7.662  50.297  1.00  0.00    -0.238 OA
HETATM   18  H15 UNL     1      26.466   6.051  47.401  1.00  0.00     0.171 HD
BRANCH  16  19
HETATM   19  O4  UNL     1      26.960   8.536  48.209  1.00  0.00    -0.309 OA
HETATM   20  C15 UNL     1      27.339   8.257  46.873  1.00  0.00     0.215 C 
ENDBRANCH  16  19
ENDBRANCH  12  15
ENDBRANCH   7   9
ENDBRANCH   6   7
BRANCH   1  21
HETATM   21  C3  UNL     1      23.197  -0.079  53.324  1.00  0.00    -0.045 C 
HETATM   22  C2  UNL     1      22.139   0.626  53.674  1.00  0.00     0.137 C 
HETATM   23  C4  UNL     1      22.971  -1.460  52.839  1.00  0.00     0.046 C 
BRANCH  22  24
HETATM   24  O1  UNL     1      20.783   0.823  53.865  1.00  0.00    -0.368 OA
HETATM   25  C1  UNL     1      19.798   0.264  52.992  1.00  0.00     0.208 C 
ENDBRANCH  22  24
ENDBRANCH   1  21
BRANCH   2  26
HETATM   26  C7  UNL     1      25.160  -0.770  55.384  1.00  0.00     0.159 C 
BRANCH  26  27
HETATM   27  O2  UNL     1      24.876  -1.414  56.551  1.00  0.00    -0.371 OA
HETATM   28  H10 UNL     1      25.399  -1.180  57.411  1.00  0.00     0.216 HD
ENDBRANCH  26  27
ENDBRANCH   2  26
TORSDOF 8
ENDMDL
MODEL 9
REMARK VINA RESULT:      -5.7      3.278      5.816
REMARK  8 active torsions:
REMARK  status: ('A' for Active; 'I' for Inactive)
REMARK    1  A    between atoms: O1_2  and  C2_3 
REMARK    2  A    between atoms: C3_4  and  C5_6 
REMARK    3  A    between atoms: C6_7  and  C7_8 
REMARK    4  A    between atoms: C7_8  and  O2_9 
REMARK    5  A    between atoms: C9_13  and  N3_14 
REMARK    6  A    between atoms: N3_14  and  C10_15 
REMARK    7  A    between atoms: C13_18  and  N4_19 
REMARK       I    between atoms: N4_19  and  C14_20 
REMARK    8  A    between atoms: C14_20  and  O4_22 
ROOT
HETATM    1  C5  UNL     1      22.952   1.264  53.397  1.00  0.00     0.139 A 
HETATM    2  C6  UNL     1      23.088  -0.193  53.755  1.00  0.00     0.073 A 
HETATM    3  N1  UNL     1      24.305  -0.975  53.664  1.00  0.00    -0.243 NA
HETATM    4  C8  UNL     1      25.381  -0.399  53.255  1.00  0.00     0.235 A 
HETATM    5  N2  UNL     1      25.371   0.975  52.899  1.00  0.00    -0.228 NA
HETATM    6  C9  UNL     1      24.282   1.704  52.968  1.00  0.00     0.120 A 
ENDROOT
BRANCH   6   7
HETATM    7  N3  UNL     1      24.506   3.051  52.579  1.00  0.00    -0.344 N 
HETATM    8  H12 UNL     1      25.019   3.620  53.319  1.00  0.00     0.167 HD
BRANCH   7   9
HETATM    9  C10 UNL     1      24.143   3.712  51.380  1.00  0.00     0.033 A 
HETATM   10  C11 UNL     1      24.487   3.345  50.103  1.00  0.00     0.032 A 
HETATM   11  C12 UNL     1      24.116   4.021  48.961  1.00  0.00     0.032 A 
HETATM   12  C13 UNL     1      23.343   5.152  49.067  1.00  0.00     0.036 A 
HETATM   13  C16 UNL     1      22.982   5.547  50.330  1.00  0.00     0.032 A 
HETATM   14  C17 UNL     1      23.369   4.849  51.451  1.00  0.00     0.032 A 
BRANCH  12  15
HETATM   15  N4  UNL     1      22.949   5.865  47.907  1.00  0.00    -0.303 N 
HETATM   16  C14 UNL     1      23.728   6.939  47.402  1.00  0.00     0.364 C 
HETATM   17  O3  UNL     1      24.785   7.298  47.954  1.00  0.00    -0.238 OA
HETATM   18  H15 UNL     1      22.049   5.466  47.541  1.00  0.00     0.171 HD
BRANCH  16  19
HETATM   19  O4  UNL     1      23.168   7.507  46.253  1.00  0.00    -0.309 OA
HETATM   20  C15 UNL     1      23.650   8.722  45.708  1.00  0.00     0.215 C 
ENDBRANCH  16  19
ENDBRANCH  12  15
ENDBRANCH   7   9
ENDBRANCH   6   7
BRANCH   1  21
HETATM   21  C3  UNL     1      21.887   1.486  52.422  1.00  0.00    -0.045 C 
HETATM   22  C2  UNL     1      20.905   2.306  52.739  1.00  0.00     0.137 C 
HETATM   23  C4  UNL     1      21.836   0.841  51.089  1.00  0.00     0.046 C 
BRANCH  22  24
HETATM   24  O1  UNL     1      19.720   2.979  52.502  1.00  0.00    -0.368 OA
HETATM   25  C1  UNL     1      19.551   3.862  51.390  1.00  0.00     0.208 C 
ENDBRANCH  22  24
ENDBRANCH   1  21
BRANCH   2  26
HETATM   26  C7  UNL     1      22.024  -0.837  54.199  1.00  0.00     0.159 C 
BRANCH  26  27
HETATM   27  O2  UNL     1      21.053  -1.552  54.833  1.00  0.00    -0.371 OA
HETATM   28  H10 UNL     1      21.198  -2.555  55.034  1.00  0.00     0.216 HD
ENDBRANCH  26  27
ENDBRANCH   2  26
TORSDOF 8
ENDMDL
