MODEL 1
REMARK VINA RESULT:      -7.8      0.000      0.000
REMARK  4 active torsions:
REMARK  status: ('A' for Active; 'I' for Inactive)
REMARK    1  A    between atoms: C4_5  and  N1_6 
REMARK    2  A    between atoms: N1_6  and  C5_7 
REMARK    3  A    between atoms: C8_10  and  N2_11 
REMARK    4  A    between atoms: N2_11  and  C9_12 
ROOT
HETATM    1  C5  UNL     1      26.413   2.350  51.216  1.00  0.00     0.129 C 
HETATM    2  C6  UNL     1      27.197   2.358  52.342  1.00  0.00     0.054 C 
HETATM    3  C7  UNL     1      27.858   1.356  53.014  1.00  0.00     0.054 C 
HETATM    4  C8  UNL     1      27.514   0.412  53.952  1.00  0.00     0.124 C 
HETATM    5  N3  UNL     1      26.223   0.219  54.258  1.00  0.00    -0.242 NA
HETATM    6  C10 UNL     1      25.598  -0.904  53.862  1.00  0.00     0.138 C 
HETATM    7  C11 UNL     1      24.540  -0.018  53.629  1.00  0.00     0.137 C 
HETATM    8  N4  UNL     1      23.885   1.063  53.147  1.00  0.00    -0.253 NA
HETATM    9  C12 UNL     1      24.517   2.147  52.645  1.00  0.00     0.234 C 
HETATM   10  N5  UNL     1      25.327   1.709  51.681  1.00  0.00    -0.225 NA
ENDROOT
BRANCH   1  11
HETATM   11  N1  UNL     1      26.540   2.821  49.887  1.00  0.00    -0.341 N 
HETATM   12  H3  UNL     1      26.559   2.085  49.176  1.00  0.00     0.167 HD
BRANCH  11  13
HETATM   13  C4  UNL     1      26.638   4.178  49.500  1.00  0.00     0.035 A 
HETATM   14  C3  UNL     1      27.608   4.728  48.702  1.00  0.00     0.032 A 
HETATM   15  C2  UNL     1      27.673   6.053  48.350  1.00  0.00     0.046 A 
HETATM   16  C1  UNL     1      26.685   6.902  48.833  1.00  0.00     0.138 A 
HETATM   17  F1  UNL     1      26.665   8.222  48.539  1.00  0.00    -0.204 F 
HETATM   18  C14 UNL     1      25.686   6.403  49.638  1.00  0.00     0.074 A 
HETATM   19  C13 UNL     1      25.685   5.081  49.947  1.00  0.00     0.056 A 
HETATM   20 CL2  UNL     1      24.441   7.489  50.243  1.00  0.00    -0.081 Cl
ENDBRANCH  11  13
ENDBRANCH   1  11
BRANCH   4  21
HETATM   21  N2  UNL     1      28.573  -0.306  54.544  1.00  0.00    -0.362 N 
HETATM   22  H6  UNL     1      28.596  -0.319  55.603  1.00  0.00     0.162 HD
BRANCH  21  23
HETATM   23  C9  UNL     1      29.598  -1.003  53.797  1.00  0.00     0.237 C 
HETATM   24 CL1  UNL     1      29.012  -2.547  53.113  1.00  0.00    -0.109 Cl
ENDBRANCH  21  23
ENDBRANCH   4  21
TORSDOF 4
ENDMDL
MODEL 2
REMARK VINA RESULT:      -7.8      4.310      6.352
REMARK  4 active torsions:
REMARK  status: ('A' for Active; 'I' for Inactive)
REMARK    1  A    between atoms: C4_5  and  N1_6 
REMARK    2  A    between atoms: N1_6  and  C5_7 
REMARK    3  A    between atoms: C8_10  and  N2_11 
REMARK    4  A    between atoms: N2_11  and  C9_12 
ROOT
HETATM    1  C5  UNL     1      24.913   2.735  51.852  1.00  0.00     0.129 C 
HETATM    2  C6  UNL     1      23.862   2.607  52.724  1.00  0.00     0.054 C 
HETATM    3  C7  UNL     1      22.996   1.570  52.981  1.00  0.00     0.054 C 
HETATM    4  C8  UNL     1      21.839   1.093  52.411  1.00  0.00     0.124 C 
HETATM    5  N3  UNL     1      21.435   1.575  51.226  1.00  0.00    -0.242 NA
HETATM    6  C10 UNL     1      21.514   0.808  50.125  1.00  0.00     0.138 C 
HETATM    7  C11 UNL     1      21.907   2.013  49.532  1.00  0.00     0.137 C 
HETATM    8  N4  UNL     1      22.609   3.154  49.344  1.00  0.00    -0.253 NA
HETATM    9  C12 UNL     1      23.391   3.707  50.297  1.00  0.00     0.234 C 
HETATM   10  N5  UNL     1      24.255   2.766  50.681  1.00  0.00    -0.225 NA
ENDROOT
BRANCH   1  11
HETATM   11  N1  UNL     1      26.321   2.822  51.966  1.00  0.00    -0.341 N 
HETATM   12  H3  UNL     1      26.725   3.684  51.588  1.00  0.00     0.167 HD
BRANCH  11  13
HETATM   13  C4  UNL     1      27.164   1.842  52.541  1.00  0.00     0.035 A 
HETATM   14  C3  UNL     1      28.289   2.075  53.288  1.00  0.00     0.032 A 
HETATM   15  C2  UNL     1      29.086   1.096  53.829  1.00  0.00     0.046 A 
HETATM   16  C1  UNL     1      28.729  -0.228  53.605  1.00  0.00     0.138 A 
HETATM   17  F1  UNL     1      29.451  -1.260  54.097  1.00  0.00    -0.204 F 
HETATM   18  C14 UNL     1      27.608  -0.519  52.861  1.00  0.00     0.074 A 
HETATM   19  C13 UNL     1      26.866   0.500  52.357  1.00  0.00     0.056 A 
HETATM   20 CL2  UNL     1      27.167  -2.201  52.586  1.00  0.00    -0.081 Cl
ENDBRANCH  11  13
ENDBRANCH   1  11
BRANCH   4  21
HETATM   21  N2  UNL     1      21.140   0.104  53.131  1.00  0.00    -0.362 N 
HETATM   22  H6  UNL     1      20.514  -0.535  52.563  1.00  0.00     0.162 HD
BRANCH  21  23
HETATM   23  C9  UNL     1      21.232  -0.072  54.564  1.00  0.00     0.237 C 
HETATM   24 CL1  UNL     1      22.323  -1.413  55.017  1.00  0.00    -0.109 Cl
ENDBRANCH  21  23
ENDBRANCH   4  21
TORSDOF 4
ENDMDL
MODEL 3
REMARK VINA RESULT:      -7.4      4.833      7.056
REMARK  4 active torsions:
REMARK  status: ('A' for Active; 'I' for Inactive)
REMARK    1  A    between atoms: C4_5  and  N1_6 
REMARK    2  A    between atoms: N1_6  and  C5_7 
REMARK    3  A    between atoms: C8_10  and  N2_11 
REMARK    4  A    between atoms: N2_11  and  C9_12 
ROOT
HETATM    1  C5  UNL     1      23.137   0.515  53.222  1.00  0.00     0.129 C 
HETATM    2  C6  UNL     1      24.071  -0.473  53.043  1.00  0.00     0.054 C 
HETATM    3  C7  UNL     1      25.317  -0.676  53.589  1.00  0.00     0.054 C 
HETATM    4  C8  UNL     1      26.587  -0.217  53.332  1.00  0.00     0.124 C 
HETATM    5  N3  UNL     1      26.767   0.789  52.462  1.00  0.00    -0.242 NA
HETATM    6  C10 UNL     1      27.127   2.005  52.906  1.00  0.00     0.138 C 
HETATM    7  C11 UNL     1      26.229   2.432  51.920  1.00  0.00     0.137 C 
HETATM    8  N4  UNL     1      25.072   2.525  51.226  1.00  0.00    -0.253 NA
HETATM    9  C12 UNL     1      24.072   1.622  51.331  1.00  0.00     0.234 C 
HETATM   10  N5  UNL     1      23.756   1.546  52.624  1.00  0.00    -0.225 NA
ENDROOT
BRANCH   1  11
HETATM   11  N1  UNL     1      21.859   0.607  53.826  1.00  0.00    -0.341 N 
HETATM   12  H3  UNL     1      21.868   0.958  54.787  1.00  0.00     0.167 HD
BRANCH  11  13
HETATM   13  C4  UNL     1      20.632   0.261  53.213  1.00  0.00     0.035 A 
HETATM   14  C3  UNL     1      20.044   0.901  52.152  1.00  0.00     0.032 A 
HETATM   15  C2  UNL     1      18.848   0.538  51.584  1.00  0.00     0.046 A 
HETATM   16  C1  UNL     1      18.181  -0.558  52.119  1.00  0.00     0.138 A 
HETATM   17  F1  UNL     1      16.999  -0.990  51.627  1.00  0.00    -0.204 F 
HETATM   18  C14 UNL     1      18.727  -1.238  53.185  1.00  0.00     0.074 A 
HETATM   19  C13 UNL     1      19.913  -0.823  53.696  1.00  0.00     0.056 A 
HETATM   20 CL2  UNL     1      17.873  -2.624  53.853  1.00  0.00    -0.081 Cl
ENDBRANCH  11  13
ENDBRANCH   1  11
BRANCH   4  21
HETATM   21  N2  UNL     1      27.641  -0.853  54.019  1.00  0.00    -0.362 N 
HETATM   22  H6  UNL     1      27.510  -0.982  55.062  1.00  0.00     0.162 HD
BRANCH  21  23
HETATM   23  C9  UNL     1      28.855  -1.321  53.386  1.00  0.00     0.237 C 
HETATM   24 CL1  UNL     1      30.186  -0.134  53.503  1.00  0.00    -0.109 Cl
ENDBRANCH  21  23
ENDBRANCH   4  21
TORSDOF 4
ENDMDL
MODEL 4
REMARK VINA RESULT:      -7.3      3.470      6.803
REMARK  4 active torsions:
REMARK  status: ('A' for Active; 'I' for Inactive)
REMARK    1  A    between atoms: C4_5  and  N1_6 
REMARK    2  A    between atoms: N1_6  and  C5_7 
REMARK    3  A    between atoms: C8_10  and  N2_11 
REMARK    4  A    between atoms: N2_11  and  C9_12 
ROOT
HETATM    1  C5  UNL     1      24.839   2.821  50.741  1.00  0.00     0.129 C 
HETATM    2  C6  UNL     1      25.535   3.238  49.636  1.00  0.00     0.054 C 
HETATM    3  C7  UNL     1      26.508   4.195  49.464  1.00  0.00     0.054 C 
HETATM    4  C8  UNL     1      26.522   5.557  49.282  1.00  0.00     0.124 C 
HETATM    5  N3  UNL     1      25.392   6.261  49.440  1.00  0.00    -0.242 NA
HETATM    6  C10 UNL     1      25.244   7.067  50.506  1.00  0.00     0.138 C 
HETATM    7  C11 UNL     1      23.936   6.570  50.475  1.00  0.00     0.137 C 
HETATM    8  N4  UNL     1      22.935   5.661  50.449  1.00  0.00    -0.253 NA
HETATM    9  C12 UNL     1      23.124   4.360  50.133  1.00  0.00     0.234 C 
HETATM   10  N5  UNL     1      24.063   3.896  50.959  1.00  0.00    -0.225 NA
ENDROOT
BRANCH   1  11
HETATM   11  N1  UNL     1      24.811   1.655  51.544  1.00  0.00    -0.341 N 
HETATM   12  H3  UNL     1      23.879   1.253  51.676  1.00  0.00     0.167 HD
BRANCH  11  13
HETATM   13  C4  UNL     1      25.935   1.041  52.144  1.00  0.00     0.035 A 
HETATM   14  C3  UNL     1      26.181  -0.305  52.222  1.00  0.00     0.032 A 
HETATM   15  C2  UNL     1      27.284  -0.866  52.817  1.00  0.00     0.046 A 
HETATM   16  C1  UNL     1      28.223  -0.010  53.382  1.00  0.00     0.138 A 
HETATM   17  F1  UNL     1      29.340  -0.470  53.989  1.00  0.00    -0.204 F 
HETATM   18  C14 UNL     1      28.026   1.351  53.332  1.00  0.00     0.074 A 
HETATM   19  C13 UNL     1      26.911   1.836  52.728  1.00  0.00     0.056 A 
HETATM   20 CL2  UNL     1      29.222   2.424  54.051  1.00  0.00    -0.081 Cl
ENDBRANCH  11  13
ENDBRANCH   1  11
BRANCH   4  21
HETATM   21  N2  UNL     1      27.760   6.136  48.931  1.00  0.00    -0.362 N 
HETATM   22  H6  UNL     1      27.918   7.133  49.252  1.00  0.00     0.162 HD
BRANCH  21  23
HETATM   23  C9  UNL     1      28.789   5.454  48.178  1.00  0.00     0.237 C 
HETATM   24 CL1  UNL     1      30.358   6.307  48.239  1.00  0.00    -0.109 Cl
ENDBRANCH  21  23
ENDBRANCH   4  21
TORSDOF 4
ENDMDL
MODEL 5
REMARK VINA RESULT:      -7.3      4.443      6.926
REMARK  4 active torsions:
REMARK  status: ('A' for Active; 'I' for Inactive)
REMARK    1  A    between atoms: C4_5  and  N1_6 
REMARK    2  A    between atoms: N1_6  and  C5_7 
REMARK    3  A    between atoms: C8_10  and  N2_11 
REMARK    4  A    between atoms: N2_11  and  C9_12 
ROOT
HETATM    1  C5  UNL     1      24.187   1.944  52.004  1.00  0.00     0.129 C 
HETATM    2  C6  UNL     1      23.261   1.384  52.846  1.00  0.00     0.054 C 
HETATM    3  C7  UNL     1      21.992   0.897  52.630  1.00  0.00     0.054 C 
HETATM    4  C8  UNL     1      20.735   1.443  52.536  1.00  0.00     0.124 C 
HETATM    5  N3  UNL     1      20.592   2.775  52.472  1.00  0.00    -0.242 NA
HETATM    6  C10 UNL     1      20.214   3.357  51.320  1.00  0.00     0.138 C 
HETATM    7  C11 UNL     1      21.153   4.320  51.707  1.00  0.00     0.137 C 
HETATM    8  N4  UNL     1      22.338   4.833  52.109  1.00  0.00    -0.253 NA
HETATM    9  C12 UNL     1      23.332   4.079  52.628  1.00  0.00     0.234 C 
HETATM   10  N5  UNL     1      23.594   3.121  51.739  1.00  0.00    -0.225 NA
ENDROOT
BRANCH   1  11
HETATM   11  N1  UNL     1      25.438   1.556  51.467  1.00  0.00    -0.341 N 
HETATM   12  H3  UNL     1      25.563   1.782  50.477  1.00  0.00     0.167 HD
BRANCH  11  13
HETATM   13  C4  UNL     1      26.474   0.906  52.179  1.00  0.00     0.035 A 
HETATM   14  C3  UNL     1      26.674  -0.447  52.266  1.00  0.00     0.032 A 
HETATM   15  C2  UNL     1      27.690  -1.044  52.971  1.00  0.00     0.046 A 
HETATM   16  C1  UNL     1      28.584  -0.220  53.645  1.00  0.00     0.138 A 
HETATM   17  F1  UNL     1      29.616  -0.715  54.364  1.00  0.00    -0.204 F 
HETATM   18  C14 UNL     1      28.430   1.147  53.590  1.00  0.00     0.074 A 
HETATM   19  C13 UNL     1      27.401   1.668  52.874  1.00  0.00     0.056 A 
HETATM   20 CL2  UNL     1      29.568   2.180  54.447  1.00  0.00    -0.081 Cl
ENDBRANCH  11  13
ENDBRANCH   1  11
BRANCH   4  21
HETATM   21  N2  UNL     1      19.652   0.540  52.514  1.00  0.00    -0.362 N 
HETATM   22  H6  UNL     1      18.912   0.715  51.777  1.00  0.00     0.162 HD
BRANCH  21  23
HETATM   23  C9  UNL     1      19.510  -0.577  53.421  1.00  0.00     0.237 C 
HETATM   24 CL1  UNL     1      17.918  -1.375  53.276  1.00  0.00    -0.109 Cl
ENDBRANCH  21  23
ENDBRANCH   4  21
TORSDOF 4
ENDMDL
MODEL 6
REMARK VINA RESULT:      -7.2      3.331      7.237
REMARK  4 active torsions:
REMARK  status: ('A' for Active; 'I' for Inactive)
REMARK    1  A    between atoms: C4_5  and  N1_6 
REMARK    2  A    between atoms: N1_6  and  C5_7 
REMARK    3  A    between atoms: C8_10  and  N2_11 
REMARK    4  A    between atoms: N2_11  and  C9_12 
ROOT
HETATM    1  C5  UNL     1      25.293   2.770  50.531  1.00  0.00     0.129 C 
HETATM    2  C6  UNL     1      26.238   3.185  49.628  1.00  0.00     0.054 C 
HETATM    3  C7  UNL     1      26.950   4.356  49.508  1.00  0.00     0.054 C 
HETATM    4  C8  UNL     1      26.712   5.597  48.967  1.00  0.00     0.124 C 
HETATM    5  N3  UNL     1      25.475   5.920  48.563  1.00  0.00    -0.242 NA
HETATM    6  C10 UNL     1      24.751   6.812  49.260  1.00  0.00     0.138 C 
HETATM    7  C11 UNL     1      23.708   5.927  48.963  1.00  0.00     0.137 C 
HETATM    8  N4  UNL     1      23.034   4.757  48.882  1.00  0.00    -0.253 NA
HETATM    9  C12 UNL     1      23.628   3.550  49.016  1.00  0.00     0.234 C 
HETATM   10  N5  UNL     1      24.264   3.563  50.188  1.00  0.00    -0.225 NA
ENDROOT
BRANCH   1  11
HETATM   11  N1  UNL     1      25.237   1.817  51.577  1.00  0.00    -0.341 N 
HETATM   12  H3  UNL     1      24.290   1.557  51.864  1.00  0.00     0.167 HD
BRANCH  11  13
HETATM   13  C4  UNL     1      26.354   1.230  52.216  1.00  0.00     0.035 A 
HETATM   14  C3  UNL     1      27.356   1.895  52.875  1.00  0.00     0.032 A 
HETATM   15  C2  UNL     1      28.429   1.291  53.482  1.00  0.00     0.046 A 
HETATM   16  C1  UNL     1      28.509  -0.095  53.429  1.00  0.00     0.138 A 
HETATM   17  F1  UNL     1      29.528  -0.778  53.999  1.00  0.00    -0.204 F 
HETATM   18  C14 UNL     1      27.530  -0.813  52.781  1.00  0.00     0.074 A 
HETATM   19  C13 UNL     1      26.497  -0.150  52.202  1.00  0.00     0.056 A 
HETATM   20 CL2  UNL     1      27.643  -2.569  52.722  1.00  0.00    -0.081 Cl
ENDBRANCH  11  13
ENDBRANCH   1  11
BRANCH   4  21
HETATM   21  N2  UNL     1      27.817   6.468  48.873  1.00  0.00    -0.362 N 
HETATM   22  H6  UNL     1      28.292   6.722  49.784  1.00  0.00     0.162 HD
BRANCH  21  23
HETATM   23  C9  UNL     1      28.315   7.014  47.629  1.00  0.00     0.237 C 
HETATM   24 CL1  UNL     1      30.055   6.685  47.388  1.00  0.00    -0.109 Cl
ENDBRANCH  21  23
ENDBRANCH   4  21
TORSDOF 4
ENDMDL
MODEL 7
REMARK VINA RESULT:      -7.1      3.469      7.119
REMARK  4 active torsions:
REMARK  status: ('A' for Active; 'I' for Inactive)
REMARK    1  A    between atoms: C4_5  and  N1_6 
REMARK    2  A    between atoms: N1_6  and  C5_7 
REMARK    3  A    between atoms: C8_10  and  N2_11 
REMARK    4  A    between atoms: N2_11  and  C9_12 
ROOT
HETATM    1  C5  UNL     1      24.932   2.537  52.709  1.00  0.00     0.129 C 
HETATM    2  C6  UNL     1      24.675   3.035  51.458  1.00  0.00     0.054 C 
HETATM    3  C7  UNL     1      23.929   4.106  51.025  1.00  0.00     0.054 C 
HETATM    4  C8  UNL     1      22.598   4.334  50.766  1.00  0.00     0.124 C 
HETATM    5  N3  UNL     1      21.685   3.419  51.124  1.00  0.00    -0.242 NA
HETATM    6  C10 UNL     1      20.850   3.666  52.148  1.00  0.00     0.138 C 
HETATM    7  C11 UNL     1      21.083   2.315  52.429  1.00  0.00     0.137 C 
HETATM    8  N4  UNL     1      21.780   1.181  52.672  1.00  0.00    -0.253 NA
HETATM    9  C12 UNL     1      23.097   1.049  52.398  1.00  0.00     0.234 C 
HETATM   10  N5  UNL     1      23.723   2.044  53.027  1.00  0.00    -0.225 NA
ENDROOT
BRANCH   1  11
HETATM   11  N1  UNL     1      26.058   2.471  53.565  1.00  0.00    -0.341 N 
HETATM   12  H3  UNL     1      26.112   3.226  54.254  1.00  0.00     0.167 HD
BRANCH  11  13
HETATM   13  C4  UNL     1      27.063   1.476  53.528  1.00  0.00     0.035 A 
HETATM   14  C3  UNL     1      28.381   1.639  53.869  1.00  0.00     0.032 A 
HETATM   15  C2  UNL     1      29.331   0.649  53.817  1.00  0.00     0.046 A 
HETATM   16  C1  UNL     1      28.932  -0.612  53.390  1.00  0.00     0.138 A 
HETATM   17  F1  UNL     1      29.795  -1.649  53.307  1.00  0.00    -0.204 F 
HETATM   18  C14 UNL     1      27.620  -0.831  53.036  1.00  0.00     0.074 A 
HETATM   19  C13 UNL     1      26.734   0.194  53.111  1.00  0.00     0.056 A 
HETATM   20 CL2  UNL     1      27.127  -2.433  52.497  1.00  0.00    -0.081 Cl
ENDBRANCH  11  13
ENDBRANCH   1  11
BRANCH   4  21
HETATM   21  N2  UNL     1      22.277   5.548  50.124  1.00  0.00    -0.362 N 
HETATM   22  H6  UNL     1      21.246   5.760  50.013  1.00  0.00     0.162 HD
BRANCH  21  23
HETATM   23  C9  UNL     1      23.259   6.485  49.626  1.00  0.00     0.237 C 
HETATM   24 CL1  UNL     1      23.692   7.728  50.835  1.00  0.00    -0.109 Cl
ENDBRANCH  21  23
ENDBRANCH   4  21
TORSDOF 4
ENDMDL
MODEL 8
REMARK VINA RESULT:      -6.6      4.254      7.328
REMARK  4 active torsions:
REMARK  status: ('A' for Active; 'I' for Inactive)
REMARK    1  A    between atoms: C4_5  and  N1_6 
REMARK    2  A    between atoms: N1_6  and  C5_7 
REMARK    3  A    between atoms: C8_10  and  N2_11 
REMARK    4  A    between atoms: N2_11  and  C9_12 
ROOT
HETATM    1  C5  UNL     1      26.365   4.912  49.700  1.00  0.00     0.129 C 
HETATM    2  C6  UNL     1      27.256   4.752  48.670  1.00  0.00     0.054 C 
HETATM    3  C7  UNL     1      28.507   5.276  48.441  1.00  0.00     0.054 C 
HETATM    4  C8  UNL     1      28.999   6.452  47.928  1.00  0.00     0.124 C 
HETATM    5  N3  UNL     1      28.165   7.477  47.696  1.00  0.00    -0.242 NA
HETATM    6  C10 UNL     1      28.207   8.569  48.480  1.00  0.00     0.138 C 
HETATM    7  C11 UNL     1      26.815   8.502  48.339  1.00  0.00     0.137 C 
HETATM    8  N4  UNL     1      25.572   7.971  48.362  1.00  0.00    -0.253 NA
HETATM    9  C12 UNL     1      25.335   6.642  48.424  1.00  0.00     0.234 C 
HETATM   10  N5  UNL     1      25.984   6.185  49.495  1.00  0.00    -0.225 NA
ENDROOT
BRANCH   1  11
HETATM   11  N1  UNL     1      25.872   4.102  50.751  1.00  0.00    -0.341 N 
HETATM   12  H3  UNL     1      26.387   4.189  51.631  1.00  0.00     0.167 HD
BRANCH  11  13
HETATM   13  C4  UNL     1      24.766   3.225  50.665  1.00  0.00     0.035 A 
HETATM   14  C3  UNL     1      23.813   3.213  49.680  1.00  0.00     0.032 A 
HETATM   15  C2  UNL     1      22.749   2.347  49.631  1.00  0.00     0.046 A 
HETATM   16  C1  UNL     1      22.625   1.412  50.652  1.00  0.00     0.138 A 
HETATM   17  F1  UNL     1      21.611   0.518  50.688  1.00  0.00    -0.204 F 
HETATM   18  C14 UNL     1      23.554   1.379  51.666  1.00  0.00     0.074 A 
HETATM   19  C13 UNL     1      24.581   2.267  51.651  1.00  0.00     0.056 A 
HETATM   20 CL2  UNL     1      23.387   0.190  52.953  1.00  0.00    -0.081 Cl
ENDBRANCH  11  13
ENDBRANCH   1  11
BRANCH   4  21
HETATM   21  N2  UNL     1      30.385   6.501  47.673  1.00  0.00    -0.362 N 
HETATM   22  H6  UNL     1      30.689   7.089  46.846  1.00  0.00     0.162 HD
BRANCH  21  23
HETATM   23  C9  UNL     1      31.379   5.806  48.461  1.00  0.00     0.237 C 
HETATM   24 CL1  UNL     1      31.972   4.324  47.659  1.00  0.00    -0.109 Cl
ENDBRANCH  21  23
ENDBRANCH   4  21
TORSDOF 4
ENDMDL
MODEL 9
REMARK VINA RESULT:      -6.6      3.201      4.257
REMARK  4 active torsions:
REMARK  status: ('A' for Active; 'I' for Inactive)
REMARK    1  A    between atoms: C4_5  and  N1_6 
REMARK    2  A    between atoms: N1_6  and  C5_7 
REMARK    3  A    between atoms: C8_10  and  N2_11 
REMARK    4  A    between atoms: N2_11  and  C9_12 
ROOT
HETATM    1  C5  UNL     1      25.561   2.382  52.033  1.00  0.00     0.129 C 
HETATM    2  C6  UNL     1      24.913   1.175  51.981  1.00  0.00     0.054 C 
HETATM    3  C7  UNL     1      24.217   0.458  52.925  1.00  0.00     0.054 C 
HETATM    4  C8  UNL     1      24.548  -0.409  53.939  1.00  0.00     0.124 C 
HETATM    5  N3  UNL     1      25.833  -0.560  54.292  1.00  0.00    -0.242 NA
HETATM    6  C10 UNL     1      26.273  -0.065  55.461  1.00  0.00     0.138 C 
HETATM    7  C11 UNL     1      27.397   0.264  54.694  1.00  0.00     0.137 C 
HETATM    8  N4  UNL     1      28.117   0.789  53.677  1.00  0.00    -0.253 NA
HETATM    9  C12 UNL     1      27.566   1.187  52.509  1.00  0.00     0.234 C 
HETATM   10  N5  UNL     1      26.608   2.062  52.812  1.00  0.00    -0.225 NA
ENDROOT
BRANCH   1  11
HETATM   11  N1  UNL     1      25.344   3.675  51.499  1.00  0.00    -0.341 N 
HETATM   12  H3  UNL     1      26.039   4.372  51.779  1.00  0.00     0.167 HD
BRANCH  11  13
HETATM   13  C4  UNL     1      24.279   4.045  50.644  1.00  0.00     0.035 A 
HETATM   14  C3  UNL     1      24.375   4.344  49.309  1.00  0.00     0.032 A 
HETATM   15  C2  UNL     1      23.318   4.703  48.510  1.00  0.00     0.046 A 
HETATM   16  C1  UNL     1      22.057   4.769  49.091  1.00  0.00     0.138 A 
HETATM   17  F1  UNL     1      20.957   5.112  48.384  1.00  0.00    -0.204 F 
HETATM   18  C14 UNL     1      21.904   4.478  50.428  1.00  0.00     0.074 A 
HETATM   19  C13 UNL     1      22.994   4.131  51.158  1.00  0.00     0.056 A 
HETATM   20 CL2  UNL     1      20.302   4.565  51.152  1.00  0.00    -0.081 Cl
ENDBRANCH  11  13
ENDBRANCH   1  11
BRANCH   4  21
HETATM   21  N2  UNL     1      23.483  -1.100  54.555  1.00  0.00    -0.362 N 
HETATM   22  H6  UNL     1      23.714  -1.611  55.452  1.00  0.00     0.162 HD
BRANCH  21  23
HETATM   23  C9  UNL     1      22.135  -1.141  54.033  1.00  0.00     0.237 C 
HETATM   24 CL1  UNL     1      21.071   0.077  54.795  1.00  0.00    -0.109 Cl
ENDBRANCH  21  23
ENDBRANCH   4  21
TORSDOF 4
ENDMDL
