MODEL 1
REMARK VINA RESULT:      -7.4      0.000      0.000
REMARK  7 active torsions:
REMARK  status: ('A' for Active; 'I' for Inactive)
REMARK    1  A    between atoms: O1_1  and  N1_2 
REMARK    2  A    between atoms: N1_2  and  C1_3 
REMARK    3  A    between atoms: C1_3  and  C2_4 
REMARK    4  A    between atoms: C6_10  and  O2_11 
REMARK    5  A    between atoms: O2_11  and  N4_12 
REMARK    6  A    between atoms: N4_12  and  C7_13 
REMARK    7  A    between atoms: C7_13  and  C8_14 
ROOT
HETATM    1  C2  UNL     1      23.880   2.754  52.876  1.00  0.00     0.004 C 
HETATM    2  C3  UNL     1      24.925   2.101  53.358  1.00  0.00     0.008 A 
HETATM    3  C4  UNL     1      26.357   2.053  53.624  1.00  0.00     0.084 A 
HETATM    4  N2  UNL     1      27.698   2.036  53.861  1.00  0.00    -0.240 NA
HETATM    5  C5  UNL     1      28.205   0.932  54.459  1.00  0.00     0.236 A 
HETATM    6  N3  UNL     1      27.509  -0.152  54.841  1.00  0.00    -0.216 NA
HETATM    7  C6  UNL     1      26.182  -0.160  54.619  1.00  0.00     0.199 A 
HETATM    8  C14 UNL     1      25.603   0.956  54.003  1.00  0.00     0.060 A 
ENDROOT
BRANCH   7   9
HETATM    9  O2  UNL     1      25.315  -1.170  54.939  1.00  0.00    -0.243 OA
BRANCH   9  10
HETATM   10  N4  UNL     1      24.270  -1.113  55.815  1.00  0.00    -0.194 NA
HETATM   11  H7  UNL     1      24.005  -0.107  55.895  1.00  0.00     0.154 HD
BRANCH  10  12
HETATM   12  C7  UNL     1      23.083  -1.808  55.379  1.00  0.00     0.156 C 
BRANCH  12  13
HETATM   13  C8  UNL     1      22.342  -0.973  54.363  1.00  0.00    -0.043 A 
HETATM   14  C9  UNL     1      22.603  -1.025  53.009  1.00  0.00     0.008 A 
HETATM   15  C10 UNL     1      21.844  -0.203  52.196  1.00  0.00     0.001 A 
HETATM   16  C11 UNL     1      20.866   0.643  52.668  1.00  0.00     0.000 A 
HETATM   17  C12 UNL     1      20.660   0.640  54.039  1.00  0.00     0.001 A 
HETATM   18  C13 UNL     1      21.366  -0.142  54.918  1.00  0.00     0.008 A 
ENDBRANCH  12  13
ENDBRANCH  10  12
ENDBRANCH   9  10
ENDBRANCH   7   9
BRANCH   1  19
HETATM   19  C1  UNL     1      24.081   4.102  52.287  1.00  0.00     0.145 C 
BRANCH  19  20
HETATM   20  N1  UNL     1      23.856   5.148  53.275  1.00  0.00    -0.205 NA
HETATM   21  H2  UNL     1      24.237   4.914  54.196  1.00  0.00     0.153 HD
BRANCH  20  22
HETATM   22  O1  UNL     1      24.292   6.336  52.796  1.00  0.00    -0.315 OA
HETATM   23  H1  UNL     1      24.811   6.858  53.485  1.00  0.00     0.236 HD
ENDBRANCH  20  22
ENDBRANCH  19  20
ENDBRANCH   1  19
TORSDOF 7
ENDMDL
MODEL 2
REMARK VINA RESULT:      -7.3      2.243      6.168
REMARK  7 active torsions:
REMARK  status: ('A' for Active; 'I' for Inactive)
REMARK    1  A    between atoms: O1_1  and  N1_2 
REMARK    2  A    between atoms: N1_2  and  C1_3 
REMARK    3  A    between atoms: C1_3  and  C2_4 
REMARK    4  A    between atoms: C6_10  and  O2_11 
REMARK    5  A    between atoms: O2_11  and  N4_12 
REMARK    6  A    between atoms: N4_12  and  C7_13 
REMARK    7  A    between atoms: C7_13  and  C8_14 
ROOT
HETATM    1  C2  UNL     1      23.446  -0.274  53.787  1.00  0.00     0.004 C 
HETATM    2  C3  UNL     1      23.635   0.844  53.105  1.00  0.00     0.008 A 
HETATM    3  C4  UNL     1      23.100   2.092  52.575  1.00  0.00     0.084 A 
HETATM    4  N2  UNL     1      22.573   3.252  52.094  1.00  0.00    -0.240 NA
HETATM    5  C5  UNL     1      23.400   4.058  51.386  1.00  0.00     0.236 A 
HETATM    6  N3  UNL     1      24.694   3.821  51.113  1.00  0.00    -0.216 NA
HETATM    7  C6  UNL     1      25.239   2.682  51.579  1.00  0.00     0.199 A 
HETATM    8  C14 UNL     1      24.430   1.810  52.318  1.00  0.00     0.060 A 
ENDROOT
BRANCH   7   9
HETATM    9  O2  UNL     1      26.534   2.274  51.402  1.00  0.00    -0.243 OA
BRANCH   9  10
HETATM   10  N4  UNL     1      27.622   2.643  52.140  1.00  0.00    -0.194 NA
HETATM   11  H7  UNL     1      27.549   3.674  52.280  1.00  0.00     0.154 HD
BRANCH  10  12
HETATM   12  C7  UNL     1      27.677   2.061  53.459  1.00  0.00     0.156 C 
BRANCH  12  13
HETATM   13  C8  UNL     1      28.147   0.629  53.372  1.00  0.00    -0.043 A 
HETATM   14  C9  UNL     1      27.313  -0.421  53.047  1.00  0.00     0.008 A 
HETATM   15  C10 UNL     1      27.884  -1.679  53.005  1.00  0.00     0.001 A 
HETATM   16  C11 UNL     1      29.214  -1.922  53.266  1.00  0.00     0.000 A 
HETATM   17  C12 UNL     1      29.990  -0.818  53.585  1.00  0.00     0.001 A 
HETATM   18  C13 UNL     1      29.506   0.463  53.649  1.00  0.00     0.008 A 
ENDBRANCH  12  13
ENDBRANCH  10  12
ENDBRANCH   9  10
ENDBRANCH   7   9
BRANCH   1  19
HETATM   19  C1  UNL     1      22.105  -0.552  54.361  1.00  0.00     0.145 C 
BRANCH  19  20
HETATM   20  N1  UNL     1      22.083  -1.835  55.050  1.00  0.00    -0.205 NA
HETATM   21  H2  UNL     1      22.077  -2.632  54.408  1.00  0.00     0.153 HD
BRANCH  20  22
HETATM   22  O1  UNL     1      23.082  -1.884  55.962  1.00  0.00    -0.315 OA
HETATM   23  H1  UNL     1      22.849  -1.390  56.810  1.00  0.00     0.236 HD
ENDBRANCH  20  22
ENDBRANCH  19  20
ENDBRANCH   1  19
TORSDOF 7
ENDMDL
MODEL 3
REMARK VINA RESULT:      -7.2      1.569      1.840
REMARK  7 active torsions:
REMARK  status: ('A' for Active; 'I' for Inactive)
REMARK    1  A    between atoms: O1_1  and  N1_2 
REMARK    2  A    between atoms: N1_2  and  C1_3 
REMARK    3  A    between atoms: C1_3  and  C2_4 
REMARK    4  A    between atoms: C6_10  and  O2_11 
REMARK    5  A    between atoms: O2_11  and  N4_12 
REMARK    6  A    between atoms: N4_12  and  C7_13 
REMARK    7  A    between atoms: C7_13  and  C8_14 
ROOT
HETATM    1  C2  UNL     1      25.206   2.311  51.565  1.00  0.00     0.004 C 
HETATM    2  C3  UNL     1      26.171   1.981  52.408  1.00  0.00     0.008 A 
HETATM    3  C4  UNL     1      27.551   2.130  52.850  1.00  0.00     0.084 A 
HETATM    4  N2  UNL     1      28.846   2.291  53.242  1.00  0.00    -0.240 NA
HETATM    5  C5  UNL     1      29.261   1.571  54.311  1.00  0.00     0.236 A 
HETATM    6  N3  UNL     1      28.515   0.711  55.024  1.00  0.00    -0.216 NA
HETATM    7  C6  UNL     1      27.232   0.535  54.659  1.00  0.00     0.199 A 
HETATM    8  C14 UNL     1      26.748   1.254  53.559  1.00  0.00     0.060 A 
ENDROOT
BRANCH   7   9
HETATM    9  O2  UNL     1      26.326  -0.295  55.262  1.00  0.00    -0.243 OA
BRANCH   9  10
HETATM   10  N4  UNL     1      25.407  -1.098  54.649  1.00  0.00    -0.194 NA
HETATM   11  H7  UNL     1      25.838  -2.046  54.585  1.00  0.00     0.154 HD
BRANCH  10  12
HETATM   12  C7  UNL     1      24.174  -1.264  55.379  1.00  0.00     0.156 C 
BRANCH  12  13
HETATM   13  C8  UNL     1      23.002  -0.895  54.503  1.00  0.00    -0.043 A 
HETATM   14  C9  UNL     1      21.692  -1.170  54.840  1.00  0.00     0.008 A 
HETATM   15  C10 UNL     1      20.721  -0.773  53.939  1.00  0.00     0.001 A 
HETATM   16  C11 UNL     1      20.999  -0.132  52.752  1.00  0.00     0.000 A 
HETATM   17  C12 UNL     1      22.337   0.111  52.483  1.00  0.00     0.001 A 
HETATM   18  C13 UNL     1      23.363  -0.248  53.319  1.00  0.00     0.008 A 
ENDBRANCH  12  13
ENDBRANCH  10  12
ENDBRANCH   9  10
ENDBRANCH   7   9
BRANCH   1  19
HETATM   19  C1  UNL     1      25.491   3.296  50.491  1.00  0.00     0.145 C 
BRANCH  19  20
HETATM   20  N1  UNL     1      25.194   4.653  50.928  1.00  0.00    -0.205 NA
HETATM   21  H2  UNL     1      25.204   4.754  51.947  1.00  0.00     0.153 HD
BRANCH  20  22
HETATM   22  O1  UNL     1      26.005   5.530  50.291  1.00  0.00    -0.315 OA
HETATM   23  H1  UNL     1      26.681   5.066  49.703  1.00  0.00     0.236 HD
ENDBRANCH  20  22
ENDBRANCH  19  20
ENDBRANCH   1  19
TORSDOF 7
ENDMDL
MODEL 4
REMARK VINA RESULT:      -7.0      3.379      6.429
REMARK  7 active torsions:
REMARK  status: ('A' for Active; 'I' for Inactive)
REMARK    1  A    between atoms: O1_1  and  N1_2 
REMARK    2  A    between atoms: N1_2  and  C1_3 
REMARK    3  A    between atoms: C1_3  and  C2_4 
REMARK    4  A    between atoms: C6_10  and  O2_11 
REMARK    5  A    between atoms: O2_11  and  N4_12 
REMARK    6  A    between atoms: N4_12  and  C7_13 
REMARK    7  A    between atoms: C7_13  and  C8_14 
ROOT
HETATM    1  C2  UNL     1      23.883   0.164  53.340  1.00  0.00     0.004 C 
HETATM    2  C3  UNL     1      25.179   0.373  53.510  1.00  0.00     0.008 A 
HETATM    3  C4  UNL     1      26.411   0.072  54.229  1.00  0.00     0.084 A 
HETATM    4  N2  UNL     1      27.547  -0.229  54.916  1.00  0.00    -0.240 NA
HETATM    5  C5  UNL     1      28.680   0.417  54.550  1.00  0.00     0.236 A 
HETATM    6  N3  UNL     1      28.789   1.329  53.569  1.00  0.00    -0.216 NA
HETATM    7  C6  UNL     1      27.681   1.644  52.874  1.00  0.00     0.199 A 
HETATM    8  C14 UNL     1      26.480   1.007  53.210  1.00  0.00     0.060 A 
ENDROOT
BRANCH   7   9
HETATM    9  O2  UNL     1      27.600   2.545  51.847  1.00  0.00    -0.243 OA
BRANCH   9  10
HETATM   10  N4  UNL     1      26.474   3.153  51.370  1.00  0.00    -0.194 NA
HETATM   11  H7  UNL     1      26.546   4.159  51.635  1.00  0.00     0.154 HD
BRANCH  10  12
HETATM   12  C7  UNL     1      26.340   3.124  49.934  1.00  0.00     0.156 C 
BRANCH  12  13
HETATM   13  C8  UNL     1      26.649   4.485  49.360  1.00  0.00    -0.043 A 
HETATM   14  C9  UNL     1      27.797   4.760  48.645  1.00  0.00     0.008 A 
HETATM   15  C10 UNL     1      27.946   6.053  48.179  1.00  0.00     0.001 A 
HETATM   16  C11 UNL     1      27.023   7.052  48.394  1.00  0.00     0.000 A 
HETATM   17  C12 UNL     1      25.895   6.701  49.121  1.00  0.00     0.001 A 
HETATM   18  C13 UNL     1      25.667   5.444  49.619  1.00  0.00     0.008 A 
ENDBRANCH  12  13
ENDBRANCH  10  12
ENDBRANCH   9  10
ENDBRANCH   7   9
BRANCH   1  19
HETATM   19  C1  UNL     1      23.189  -0.815  54.214  1.00  0.00     0.145 C 
BRANCH  19  20
HETATM   20  N1  UNL     1      21.792  -0.966  53.829  1.00  0.00    -0.205 NA
HETATM   21  H2  UNL     1      21.672  -1.528  52.982  1.00  0.00     0.153 HD
BRANCH  20  22
HETATM   22  O1  UNL     1      21.070  -1.416  54.882  1.00  0.00    -0.315 OA
HETATM   23  H1  UNL     1      21.490  -2.224  55.315  1.00  0.00     0.236 HD
ENDBRANCH  20  22
ENDBRANCH  19  20
ENDBRANCH   1  19
TORSDOF 7
ENDMDL
MODEL 5
REMARK VINA RESULT:      -7.0      2.373      4.572
REMARK  7 active torsions:
REMARK  status: ('A' for Active; 'I' for Inactive)
REMARK    1  A    between atoms: O1_1  and  N1_2 
REMARK    2  A    between atoms: N1_2  and  C1_3 
REMARK    3  A    between atoms: C1_3  and  C2_4 
REMARK    4  A    between atoms: C6_10  and  O2_11 
REMARK    5  A    between atoms: O2_11  and  N4_12 
REMARK    6  A    between atoms: N4_12  and  C7_13 
REMARK    7  A    between atoms: C7_13  and  C8_14 
ROOT
HETATM    1  C2  UNL     1      23.262  -0.463  53.767  1.00  0.00     0.004 C 
HETATM    2  C3  UNL     1      24.556  -0.188  53.790  1.00  0.00     0.008 A 
HETATM    3  C4  UNL     1      25.845  -0.289  54.463  1.00  0.00     0.084 A 
HETATM    4  N2  UNL     1      27.037  -0.401  55.112  1.00  0.00    -0.240 NA
HETATM    5  C5  UNL     1      28.114   0.177  54.530  1.00  0.00     0.236 A 
HETATM    6  N3  UNL     1      28.119   0.853  53.368  1.00  0.00    -0.216 NA
HETATM    7  C6  UNL     1      26.954   0.976  52.706  1.00  0.00     0.199 A 
HETATM    8  C14 UNL     1      25.806   0.398  53.262  1.00  0.00     0.060 A 
ENDROOT
BRANCH   7   9
HETATM    9  O2  UNL     1      26.767   1.626  51.515  1.00  0.00    -0.243 OA
BRANCH   9  10
HETATM   10  N4  UNL     1      26.874   2.967  51.282  1.00  0.00    -0.194 NA
HETATM   11  H7  UNL     1      27.778   3.109  50.781  1.00  0.00     0.154 HD
BRANCH  10  12
HETATM   12  C7  UNL     1      25.849   3.510  50.425  1.00  0.00     0.156 C 
BRANCH  12  13
HETATM   13  C8  UNL     1      24.486   3.098  50.926  1.00  0.00    -0.043 A 
HETATM   14  C9  UNL     1      23.650   2.251  50.228  1.00  0.00     0.008 A 
HETATM   15  C10 UNL     1      22.430   1.960  50.811  1.00  0.00     0.001 A 
HETATM   16  C11 UNL     1      22.025   2.468  52.025  1.00  0.00     0.000 A 
HETATM   17  C12 UNL     1      22.918   3.312  52.667  1.00  0.00     0.001 A 
HETATM   18  C13 UNL     1      24.147   3.652  52.163  1.00  0.00     0.008 A 
ENDBRANCH  12  13
ENDBRANCH  10  12
ENDBRANCH   9  10
ENDBRANCH   7   9
BRANCH   1  19
HETATM   19  C1  UNL     1      22.670  -1.242  54.883  1.00  0.00     0.145 C 
BRANCH  19  20
HETATM   20  N1  UNL     1      21.216  -1.146  54.879  1.00  0.00    -0.205 NA
HETATM   21  H2  UNL     1      20.775  -1.763  55.566  1.00  0.00     0.153 HD
BRANCH  20  22
HETATM   22  O1  UNL     1      20.840   0.148  54.994  1.00  0.00    -0.315 OA
HETATM   23  H1  UNL     1      21.487   0.685  55.551  1.00  0.00     0.236 HD
ENDBRANCH  20  22
ENDBRANCH  19  20
ENDBRANCH   1  19
TORSDOF 7
ENDMDL
MODEL 6
REMARK VINA RESULT:      -6.8      3.311      7.055
REMARK  7 active torsions:
REMARK  status: ('A' for Active; 'I' for Inactive)
REMARK    1  A    between atoms: O1_1  and  N1_2 
REMARK    2  A    between atoms: N1_2  and  C1_3 
REMARK    3  A    between atoms: C1_3  and  C2_4 
REMARK    4  A    between atoms: C6_10  and  O2_11 
REMARK    5  A    between atoms: O2_11  and  N4_12 
REMARK    6  A    between atoms: N4_12  and  C7_13 
REMARK    7  A    between atoms: C7_13  and  C8_14 
ROOT
HETATM    1  C2  UNL     1      27.539  -0.165  52.649  1.00  0.00     0.004 C 
HETATM    2  C3  UNL     1      26.237   0.019  52.796  1.00  0.00     0.008 A 
HETATM    3  C4  UNL     1      24.974  -0.395  53.396  1.00  0.00     0.084 A 
HETATM    4  N2  UNL     1      23.809  -0.803  53.971  1.00  0.00    -0.240 NA
HETATM    5  C5  UNL     1      22.693  -0.097  53.673  1.00  0.00     0.236 A 
HETATM    6  N3  UNL     1      22.625   0.971  52.861  1.00  0.00    -0.216 NA
HETATM    7  C6  UNL     1      23.763   1.396  52.281  1.00  0.00     0.199 A 
HETATM    8  C14 UNL     1      24.949   0.703  52.553  1.00  0.00     0.060 A 
ENDROOT
BRANCH   7   9
HETATM    9  O2  UNL     1      23.887   2.461  51.430  1.00  0.00    -0.243 OA
BRANCH   9  10
HETATM   10  N4  UNL     1      24.850   3.429  51.456  1.00  0.00    -0.194 NA
HETATM   11  H7  UNL     1      25.666   3.047  50.930  1.00  0.00     0.154 HD
BRANCH  10  12
HETATM   12  C7  UNL     1      24.483   4.657  50.794  1.00  0.00     0.156 C 
BRANCH  12  13
HETATM   13  C8  UNL     1      25.626   5.141  49.935  1.00  0.00    -0.043 A 
HETATM   14  C9  UNL     1      25.796   6.463  49.580  1.00  0.00     0.008 A 
HETATM   15  C10 UNL     1      26.890   6.760  48.788  1.00  0.00     0.001 A 
HETATM   16  C11 UNL     1      27.792   5.816  48.349  1.00  0.00     0.000 A 
HETATM   17  C12 UNL     1      27.556   4.509  48.746  1.00  0.00     0.001 A 
HETATM   18  C13 UNL     1      26.497   4.126  49.530  1.00  0.00     0.008 A 
ENDBRANCH  12  13
ENDBRANCH  10  12
ENDBRANCH   9  10
ENDBRANCH   7   9
BRANCH   1  19
HETATM   19  C1  UNL     1      28.196  -1.285  53.369  1.00  0.00     0.145 C 
BRANCH  19  20
HETATM   20  N1  UNL     1      27.679  -2.572  52.923  1.00  0.00    -0.205 NA
HETATM   21  H2  UNL     1      27.491  -2.599  51.918  1.00  0.00     0.153 HD
BRANCH  20  22
HETATM   22  O1  UNL     1      28.492  -3.567  53.349  1.00  0.00    -0.315 OA
HETATM   23  H1  UNL     1      29.463  -3.295  53.342  1.00  0.00     0.236 HD
ENDBRANCH  20  22
ENDBRANCH  19  20
ENDBRANCH   1  19
TORSDOF 7
ENDMDL
MODEL 7
REMARK VINA RESULT:      -6.7      2.348      4.489
REMARK  7 active torsions:
REMARK  status: ('A' for Active; 'I' for Inactive)
REMARK    1  A    between atoms: O1_1  and  N1_2 
REMARK    2  A    between atoms: N1_2  and  C1_3 
REMARK    3  A    between atoms: C1_3  and  C2_4 
REMARK    4  A    between atoms: C6_10  and  O2_11 
REMARK    5  A    between atoms: O2_11  and  N4_12 
REMARK    6  A    between atoms: N4_12  and  C7_13 
REMARK    7  A    between atoms: C7_13  and  C8_14 
ROOT
HETATM    1  C2  UNL     1      26.090   0.865  52.272  1.00  0.00     0.004 C 
HETATM    2  C3  UNL     1      25.276   0.231  53.100  1.00  0.00     0.008 A 
HETATM    3  C4  UNL     1      25.075  -0.479  54.357  1.00  0.00     0.084 A 
HETATM    4  N2  UNL     1      24.916  -1.138  55.538  1.00  0.00    -0.240 NA
HETATM    5  C5  UNL     1      23.675  -1.594  55.828  1.00  0.00     0.236 A 
HETATM    6  N3  UNL     1      22.581  -1.458  55.059  1.00  0.00    -0.216 NA
HETATM    7  C6  UNL     1      22.711  -0.809  53.887  1.00  0.00     0.199 A 
HETATM    8  C14 UNL     1      23.973  -0.316  53.535  1.00  0.00     0.060 A 
ENDROOT
BRANCH   7   9
HETATM    9  O2  UNL     1      21.715  -0.576  52.979  1.00  0.00    -0.243 OA
BRANCH   9  10
HETATM   10  N4  UNL     1      21.143   0.626  52.673  1.00  0.00    -0.194 NA
HETATM   11  H7  UNL     1      21.599   1.335  53.288  1.00  0.00     0.154 HD
BRANCH  10  12
HETATM   12  C7  UNL     1      21.364   1.068  51.318  1.00  0.00     0.156 C 
BRANCH  12  13
HETATM   13  C8  UNL     1      22.450   2.116  51.288  1.00  0.00    -0.043 A 
HETATM   14  C9  UNL     1      22.734   2.938  52.359  1.00  0.00     0.008 A 
HETATM   15  C10 UNL     1      23.757   3.852  52.188  1.00  0.00     0.001 A 
HETATM   16  C11 UNL     1      24.483   3.975  51.024  1.00  0.00     0.000 A 
HETATM   17  C12 UNL     1      24.141   3.115  49.992  1.00  0.00     0.001 A 
HETATM   18  C13 UNL     1      23.142   2.179  50.076  1.00  0.00     0.008 A 
ENDBRANCH  12  13
ENDBRANCH  10  12
ENDBRANCH   9  10
ENDBRANCH   7   9
BRANCH   1  19
HETATM   19  C1  UNL     1      27.519   1.020  52.641  1.00  0.00     0.145 C 
BRANCH  19  20
HETATM   20  N1  UNL     1      27.887   2.426  52.740  1.00  0.00    -0.205 NA
HETATM   21  H2  UNL     1      27.304   3.032  52.158  1.00  0.00     0.153 HD
BRANCH  20  22
HETATM   22  O1  UNL     1      27.927   2.801  54.040  1.00  0.00    -0.315 OA
HETATM   23  H1  UNL     1      27.239   2.318  54.597  1.00  0.00     0.236 HD
ENDBRANCH  20  22
ENDBRANCH  19  20
ENDBRANCH   1  19
TORSDOF 7
ENDMDL
MODEL 8
REMARK VINA RESULT:      -6.6      2.844      4.849
REMARK  7 active torsions:
REMARK  status: ('A' for Active; 'I' for Inactive)
REMARK    1  A    between atoms: O1_1  and  N1_2 
REMARK    2  A    between atoms: N1_2  and  C1_3 
REMARK    3  A    between atoms: C1_3  and  C2_4 
REMARK    4  A    between atoms: C6_10  and  O2_11 
REMARK    5  A    between atoms: O2_11  and  N4_12 
REMARK    6  A    between atoms: N4_12  and  C7_13 
REMARK    7  A    between atoms: C7_13  and  C8_14 
ROOT
HETATM    1  C2  UNL     1      22.699  -0.243  54.012  1.00  0.00     0.004 C 
HETATM    2  C3  UNL     1      23.979  -0.129  53.699  1.00  0.00     0.008 A 
HETATM    3  C4  UNL     1      25.321  -0.699  53.692  1.00  0.00     0.084 A 
HETATM    4  N2  UNL     1      26.564  -1.256  53.696  1.00  0.00    -0.240 NA
HETATM    5  C5  UNL     1      27.569  -0.527  53.157  1.00  0.00     0.236 A 
HETATM    6  N3  UNL     1      27.457   0.697  52.614  1.00  0.00    -0.216 NA
HETATM    7  C6  UNL     1      26.239   1.269  52.595  1.00  0.00     0.199 A 
HETATM    8  C14 UNL     1      25.161   0.562  53.141  1.00  0.00     0.060 A 
ENDROOT
BRANCH   7   9
HETATM    9  O2  UNL     1      25.934   2.503  52.087  1.00  0.00    -0.243 OA
BRANCH   9  10
HETATM   10  N4  UNL     1      24.689   3.017  51.861  1.00  0.00    -0.194 NA
HETATM   11  H7  UNL     1      24.599   3.854  52.477  1.00  0.00     0.154 HD
BRANCH  10  12
HETATM   12  C7  UNL     1      24.469   3.483  50.514  1.00  0.00     0.156 C 
BRANCH  12  13
HETATM   13  C8  UNL     1      23.385   2.664  49.856  1.00  0.00    -0.043 A 
HETATM   14  C9  UNL     1      23.061   2.776  48.519  1.00  0.00     0.008 A 
HETATM   15  C10 UNL     1      22.046   1.961  48.054  1.00  0.00     0.001 A 
HETATM   16  C11 UNL     1      21.362   1.067  48.847  1.00  0.00     0.000 A 
HETATM   17  C12 UNL     1      21.743   1.010  50.179  1.00  0.00     0.001 A 
HETATM   18  C13 UNL     1      22.738   1.781  50.724  1.00  0.00     0.008 A 
ENDBRANCH  12  13
ENDBRANCH  10  12
ENDBRANCH   9  10
ENDBRANCH   7   9
BRANCH   1  19
HETATM   19  C1  UNL     1      22.226  -1.482  54.680  1.00  0.00     0.145 C 
BRANCH  19  20
HETATM   20  N1  UNL     1      20.771  -1.542  54.710  1.00  0.00    -0.205 NA
HETATM   21  H2  UNL     1      20.412  -2.119  55.474  1.00  0.00     0.153 HD
BRANCH  20  22
HETATM   22  O1  UNL     1      20.258  -0.289  54.692  1.00  0.00    -0.315 OA
HETATM   23  H1  UNL     1      19.712  -0.089  55.515  1.00  0.00     0.236 HD
ENDBRANCH  20  22
ENDBRANCH  19  20
ENDBRANCH   1  19
TORSDOF 7
ENDMDL
MODEL 9
REMARK VINA RESULT:      -6.6      3.147      6.130
REMARK  7 active torsions:
REMARK  status: ('A' for Active; 'I' for Inactive)
REMARK    1  A    between atoms: O1_1  and  N1_2 
REMARK    2  A    between atoms: N1_2  and  C1_3 
REMARK    3  A    between atoms: C1_3  and  C2_4 
REMARK    4  A    between atoms: C6_10  and  O2_11 
REMARK    5  A    between atoms: O2_11  and  N4_12 
REMARK    6  A    between atoms: N4_12  and  C7_13 
REMARK    7  A    between atoms: C7_13  and  C8_14 
ROOT
HETATM    1  C2  UNL     1      27.034   2.024  52.590  1.00  0.00     0.004 C 
HETATM    2  C3  UNL     1      25.855   1.450  52.766  1.00  0.00     0.008 A 
HETATM    3  C4  UNL     1      25.054   0.399  53.382  1.00  0.00     0.084 A 
HETATM    4  N2  UNL     1      24.331  -0.593  53.971  1.00  0.00    -0.240 NA
HETATM    5  C5  UNL     1      23.003  -0.628  53.709  1.00  0.00     0.236 A 
HETATM    6  N3  UNL     1      22.329   0.226  52.920  1.00  0.00    -0.216 NA
HETATM    7  C6  UNL     1      23.020   1.216  52.327  1.00  0.00     0.199 A 
HETATM    8  C14 UNL     1      24.398   1.301  52.562  1.00  0.00     0.060 A 
ENDROOT
BRANCH   7   9
HETATM    9  O2  UNL     1      22.507   2.174  51.494  1.00  0.00    -0.243 OA
BRANCH   9  10
HETATM   10  N4  UNL     1      23.138   3.297  51.042  1.00  0.00    -0.194 NA
HETATM   11  H7  UNL     1      24.074   3.316  51.503  1.00  0.00     0.154 HD
BRANCH  10  12
HETATM   12  C7  UNL     1      23.390   3.311  49.621  1.00  0.00     0.156 C 
BRANCH  12  13
HETATM   13  C8  UNL     1      24.672   4.053  49.332  1.00  0.00    -0.043 A 
HETATM   14  C9  UNL     1      25.921   3.481  49.463  1.00  0.00     0.008 A 
HETATM   15  C10 UNL     1      27.008   4.282  49.163  1.00  0.00     0.001 A 
HETATM   16  C11 UNL     1      26.899   5.591  48.751  1.00  0.00     0.000 A 
HETATM   17  C12 UNL     1      25.612   6.096  48.642  1.00  0.00     0.001 A 
HETATM   18  C13 UNL     1      24.480   5.373  48.919  1.00  0.00     0.008 A 
ENDBRANCH  12  13
ENDBRANCH  10  12
ENDBRANCH   9  10
ENDBRANCH   7   9
BRANCH   1  19
HETATM   19  C1  UNL     1      28.223   1.457  53.275  1.00  0.00     0.145 C 
BRANCH  19  20
HETATM   20  N1  UNL     1      29.263   2.462  53.442  1.00  0.00    -0.205 NA
HETATM   21  H2  UNL     1      28.982   3.387  53.105  1.00  0.00     0.153 HD
BRANCH  20  22
HETATM   22  O1  UNL     1      29.700   2.465  54.723  1.00  0.00    -0.315 OA
HETATM   23  H1  UNL     1      30.291   1.674  54.926  1.00  0.00     0.236 HD
ENDBRANCH  20  22
ENDBRANCH  19  20
ENDBRANCH   1  19
TORSDOF 7
ENDMDL
