MODEL 1
REMARK VINA RESULT:      -8.2      0.000      0.000
REMARK  7 active torsions:
REMARK  status: ('A' for Active; 'I' for Inactive)
REMARK    1  A    between atoms: C3_3  and  C4_4 
REMARK    2  A    between atoms: C3_3  and  N1_16 
REMARK    3  A    between atoms: C4_4  and  C5_6 
REMARK    4  A    between atoms: C5_6  and  O1_7 
REMARK    5  A    between atoms: O1_7  and  C6_8 
REMARK    6  A    between atoms: C6_8  and  C7_9 
REMARK    7  A    between atoms: N3_20  and  C15_21 
ROOT
HETATM    1  C1  UNL     1      22.057   3.692  47.324  1.00  0.00     0.038 C 
HETATM    2  C2  UNL     1      22.920   3.781  48.509  1.00  0.00    -0.005 C 
HETATM    3  C3  UNL     1      22.894   3.071  49.630  1.00  0.00     0.027 C 
ENDROOT
BRANCH   3   4
HETATM    4  C4  UNL     1      21.956   1.980  49.963  1.00  0.00     0.155 C 
HETATM    5 CL1  UNL     1      21.625   0.951  48.548  1.00  0.00    -0.116 Cl
BRANCH   4   6
HETATM    6  C5  UNL     1      20.671   2.568  50.504  1.00  0.00     0.194 C 
BRANCH   6   7
HETATM    7  O1  UNL     1      20.077   1.750  51.417  1.00  0.00    -0.385 OA
BRANCH   7   8
HETATM    8  C6  UNL     1      20.500   1.973  52.720  1.00  0.00     0.206 C 
BRANCH   8   9
HETATM    9  C7  UNL     1      20.871   0.662  53.311  1.00  0.00    -0.032 A 
HETATM   10  C8  UNL     1      20.056  -0.398  53.651  1.00  0.00     0.009 A 
HETATM   11  C9  UNL     1      20.600  -1.542  54.193  1.00  0.00     0.004 A 
HETATM   12  C10 UNL     1      21.967  -1.683  54.419  1.00  0.00     0.042 A 
HETATM   13  C11 UNL     1      22.768  -0.616  54.075  1.00  0.00     0.117 A 
HETATM   14  F1  UNL     1      24.094  -0.805  54.316  1.00  0.00    -0.206 F 
HETATM   15  C12 UNL     1      22.248   0.536  53.532  1.00  0.00     0.051 A 
ENDBRANCH   8   9
ENDBRANCH   7   8
ENDBRANCH   6   7
ENDBRANCH   4   6
ENDBRANCH   3   4
BRANCH   3  16
HETATM   16  N1  UNL     1      23.913   3.453  50.592  1.00  0.00    -0.344 N 
HETATM   17  C13 UNL     1      23.747   4.659  51.381  1.00  0.00     0.276 C 
HETATM   18  N2  UNL     1      23.703   4.244  52.778  1.00  0.00    -0.265 NA
HETATM   19  C14 UNL     1      24.400   3.213  53.100  1.00  0.00     0.207 C 
HETATM   20  N3  UNL     1      25.222   2.405  52.270  1.00  0.00    -0.320 N 
HETATM   21  C21 UNL     1      25.102   2.659  50.826  1.00  0.00     0.190 C 
HETATM   22  C22 UNL     1      26.331   3.316  50.300  1.00  0.00     0.056 C 
BRANCH  20  23
HETATM   23  C15 UNL     1      26.116   1.410  52.737  1.00  0.00     0.037 A 
HETATM   24  C16 UNL     1      26.243   0.208  52.098  1.00  0.00     0.029 A 
HETATM   25  C17 UNL     1      27.108  -0.782  52.527  1.00  0.00     0.002 A 
HETATM   26  C18 UNL     1      27.885  -0.555  53.651  1.00  0.00     0.000 A 
HETATM   27  C19 UNL     1      27.792   0.653  54.337  1.00  0.00     0.002 A 
HETATM   28  C20 UNL     1      26.903   1.603  53.852  1.00  0.00     0.029 A 
ENDBRANCH  20  23
ENDBRANCH   3  16
TORSDOF 7
ENDMDL
MODEL 2
REMARK VINA RESULT:      -8.1      2.393      5.604
REMARK  7 active torsions:
REMARK  status: ('A' for Active; 'I' for Inactive)
REMARK    1  A    between atoms: C3_3  and  C4_4 
REMARK    2  A    between atoms: C3_3  and  N1_16 
REMARK    3  A    between atoms: C4_4  and  C5_6 
REMARK    4  A    between atoms: C5_6  and  O1_7 
REMARK    5  A    between atoms: O1_7  and  C6_8 
REMARK    6  A    between atoms: C6_8  and  C7_9 
REMARK    7  A    between atoms: N3_20  and  C15_21 
ROOT
HETATM    1  C1  UNL     1      20.888   0.378  53.821  1.00  0.00     0.038 C 
HETATM    2  C2  UNL     1      21.236   1.430  52.857  1.00  0.00    -0.005 C 
HETATM    3  C3  UNL     1      22.403   1.702  52.287  1.00  0.00     0.027 C 
ENDROOT
BRANCH   3   4
HETATM    4  C4  UNL     1      23.677   0.983  52.494  1.00  0.00     0.155 C 
HETATM    5 CL1  UNL     1      23.401  -0.662  53.119  1.00  0.00    -0.116 Cl
BRANCH   4   6
HETATM    6  C5  UNL     1      24.553   1.772  53.441  1.00  0.00     0.194 C 
BRANCH   6   7
HETATM    7  O1  UNL     1      25.711   2.180  52.850  1.00  0.00    -0.385 OA
BRANCH   7   8
HETATM    8  C6  UNL     1      26.249   1.243  51.979  1.00  0.00     0.206 C 
BRANCH   8   9
HETATM    9  C7  UNL     1      27.429   0.630  52.639  1.00  0.00    -0.032 A 
HETATM   10  C8  UNL     1      28.469   1.245  53.303  1.00  0.00     0.009 A 
HETATM   11  C9  UNL     1      29.481   0.489  53.854  1.00  0.00     0.004 A 
HETATM   12  C10 UNL     1      29.505  -0.900  53.770  1.00  0.00     0.042 A 
HETATM   13  C11 UNL     1      28.459  -1.501  53.103  1.00  0.00     0.117 A 
HETATM   14  F1  UNL     1      28.529  -2.859  53.050  1.00  0.00    -0.206 F 
HETATM   15  C12 UNL     1      27.437  -0.767  52.547  1.00  0.00     0.051 A 
ENDBRANCH   8   9
ENDBRANCH   7   8
ENDBRANCH   6   7
ENDBRANCH   4   6
ENDBRANCH   3   4
BRANCH   3  16
HETATM   16  N1  UNL     1      22.364   2.836  51.380  1.00  0.00    -0.344 N 
HETATM   17  C13 UNL     1      21.298   3.812  51.488  1.00  0.00     0.276 C 
HETATM   18  N2  UNL     1      21.927   5.090  51.800  1.00  0.00    -0.265 NA
HETATM   19  C14 UNL     1      23.100   5.294  51.315  1.00  0.00     0.207 C 
HETATM   20  N3  UNL     1      23.884   4.432  50.502  1.00  0.00    -0.320 N 
HETATM   21  C21 UNL     1      23.375   3.059  50.366  1.00  0.00     0.190 C 
HETATM   22  C22 UNL     1      22.855   2.821  48.990  1.00  0.00     0.056 C 
BRANCH  20  23
HETATM   23  C15 UNL     1      25.079   4.809  49.840  1.00  0.00     0.037 A 
HETATM   24  C16 UNL     1      25.282   6.090  49.409  1.00  0.00     0.029 A 
HETATM   25  C17 UNL     1      26.438   6.491  48.763  1.00  0.00     0.002 A 
HETATM   26  C18 UNL     1      27.440   5.560  48.540  1.00  0.00     0.000 A 
HETATM   27  C19 UNL     1      27.281   4.243  48.960  1.00  0.00     0.002 A 
HETATM   28  C20 UNL     1      26.095   3.909  49.602  1.00  0.00     0.029 A 
ENDBRANCH  20  23
ENDBRANCH   3  16
TORSDOF 7
ENDMDL
MODEL 3
REMARK VINA RESULT:      -7.9      2.867      6.931
REMARK  7 active torsions:
REMARK  status: ('A' for Active; 'I' for Inactive)
REMARK    1  A    between atoms: C3_3  and  C4_4 
REMARK    2  A    between atoms: C3_3  and  N1_16 
REMARK    3  A    between atoms: C4_4  and  C5_6 
REMARK    4  A    between atoms: C5_6  and  O1_7 
REMARK    5  A    between atoms: O1_7  and  C6_8 
REMARK    6  A    between atoms: C6_8  and  C7_9 
REMARK    7  A    between atoms: N3_20  and  C15_21 
ROOT
HETATM    1  C1  UNL     1      24.379  -0.574  53.753  1.00  0.00     0.038 C 
HETATM    2  C2  UNL     1      23.464   0.177  52.882  1.00  0.00    -0.005 C 
HETATM    3  C3  UNL     1      23.531   1.438  52.473  1.00  0.00     0.027 C 
ENDROOT
BRANCH   3   4
HETATM    4  C4  UNL     1      24.581   2.421  52.807  1.00  0.00     0.155 C 
HETATM    5 CL1  UNL     1      23.878   3.982  53.297  1.00  0.00    -0.116 Cl
BRANCH   4   6
HETATM    6  C5  UNL     1      25.500   2.601  51.618  1.00  0.00     0.194 C 
BRANCH   6   7
HETATM    7  O1  UNL     1      26.655   1.891  51.751  1.00  0.00    -0.385 OA
BRANCH   7   8
HETATM    8  C6  UNL     1      27.160   1.889  53.043  1.00  0.00     0.206 C 
BRANCH   8   9
HETATM    9  C7  UNL     1      28.022   0.689  53.194  1.00  0.00    -0.032 A 
HETATM   10  C8  UNL     1      29.316   0.604  53.663  1.00  0.00     0.009 A 
HETATM   11  C9  UNL     1      29.950  -0.618  53.726  1.00  0.00     0.004 A 
HETATM   12  C10 UNL     1      29.330  -1.801  53.330  1.00  0.00     0.042 A 
HETATM   13  C11 UNL     1      28.037  -1.700  52.864  1.00  0.00     0.117 A 
HETATM   14  F1  UNL     1      27.478  -2.883  52.491  1.00  0.00    -0.206 F 
HETATM   15  C12 UNL     1      27.385  -0.491  52.793  1.00  0.00     0.051 A 
ENDBRANCH   8   9
ENDBRANCH   7   8
ENDBRANCH   6   7
ENDBRANCH   4   6
ENDBRANCH   3   4
BRANCH   3  16
HETATM   16  N1  UNL     1      22.429   1.836  51.614  1.00  0.00    -0.344 N 
HETATM   17  C13 UNL     1      22.698   2.417  50.313  1.00  0.00     0.276 C 
HETATM   18  N2  UNL     1      22.111   1.522  49.323  1.00  0.00    -0.265 NA
HETATM   19  C14 UNL     1      21.046   0.891  49.669  1.00  0.00     0.207 C 
HETATM   20  N3  UNL     1      20.348   0.944  50.905  1.00  0.00    -0.320 N 
HETATM   21  C21 UNL     1      21.042   1.654  51.991  1.00  0.00     0.190 C 
HETATM   22  C22 UNL     1      20.366   2.947  52.295  1.00  0.00     0.056 C 
BRANCH  20  23
HETATM   23  C15 UNL     1      19.071   0.376  51.139  1.00  0.00     0.037 A 
HETATM   24  C16 UNL     1      18.785  -0.280  52.304  1.00  0.00     0.029 A 
HETATM   25  C17 UNL     1      17.548  -0.842  52.565  1.00  0.00     0.002 A 
HETATM   26  C18 UNL     1      16.549  -0.741  51.610  1.00  0.00     0.000 A 
HETATM   27  C19 UNL     1      16.791  -0.082  50.408  1.00  0.00     0.002 A 
HETATM   28  C20 UNL     1      18.055   0.459  50.212  1.00  0.00     0.029 A 
ENDBRANCH  20  23
ENDBRANCH   3  16
TORSDOF 7
ENDMDL
MODEL 4
REMARK VINA RESULT:      -7.9      2.480      5.447
REMARK  7 active torsions:
REMARK  status: ('A' for Active; 'I' for Inactive)
REMARK    1  A    between atoms: C3_3  and  C4_4 
REMARK    2  A    between atoms: C3_3  and  N1_16 
REMARK    3  A    between atoms: C4_4  and  C5_6 
REMARK    4  A    between atoms: C5_6  and  O1_7 
REMARK    5  A    between atoms: O1_7  and  C6_8 
REMARK    6  A    between atoms: C6_8  and  C7_9 
REMARK    7  A    between atoms: N3_20  and  C15_21 
ROOT
HETATM    1  C1  UNL     1      20.485   0.218  52.563  1.00  0.00     0.038 C 
HETATM    2  C2  UNL     1      20.967   1.449  51.921  1.00  0.00    -0.005 C 
HETATM    3  C3  UNL     1      22.210   1.870  51.726  1.00  0.00     0.027 C 
ENDROOT
BRANCH   3   4
HETATM    4  C4  UNL     1      23.451   1.174  52.122  1.00  0.00     0.155 C 
HETATM    5 CL1  UNL     1      23.109  -0.451  52.766  1.00  0.00    -0.116 Cl
BRANCH   4   6
HETATM    6  C5  UNL     1      24.191   2.006  53.145  1.00  0.00     0.194 C 
BRANCH   6   7
HETATM    7  O1  UNL     1      25.370   2.486  52.661  1.00  0.00    -0.385 OA
BRANCH   7   8
HETATM    8  C6  UNL     1      26.022   1.603  51.811  1.00  0.00     0.206 C 
BRANCH   8   9
HETATM    9  C7  UNL     1      27.110   0.948  52.581  1.00  0.00    -0.032 A 
HETATM   10  C8  UNL     1      27.406  -0.395  52.693  1.00  0.00     0.009 A 
HETATM   11  C9  UNL     1      28.471  -0.806  53.465  1.00  0.00     0.004 A 
HETATM   12  C10 UNL     1      29.282   0.091  54.155  1.00  0.00     0.042 A 
HETATM   13  C11 UNL     1      28.973   1.429  54.034  1.00  0.00     0.117 A 
HETATM   14  F1  UNL     1      29.796   2.263  54.727  1.00  0.00    -0.206 F 
HETATM   15  C12 UNL     1      27.916   1.863  53.268  1.00  0.00     0.051 A 
ENDBRANCH   8   9
ENDBRANCH   7   8
ENDBRANCH   6   7
ENDBRANCH   4   6
ENDBRANCH   3   4
BRANCH   3  16
HETATM   16  N1  UNL     1      22.297   3.154  51.053  1.00  0.00    -0.344 N 
HETATM   17  C13 UNL     1      21.381   4.221  51.410  1.00  0.00     0.276 C 
HETATM   18  N2  UNL     1      22.194   5.320  51.918  1.00  0.00    -0.265 NA
HETATM   19  C14 UNL     1      23.365   5.461  51.408  1.00  0.00     0.207 C 
HETATM   20  N3  UNL     1      23.991   4.680  50.399  1.00  0.00    -0.320 N 
HETATM   21  C21 UNL     1      23.291   3.437  50.038  1.00  0.00     0.190 C 
HETATM   22  C22 UNL     1      22.693   3.543  48.678  1.00  0.00     0.056 C 
BRANCH  20  23
HETATM   23  C15 UNL     1      25.202   5.020  49.746  1.00  0.00     0.037 A 
HETATM   24  C16 UNL     1      26.179   4.089  49.526  1.00  0.00     0.029 A 
HETATM   25  C17 UNL     1      27.370   4.388  48.890  1.00  0.00     0.002 A 
HETATM   26  C18 UNL     1      27.592   5.684  48.453  1.00  0.00     0.000 A 
HETATM   27  C19 UNL     1      26.628   6.667  48.653  1.00  0.00     0.002 A 
HETATM   28  C20 UNL     1      25.455   6.298  49.299  1.00  0.00     0.029 A 
ENDBRANCH  20  23
ENDBRANCH   3  16
TORSDOF 7
ENDMDL
MODEL 5
REMARK VINA RESULT:      -7.7      2.497      5.146
REMARK  7 active torsions:
REMARK  status: ('A' for Active; 'I' for Inactive)
REMARK    1  A    between atoms: C3_3  and  C4_4 
REMARK    2  A    between atoms: C3_3  and  N1_16 
REMARK    3  A    between atoms: C4_4  and  C5_6 
REMARK    4  A    between atoms: C5_6  and  O1_7 
REMARK    5  A    between atoms: O1_7  and  C6_8 
REMARK    6  A    between atoms: C6_8  and  C7_9 
REMARK    7  A    between atoms: N3_20  and  C15_21 
ROOT
HETATM    1  C1  UNL     1      23.734   5.942  48.144  1.00  0.00     0.038 C 
HETATM    2  C2  UNL     1      22.878   4.934  48.784  1.00  0.00    -0.005 C 
HETATM    3  C3  UNL     1      22.925   4.444  50.016  1.00  0.00     0.027 C 
ENDROOT
BRANCH   3   4
HETATM    4  C4  UNL     1      23.884   4.811  51.078  1.00  0.00     0.155 C 
HETATM    5 CL1  UNL     1      24.051   6.579  51.221  1.00  0.00    -0.116 Cl
BRANCH   4   6
HETATM    6  C5  UNL     1      25.225   4.172  50.788  1.00  0.00     0.194 C 
BRANCH   6   7
HETATM    7  O1  UNL     1      25.435   3.058  51.542  1.00  0.00    -0.385 OA
BRANCH   7   8
HETATM    8  C6  UNL     1      26.254   2.119  50.930  1.00  0.00     0.206 C 
BRANCH   8   9
HETATM    9  C7  UNL     1      26.950   1.355  51.996  1.00  0.00    -0.032 A 
HETATM   10  C8  UNL     1      26.851   0.015  52.308  1.00  0.00     0.009 A 
HETATM   11  C9  UNL     1      27.590  -0.509  53.347  1.00  0.00     0.004 A 
HETATM   12  C10 UNL     1      28.451   0.269  54.116  1.00  0.00     0.042 A 
HETATM   13  C11 UNL     1      28.539   1.606  53.793  1.00  0.00     0.117 A 
HETATM   14  F1  UNL     1      29.394   2.320  54.573  1.00  0.00    -0.206 F 
HETATM   15  C12 UNL     1      27.813   2.151  52.760  1.00  0.00     0.051 A 
ENDBRANCH   8   9
ENDBRANCH   7   8
ENDBRANCH   6   7
ENDBRANCH   4   6
ENDBRANCH   3   4
BRANCH   3  16
HETATM   16  N1  UNL     1      21.907   3.445  50.290  1.00  0.00    -0.344 N 
HETATM   17  C13 UNL     1      20.975   3.057  49.249  1.00  0.00     0.276 C 
HETATM   18  N2  UNL     1      21.184   1.635  49.006  1.00  0.00    -0.265 NA
HETATM   19  C14 UNL     1      21.543   0.919  50.012  1.00  0.00     0.207 C 
HETATM   20  N3  UNL     1      21.768   1.329  51.354  1.00  0.00    -0.320 N 
HETATM   21  C21 UNL     1      21.789   2.783  51.574  1.00  0.00     0.190 C 
HETATM   22  C22 UNL     1      20.580   3.222  52.325  1.00  0.00     0.056 C 
BRANCH  20  23
HETATM   23  C15 UNL     1      21.963   0.449  52.447  1.00  0.00     0.037 A 
HETATM   24  C16 UNL     1      20.925  -0.261  52.985  1.00  0.00     0.029 A 
HETATM   25  C17 UNL     1      21.083  -1.131  54.049  1.00  0.00     0.002 A 
HETATM   26  C18 UNL     1      22.342  -1.296  54.601  1.00  0.00     0.000 A 
HETATM   27  C19 UNL     1      23.431  -0.595  54.089  1.00  0.00     0.002 A 
HETATM   28  C20 UNL     1      23.202   0.261  53.020  1.00  0.00     0.029 A 
ENDBRANCH  20  23
ENDBRANCH   3  16
TORSDOF 7
ENDMDL
MODEL 6
REMARK VINA RESULT:      -7.7      1.630      2.321
REMARK  7 active torsions:
REMARK  status: ('A' for Active; 'I' for Inactive)
REMARK    1  A    between atoms: C3_3  and  C4_4 
REMARK    2  A    between atoms: C3_3  and  N1_16 
REMARK    3  A    between atoms: C4_4  and  C5_6 
REMARK    4  A    between atoms: C5_6  and  O1_7 
REMARK    5  A    between atoms: O1_7  and  C6_8 
REMARK    6  A    between atoms: C6_8  and  C7_9 
REMARK    7  A    between atoms: N3_20  and  C15_21 
ROOT
HETATM    1  C1  UNL     1      21.507   0.958  49.003  1.00  0.00     0.038 C 
HETATM    2  C2  UNL     1      22.486   1.721  49.790  1.00  0.00    -0.005 C 
HETATM    3  C3  UNL     1      22.743   3.023  49.787  1.00  0.00     0.027 C 
ENDROOT
BRANCH   3   4
HETATM    4  C4  UNL     1      22.080   4.053  48.961  1.00  0.00     0.155 C 
HETATM    5 CL1  UNL     1      23.256   5.217  48.305  1.00  0.00    -0.116 Cl
BRANCH   4   6
HETATM    6  C5  UNL     1      21.032   4.764  49.789  1.00  0.00     0.194 C 
BRANCH   6   7
HETATM    7  O1  UNL     1      19.910   4.011  49.955  1.00  0.00    -0.385 OA
BRANCH   7   8
HETATM    8  C6  UNL     1      19.459   3.965  51.267  1.00  0.00     0.206 C 
BRANCH   8   9
HETATM    9  C7  UNL     1      19.473   2.546  51.705  1.00  0.00    -0.032 A 
HETATM   10  C8  UNL     1      18.678   1.501  51.283  1.00  0.00     0.009 A 
HETATM   11  C9  UNL     1      18.850   0.243  51.819  1.00  0.00     0.004 A 
HETATM   12  C10 UNL     1      19.809  -0.030  52.790  1.00  0.00     0.042 A 
HETATM   13  C11 UNL     1      20.595   1.025  53.202  1.00  0.00     0.117 A 
HETATM   14  F1  UNL     1      21.516   0.705  54.151  1.00  0.00    -0.206 F 
HETATM   15  C12 UNL     1      20.443   2.288  52.680  1.00  0.00     0.051 A 
ENDBRANCH   8   9
ENDBRANCH   7   8
ENDBRANCH   6   7
ENDBRANCH   4   6
ENDBRANCH   3   4
BRANCH   3  16
HETATM   16  N1  UNL     1      23.797   3.416  50.706  1.00  0.00    -0.344 N 
HETATM   17  C13 UNL     1      23.600   4.547  51.592  1.00  0.00     0.276 C 
HETATM   18  N2  UNL     1      23.686   4.034  52.954  1.00  0.00    -0.265 NA
HETATM   19  C14 UNL     1      24.477   3.041  53.152  1.00  0.00     0.207 C 
HETATM   20  N3  UNL     1      25.295   2.359  52.211  1.00  0.00    -0.320 N 
HETATM   21  C21 UNL     1      25.054   2.703  50.801  1.00  0.00     0.190 C 
HETATM   22  C22 UNL     1      26.192   3.489  50.246  1.00  0.00     0.056 C 
BRANCH  20  23
HETATM   23  C15 UNL     1      26.291   1.407  52.543  1.00  0.00     0.037 A 
HETATM   24  C16 UNL     1      27.451   1.776  53.167  1.00  0.00     0.029 A 
HETATM   25  C17 UNL     1      28.440   0.872  53.508  1.00  0.00     0.002 A 
HETATM   26  C18 UNL     1      28.258  -0.468  53.208  1.00  0.00     0.000 A 
HETATM   27  C19 UNL     1      27.095  -0.894  52.573  1.00  0.00     0.002 A 
HETATM   28  C20 UNL     1      26.142   0.067  52.260  1.00  0.00     0.029 A 
ENDBRANCH  20  23
ENDBRANCH   3  16
TORSDOF 7
ENDMDL
MODEL 7
REMARK VINA RESULT:      -7.7      2.399      5.255
REMARK  7 active torsions:
REMARK  status: ('A' for Active; 'I' for Inactive)
REMARK    1  A    between atoms: C3_3  and  C4_4 
REMARK    2  A    between atoms: C3_3  and  N1_16 
REMARK    3  A    between atoms: C4_4  and  C5_6 
REMARK    4  A    between atoms: C5_6  and  O1_7 
REMARK    5  A    between atoms: O1_7  and  C6_8 
REMARK    6  A    between atoms: C6_8  and  C7_9 
REMARK    7  A    between atoms: N3_20  and  C15_21 
ROOT
HETATM    1  C1  UNL     1      25.308   6.979  50.489  1.00  0.00     0.038 C 
HETATM    2  C2  UNL     1      24.309   5.903  50.521  1.00  0.00    -0.005 C 
HETATM    3  C3  UNL     1      24.483   4.589  50.598  1.00  0.00     0.027 C 
ENDROOT
BRANCH   3   4
HETATM    4  C4  UNL     1      25.771   3.871  50.675  1.00  0.00     0.155 C 
HETATM    5 CL1  UNL     1      26.649   3.941  49.127  1.00  0.00    -0.116 Cl
BRANCH   4   6
HETATM    6  C5  UNL     1      25.525   2.435  51.083  1.00  0.00     0.194 C 
BRANCH   6   7
HETATM    7  O1  UNL     1      25.887   2.199  52.374  1.00  0.00    -0.385 OA
BRANCH   7   8
HETATM    8  C6  UNL     1      27.255   2.042  52.548  1.00  0.00     0.206 C 
BRANCH   8   9
HETATM    9  C7  UNL     1      27.530   0.593  52.721  1.00  0.00    -0.032 A 
HETATM   10  C8  UNL     1      26.714  -0.484  52.445  1.00  0.00     0.009 A 
HETATM   11  C9  UNL     1      27.160  -1.767  52.679  1.00  0.00     0.004 A 
HETATM   12  C10 UNL     1      28.426  -2.034  53.193  1.00  0.00     0.042 A 
HETATM   13  C11 UNL     1      29.229  -0.948  53.464  1.00  0.00     0.117 A 
HETATM   14  F1  UNL     1      30.455  -1.264  53.965  1.00  0.00    -0.206 F 
HETATM   15  C12 UNL     1      28.806   0.341  53.238  1.00  0.00     0.051 A 
ENDBRANCH   8   9
ENDBRANCH   7   8
ENDBRANCH   6   7
ENDBRANCH   4   6
ENDBRANCH   3   4
BRANCH   3  16
HETATM   16  N1  UNL     1      23.243   3.831  50.599  1.00  0.00    -0.344 N 
HETATM   17  C13 UNL     1      22.533   3.605  49.355  1.00  0.00     0.276 C 
HETATM   18  N2  UNL     1      22.495   2.162  49.149  1.00  0.00    -0.265 NA
HETATM   19  C14 UNL     1      22.441   1.426  50.201  1.00  0.00     0.207 C 
HETATM   20  N3  UNL     1      22.412   1.830  51.563  1.00  0.00    -0.320 N 
HETATM   21  C21 UNL     1      22.682   3.256  51.804  1.00  0.00     0.190 C 
HETATM   22  C22 UNL     1      21.445   3.962  52.242  1.00  0.00     0.056 C 
BRANCH  20  23
HETATM   23  C15 UNL     1      22.148   0.969  52.657  1.00  0.00     0.037 A 
HETATM   24  C16 UNL     1      23.120   0.165  53.183  1.00  0.00     0.029 A 
HETATM   25  C17 UNL     1      22.896  -0.684  54.253  1.00  0.00     0.002 A 
HETATM   26  C18 UNL     1      21.634  -0.727  54.822  1.00  0.00     0.000 A 
HETATM   27  C19 UNL     1      20.610   0.074  54.323  1.00  0.00     0.002 A 
HETATM   28  C20 UNL     1      20.905   0.902  53.248  1.00  0.00     0.029 A 
ENDBRANCH  20  23
ENDBRANCH   3  16
TORSDOF 7
ENDMDL
MODEL 8
REMARK VINA RESULT:      -7.6      3.099      5.488
REMARK  7 active torsions:
REMARK  status: ('A' for Active; 'I' for Inactive)
REMARK    1  A    between atoms: C3_3  and  C4_4 
REMARK    2  A    between atoms: C3_3  and  N1_16 
REMARK    3  A    between atoms: C4_4  and  C5_6 
REMARK    4  A    between atoms: C5_6  and  O1_7 
REMARK    5  A    between atoms: O1_7  and  C6_8 
REMARK    6  A    between atoms: C6_8  and  C7_9 
REMARK    7  A    between atoms: N3_20  and  C15_21 
ROOT
HETATM    1  C1  UNL     1      19.362   3.446  51.598  1.00  0.00     0.038 C 
HETATM    2  C2  UNL     1      20.310   4.369  50.958  1.00  0.00    -0.005 C 
HETATM    3  C3  UNL     1      21.606   4.540  51.183  1.00  0.00     0.027 C 
ENDROOT
BRANCH   3   4
HETATM    4  C4  UNL     1      22.435   3.816  52.168  1.00  0.00     0.155 C 
HETATM    5 CL1  UNL     1      23.666   4.880  52.891  1.00  0.00    -0.116 Cl
BRANCH   4   6
HETATM    6  C5  UNL     1      23.088   2.626  51.499  1.00  0.00     0.194 C 
BRANCH   6   7
HETATM    7  O1  UNL     1      24.245   2.261  52.117  1.00  0.00    -0.385 OA
BRANCH   7   8
HETATM    8  C6  UNL     1      25.221   1.802  51.244  1.00  0.00     0.206 C 
BRANCH   8   9
HETATM    9  C7  UNL     1      26.415   1.430  52.046  1.00  0.00    -0.032 A 
HETATM   10  C8  UNL     1      27.354   2.251  52.634  1.00  0.00     0.009 A 
HETATM   11  C9  UNL     1      28.400   1.705  53.346  1.00  0.00     0.004 A 
HETATM   12  C10 UNL     1      28.558   0.330  53.503  1.00  0.00     0.042 A 
HETATM   13  C11 UNL     1      27.611  -0.477  52.909  1.00  0.00     0.117 A 
HETATM   14  F1  UNL     1      27.812  -1.810  53.092  1.00  0.00    -0.206 F 
HETATM   15  C12 UNL     1      26.559   0.046  52.195  1.00  0.00     0.051 A 
ENDBRANCH   8   9
ENDBRANCH   7   8
ENDBRANCH   6   7
ENDBRANCH   4   6
ENDBRANCH   3   4
BRANCH   3  16
HETATM   16  N1  UNL     1      22.218   5.561  50.350  1.00  0.00    -0.344 N 
HETATM   17  C13 UNL     1      21.725   6.924  50.397  1.00  0.00     0.276 C 
HETATM   18  N2  UNL     1      22.831   7.755  50.858  1.00  0.00    -0.265 NA
HETATM   19  C14 UNL     1      24.015   7.385  50.523  1.00  0.00     0.207 C 
HETATM   20  N3  UNL     1      24.405   6.257  49.751  1.00  0.00    -0.320 N 
HETATM   21  C21 UNL     1      23.337   5.284  49.473  1.00  0.00     0.190 C 
HETATM   22  C22 UNL     1      22.949   5.321  48.035  1.00  0.00     0.056 C 
BRANCH  20  23
HETATM   23  C15 UNL     1      25.712   6.028  49.254  1.00  0.00     0.037 A 
HETATM   24  C16 UNL     1      26.461   7.043  48.723  1.00  0.00     0.029 A 
HETATM   25  C17 UNL     1      27.740   6.854  48.233  1.00  0.00     0.002 A 
HETATM   26  C18 UNL     1      28.296   5.585  48.276  1.00  0.00     0.000 A 
HETATM   27  C19 UNL     1      27.574   4.520  48.807  1.00  0.00     0.002 A 
HETATM   28  C20 UNL     1      26.295   4.781  49.282  1.00  0.00     0.029 A 
ENDBRANCH  20  23
ENDBRANCH   3  16
TORSDOF 7
ENDMDL
MODEL 9
REMARK VINA RESULT:      -7.5      2.498      4.391
REMARK  7 active torsions:
REMARK  status: ('A' for Active; 'I' for Inactive)
REMARK    1  A    between atoms: C3_3  and  C4_4 
REMARK    2  A    between atoms: C3_3  and  N1_16 
REMARK    3  A    between atoms: C4_4  and  C5_6 
REMARK    4  A    between atoms: C5_6  and  O1_7 
REMARK    5  A    between atoms: O1_7  and  C6_8 
REMARK    6  A    between atoms: C6_8  and  C7_9 
REMARK    7  A    between atoms: N3_20  and  C15_21 
ROOT
HETATM    1  C1  UNL     1      21.741   1.504  48.499  1.00  0.00     0.038 C 
HETATM    2  C2  UNL     1      22.755   2.302  49.203  1.00  0.00    -0.005 C 
HETATM    3  C3  UNL     1      22.598   3.270  50.096  1.00  0.00     0.027 C 
ENDROOT
BRANCH   3   4
HETATM    4  C4  UNL     1      21.319   3.795  50.615  1.00  0.00     0.155 C 
HETATM    5 CL1  UNL     1      20.882   5.335  49.834  1.00  0.00    -0.116 Cl
BRANCH   4   6
HETATM    6  C5  UNL     1      21.417   3.969  52.115  1.00  0.00     0.194 C 
BRANCH   6   7
HETATM    7  O1  UNL     1      20.567   3.140  52.784  1.00  0.00    -0.385 OA
BRANCH   7   8
HETATM    8  C6  UNL     1      20.444   1.885  52.205  1.00  0.00     0.206 C 
BRANCH   8   9
HETATM    9  C7  UNL     1      21.124   0.905  53.089  1.00  0.00    -0.032 A 
HETATM   10  C8  UNL     1      20.674   0.336  54.261  1.00  0.00     0.009 A 
HETATM   11  C9  UNL     1      21.465  -0.564  54.941  1.00  0.00     0.004 A 
HETATM   12  C10 UNL     1      22.730  -0.935  54.491  1.00  0.00     0.042 A 
HETATM   13  C11 UNL     1      23.166  -0.357  53.318  1.00  0.00     0.117 A 
HETATM   14  F1  UNL     1      24.407  -0.752  52.922  1.00  0.00    -0.206 F 
HETATM   15  C12 UNL     1      22.393   0.543  52.622  1.00  0.00     0.051 A 
ENDBRANCH   8   9
ENDBRANCH   7   8
ENDBRANCH   6   7
ENDBRANCH   4   6
ENDBRANCH   3   4
BRANCH   3  16
HETATM   16  N1  UNL     1      23.847   3.838  50.573  1.00  0.00    -0.344 N 
HETATM   17  C13 UNL     1      24.611   3.149  51.595  1.00  0.00     0.276 C 
HETATM   18  N2  UNL     1      25.902   2.817  51.003  1.00  0.00    -0.265 NA
HETATM   19  C14 UNL     1      26.366   3.633  50.126  1.00  0.00     0.207 C 
HETATM   20  N3  UNL     1      25.787   4.838  49.643  1.00  0.00    -0.320 N 
HETATM   21  C21 UNL     1      24.393   5.073  50.049  1.00  0.00     0.190 C 
HETATM   22  C22 UNL     1      24.309   6.189  51.033  1.00  0.00     0.056 C 
BRANCH  20  23
HETATM   23  C15 UNL     1      26.452   5.787  48.827  1.00  0.00     0.037 A 
HETATM   24  C16 UNL     1      27.795   5.699  48.582  1.00  0.00     0.029 A 
HETATM   25  C17 UNL     1      28.473   6.606  47.788  1.00  0.00     0.002 A 
HETATM   26  C18 UNL     1      27.771   7.652  47.212  1.00  0.00     0.000 A 
HETATM   27  C19 UNL     1      26.402   7.785  47.432  1.00  0.00     0.002 A 
HETATM   28  C20 UNL     1      25.785   6.838  48.239  1.00  0.00     0.029 A 
ENDBRANCH  20  23
ENDBRANCH   3  16
TORSDOF 7
ENDMDL
