MODEL 1
REMARK VINA RESULT:      -8.8      0.000      0.000
REMARK  6 active torsions:
REMARK  status: ('A' for Active; 'I' for Inactive)
REMARK       I    between atoms: C1_2  and  N1_3 
REMARK    1  A    between atoms: C1_2  and  C8_10 
REMARK    2  A    between atoms: N1_3  and  C2_4 
REMARK    3  A    between atoms: N2_12  and  C10_13 
REMARK    4  A    between atoms: C10_13  and  C11_14 
REMARK    5  A    between atoms: C11_14  and  C12_15 
REMARK    6  A    between atoms: C18_22  and  O2_23 
ROOT
HETATM    1  C8  UNL     1      23.785  -0.354  53.747  1.00  0.00     0.029 A 
HETATM    2  C9  UNL     1      23.125   0.416  52.930  1.00  0.00     0.106 A 
HETATM    3  N2  UNL     1      21.716   0.432  53.088  1.00  0.00    -0.337 N 
HETATM    4  C18 UNL     1      21.098  -0.362  54.092  1.00  0.00     0.138 A 
HETATM    5  C19 UNL     1      21.815  -1.127  54.895  1.00  0.00     0.034 A 
HETATM    6  C20 UNL     1      23.295  -1.236  54.839  1.00  0.00     0.077 A 
ENDROOT
BRANCH   1   7
HETATM    7  C1  UNL     1      25.259  -0.442  53.664  1.00  0.00     0.253 C 
HETATM    8  O1  UNL     1      26.100  -0.685  54.599  1.00  0.00    -0.268 OA
HETATM    9  N1  UNL     1      26.040  -0.261  52.463  1.00  0.00    -0.323 N 
HETATM   10  H1  UNL     1      25.505  -0.047  51.572  1.00  0.00     0.169 HD
BRANCH   9  11
HETATM   11  C2  UNL     1      27.404  -0.443  52.906  1.00  0.00     0.035 A 
HETATM   12  C3  UNL     1      27.915  -1.728  52.889  1.00  0.00     0.029 A 
HETATM   13  C4  UNL     1      29.221  -1.941  53.303  1.00  0.00     0.002 A 
HETATM   14  C5  UNL     1      29.955  -0.853  53.716  1.00  0.00     0.000 A 
HETATM   15  C6  UNL     1      29.468   0.421  53.740  1.00  0.00     0.002 A 
HETATM   16  C7  UNL     1      28.168   0.630  53.327  1.00  0.00     0.029 A 
ENDBRANCH   9  11
ENDBRANCH   1   7
BRANCH   3  17
HETATM   17  C10 UNL     1      20.861   1.219  52.265  1.00  0.00     0.135 C 
BRANCH  17  18
HETATM   18  C11 UNL     1      20.548   0.615  50.917  1.00  0.00     0.058 C 
BRANCH  18  19
HETATM   19  C12 UNL     1      21.293   1.431  49.914  1.00  0.00    -0.055 A 
HETATM   20  C13 UNL     1      21.592   1.088  48.616  1.00  0.00     0.007 A 
HETATM   21  C14 UNL     1      22.294   1.940  47.793  1.00  0.00     0.002 A 
HETATM   22  C15 UNL     1      22.729   3.186  48.249  1.00  0.00     0.024 A 
HETATM   23  C16 UNL     1      22.439   3.551  49.551  1.00  0.00     0.034 A 
HETATM   24 CL1  UNL     1      22.970   5.117  50.162  1.00  0.00    -0.084 Cl
HETATM   25  C17 UNL     1      21.735   2.684  50.356  1.00  0.00     0.031 A 
ENDBRANCH  18  19
ENDBRANCH  17  18
ENDBRANCH   3  17
BRANCH   4  26
HETATM   26  O2  UNL     1      19.701  -0.373  54.281  1.00  0.00    -0.346 OA
HETATM   27  H16 UNL     1      19.180   0.167  53.571  1.00  0.00     0.219 HD
ENDBRANCH   4  26
TORSDOF 6
ENDMDL
MODEL 2
REMARK VINA RESULT:      -8.6      1.131      1.633
REMARK  6 active torsions:
REMARK  status: ('A' for Active; 'I' for Inactive)
REMARK       I    between atoms: C1_2  and  N1_3 
REMARK    1  A    between atoms: C1_2  and  C8_10 
REMARK    2  A    between atoms: N1_3  and  C2_4 
REMARK    3  A    between atoms: N2_12  and  C10_13 
REMARK    4  A    between atoms: C10_13  and  C11_14 
REMARK    5  A    between atoms: C11_14  and  C12_15 
REMARK    6  A    between atoms: C18_22  and  O2_23 
ROOT
HETATM    1  C8  UNL     1      23.833  -0.368  53.759  1.00  0.00     0.029 A 
HETATM    2  C9  UNL     1      23.174   0.361  52.904  1.00  0.00     0.106 A 
HETATM    3  N2  UNL     1      21.766   0.398  53.068  1.00  0.00    -0.337 N 
HETATM    4  C18 UNL     1      21.147  -0.333  54.119  1.00  0.00     0.138 A 
HETATM    5  C19 UNL     1      21.863  -1.057  54.960  1.00  0.00     0.034 A 
HETATM    6  C20 UNL     1      23.341  -1.182  54.902  1.00  0.00     0.077 A 
ENDROOT
BRANCH   1   7
HETATM    7  C1  UNL     1      25.306  -0.472  53.674  1.00  0.00     0.253 C 
HETATM    8  O1  UNL     1      26.143  -0.756  54.601  1.00  0.00    -0.268 OA
HETATM    9  N1  UNL     1      26.089  -0.263  52.480  1.00  0.00    -0.323 N 
HETATM   10  H1  UNL     1      25.558  -0.014  51.596  1.00  0.00     0.169 HD
BRANCH   9  11
HETATM   11  C2  UNL     1      27.451  -0.478  52.917  1.00  0.00     0.035 A 
HETATM   12  C3  UNL     1      27.941  -1.769  52.867  1.00  0.00     0.029 A 
HETATM   13  C4  UNL     1      29.243  -2.013  53.275  1.00  0.00     0.002 A 
HETATM   14  C5  UNL     1      29.995  -0.947  53.714  1.00  0.00     0.000 A 
HETATM   15  C6  UNL     1      29.529   0.333  53.769  1.00  0.00     0.002 A 
HETATM   16  C7  UNL     1      28.231   0.573  53.363  1.00  0.00     0.029 A 
ENDBRANCH   9  11
ENDBRANCH   1   7
BRANCH   3  17
HETATM   17  C10 UNL     1      20.913   1.145  52.206  1.00  0.00     0.135 C 
BRANCH  17  18
HETATM   18  C11 UNL     1      21.050   2.643  52.325  1.00  0.00     0.058 C 
BRANCH  18  19
HETATM   19  C12 UNL     1      22.080   3.046  51.323  1.00  0.00    -0.055 A 
HETATM   20  C13 UNL     1      23.133   3.912  51.511  1.00  0.00     0.007 A 
HETATM   21  C14 UNL     1      24.013   4.200  50.491  1.00  0.00     0.002 A 
HETATM   22  C15 UNL     1      23.866   3.624  49.228  1.00  0.00     0.024 A 
HETATM   23  C16 UNL     1      22.814   2.752  49.019  1.00  0.00     0.034 A 
HETATM   24 CL1  UNL     1      22.598   2.004  47.437  1.00  0.00    -0.084 Cl
HETATM   25  C17 UNL     1      21.947   2.477  50.051  1.00  0.00     0.031 A 
ENDBRANCH  18  19
ENDBRANCH  17  18
ENDBRANCH   3  17
BRANCH   4  26
HETATM   26  O2  UNL     1      19.752  -0.321  54.315  1.00  0.00    -0.346 OA
HETATM   27  H16 UNL     1      19.277  -1.177  53.985  1.00  0.00     0.219 HD
ENDBRANCH   4  26
TORSDOF 6
ENDMDL
MODEL 3
REMARK VINA RESULT:      -8.3      2.426      3.275
REMARK  6 active torsions:
REMARK  status: ('A' for Active; 'I' for Inactive)
REMARK       I    between atoms: C1_2  and  N1_3 
REMARK    1  A    between atoms: C1_2  and  C8_10 
REMARK    2  A    between atoms: N1_3  and  C2_4 
REMARK    3  A    between atoms: N2_12  and  C10_13 
REMARK    4  A    between atoms: C10_13  and  C11_14 
REMARK    5  A    between atoms: C11_14  and  C12_15 
REMARK    6  A    between atoms: C18_22  and  O2_23 
ROOT
HETATM    1  C8  UNL     1      23.873  -0.365  53.799  1.00  0.00     0.029 A 
HETATM    2  C9  UNL     1      23.211   0.397  52.976  1.00  0.00     0.106 A 
HETATM    3  N2  UNL     1      21.806   0.443  53.159  1.00  0.00    -0.337 N 
HETATM    4  C18 UNL     1      21.193  -0.314  54.195  1.00  0.00     0.138 A 
HETATM    5  C19 UNL     1      21.911  -1.071  55.003  1.00  0.00     0.034 A 
HETATM    6  C20 UNL     1      23.387  -1.210  54.922  1.00  0.00     0.077 A 
ENDROOT
BRANCH   1   7
HETATM    7  C1  UNL     1      25.343  -0.482  53.692  1.00  0.00     0.253 C 
HETATM    8  O1  UNL     1      26.194  -0.752  54.610  1.00  0.00    -0.268 OA
HETATM    9  N1  UNL     1      26.107  -0.304  52.480  1.00  0.00    -0.323 N 
HETATM   10  H1  UNL     1      25.563  -0.069  51.600  1.00  0.00     0.169 HD
BRANCH   9  11
HETATM   11  C2  UNL     1      27.475  -0.519  52.899  1.00  0.00     0.035 A 
HETATM   12  C3  UNL     1      28.200   0.586  53.303  1.00  0.00     0.029 A 
HETATM   13  C4  UNL     1      29.514   0.418  53.714  1.00  0.00     0.002 A 
HETATM   14  C5  UNL     1      30.039  -0.853  53.701  1.00  0.00     0.000 A 
HETATM   15  C6  UNL     1      29.339  -1.955  53.307  1.00  0.00     0.002 A 
HETATM   16  C7  UNL     1      28.031  -1.785  52.897  1.00  0.00     0.029 A 
ENDBRANCH   9  11
ENDBRANCH   1   7
BRANCH   3  17
HETATM   17  C10 UNL     1      20.950   1.226  52.333  1.00  0.00     0.135 C 
BRANCH  17  18
HETATM   18  C11 UNL     1      20.805   0.723  50.917  1.00  0.00     0.058 C 
BRANCH  18  19
HETATM   19  C12 UNL     1      19.349   0.786  50.601  1.00  0.00    -0.055 A 
HETATM   20  C13 UNL     1      18.720   1.639  49.724  1.00  0.00     0.007 A 
HETATM   21  C14 UNL     1      17.358   1.592  49.529  1.00  0.00     0.002 A 
HETATM   22  C15 UNL     1      16.564   0.672  50.217  1.00  0.00     0.024 A 
HETATM   23  C16 UNL     1      17.175  -0.195  51.104  1.00  0.00     0.034 A 
HETATM   24 CL1  UNL     1      16.204  -1.370  51.991  1.00  0.00    -0.084 Cl
HETATM   25  C17 UNL     1      18.538  -0.130  51.283  1.00  0.00     0.031 A 
ENDBRANCH  18  19
ENDBRANCH  17  18
ENDBRANCH   3  17
BRANCH   4  26
HETATM   26  O2  UNL     1      19.800  -0.294  54.409  1.00  0.00    -0.346 OA
HETATM   27  H16 UNL     1      19.243  -0.456  53.554  1.00  0.00     0.219 HD
ENDBRANCH   4  26
TORSDOF 6
ENDMDL
MODEL 4
REMARK VINA RESULT:      -8.1      3.537      4.532
REMARK  6 active torsions:
REMARK  status: ('A' for Active; 'I' for Inactive)
REMARK       I    between atoms: C1_2  and  N1_3 
REMARK    1  A    between atoms: C1_2  and  C8_10 
REMARK    2  A    between atoms: N1_3  and  C2_4 
REMARK    3  A    between atoms: N2_12  and  C10_13 
REMARK    4  A    between atoms: C10_13  and  C11_14 
REMARK    5  A    between atoms: C11_14  and  C12_15 
REMARK    6  A    between atoms: C18_22  and  O2_23 
ROOT
HETATM    1  C8  UNL     1      24.728   1.920  52.182  1.00  0.00     0.029 A 
HETATM    2  C9  UNL     1      25.028   3.030  51.571  1.00  0.00     0.106 A 
HETATM    3  N2  UNL     1      23.949   3.913  51.312  1.00  0.00    -0.337 N 
HETATM    4  C18 UNL     1      22.630   3.569  51.714  1.00  0.00     0.138 A 
HETATM    5  C19 UNL     1      22.380   2.429  52.332  1.00  0.00     0.034 A 
HETATM    6  C20 UNL     1      23.415   1.417  52.663  1.00  0.00     0.077 A 
ENDROOT
BRANCH   1   7
HETATM    7  C1  UNL     1      25.783   0.932  52.497  1.00  0.00     0.253 C 
HETATM    8  O1  UNL     1      26.821   0.624  51.813  1.00  0.00    -0.268 OA
HETATM    9  N1  UNL     1      25.826   0.108  53.681  1.00  0.00    -0.323 N 
HETATM   10  H1  UNL     1      25.033   0.225  54.376  1.00  0.00     0.169 HD
BRANCH   9  11
HETATM   11  C2  UNL     1      27.032  -0.673  53.516  1.00  0.00     0.035 A 
HETATM   12  C3  UNL     1      28.209  -0.140  54.007  1.00  0.00     0.029 A 
HETATM   13  C4  UNL     1      29.386  -0.861  53.870  1.00  0.00     0.002 A 
HETATM   14  C5  UNL     1      29.325  -2.086  53.246  1.00  0.00     0.000 A 
HETATM   15  C6  UNL     1      28.174  -2.628  52.756  1.00  0.00     0.002 A 
HETATM   16  C7  UNL     1      27.004  -1.907  52.893  1.00  0.00     0.029 A 
ENDBRANCH   9  11
ENDBRANCH   1   7
BRANCH   3  17
HETATM   17  C10 UNL     1      24.121   5.160  50.646  1.00  0.00     0.135 C 
BRANCH  17  18
HETATM   18  C11 UNL     1      24.220   5.066  49.143  1.00  0.00     0.058 C 
BRANCH  18  19
HETATM   19  C12 UNL     1      25.606   5.490  48.791  1.00  0.00    -0.055 A 
HETATM   20  C13 UNL     1      26.761   4.749  48.906  1.00  0.00     0.007 A 
HETATM   21  C14 UNL     1      27.984   5.268  48.545  1.00  0.00     0.002 A 
HETATM   22  C15 UNL     1      28.097   6.568  48.049  1.00  0.00     0.024 A 
HETATM   23  C16 UNL     1      26.950   7.330  47.926  1.00  0.00     0.034 A 
HETATM   24 CL1  UNL     1      27.053   8.976  47.302  1.00  0.00    -0.084 Cl
HETATM   25  C17 UNL     1      25.737   6.791  48.291  1.00  0.00     0.031 A 
ENDBRANCH  18  19
ENDBRANCH  17  18
ENDBRANCH   3  17
BRANCH   4  26
HETATM   26  O2  UNL     1      21.531   4.420  51.476  1.00  0.00    -0.346 OA
HETATM   27  H16 UNL     1      20.615   3.947  51.544  1.00  0.00     0.219 HD
ENDBRANCH   4  26
TORSDOF 6
ENDMDL
MODEL 5
REMARK VINA RESULT:      -7.9      1.621      2.321
REMARK  6 active torsions:
REMARK  status: ('A' for Active; 'I' for Inactive)
REMARK       I    between atoms: C1_2  and  N1_3 
REMARK    1  A    between atoms: C1_2  and  C8_10 
REMARK    2  A    between atoms: N1_3  and  C2_4 
REMARK    3  A    between atoms: N2_12  and  C10_13 
REMARK    4  A    between atoms: C10_13  and  C11_14 
REMARK    5  A    between atoms: C11_14  and  C12_15 
REMARK    6  A    between atoms: C18_22  and  O2_23 
ROOT
HETATM    1  C8  UNL     1      24.015   0.247  53.202  1.00  0.00     0.029 A 
HETATM    2  C9  UNL     1      23.723   1.402  52.677  1.00  0.00     0.106 A 
HETATM    3  N2  UNL     1      22.350   1.758  52.671  1.00  0.00    -0.337 N 
HETATM    4  C18 UNL     1      21.379   0.876  53.219  1.00  0.00     0.138 A 
HETATM    5  C19 UNL     1      21.729  -0.286  53.740  1.00  0.00     0.034 A 
HETATM    6  C20 UNL     1      23.127  -0.780  53.810  1.00  0.00     0.077 A 
ENDROOT
BRANCH   1   7
HETATM    7  C1  UNL     1      25.418  -0.217  53.256  1.00  0.00     0.253 C 
HETATM    8  O1  UNL     1      26.037  -0.782  54.224  1.00  0.00    -0.268 OA
HETATM    9  N1  UNL     1      26.374  -0.109  52.180  1.00  0.00    -0.323 N 
HETATM   10  H1  UNL     1      26.035   0.343  51.281  1.00  0.00     0.169 HD
BRANCH   9  11
HETATM   11  C2  UNL     1      27.578  -0.696  52.726  1.00  0.00     0.035 A 
HETATM   12  C3  UNL     1      28.508   0.159  53.285  1.00  0.00     0.029 A 
HETATM   13  C4  UNL     1      29.674  -0.369  53.821  1.00  0.00     0.002 A 
HETATM   14  C5  UNL     1      29.849  -1.732  53.771  1.00  0.00     0.000 A 
HETATM   15  C6  UNL     1      28.942  -2.591  53.225  1.00  0.00     0.002 A 
HETATM   16  C7  UNL     1      27.784  -2.063  52.691  1.00  0.00     0.029 A 
ENDBRANCH   9  11
ENDBRANCH   1   7
BRANCH   3  17
HETATM   17  C10 UNL     1      21.879   2.986  52.125  1.00  0.00     0.135 C 
BRANCH  17  18
HETATM   18  C11 UNL     1      21.919   3.065  50.618  1.00  0.00     0.058 C 
BRANCH  18  19
HETATM   19  C12 UNL     1      23.111   3.895  50.278  1.00  0.00    -0.055 A 
HETATM   20  C13 UNL     1      24.260   3.484  49.641  1.00  0.00     0.007 A 
HETATM   21  C14 UNL     1      25.293   4.361  49.391  1.00  0.00     0.002 A 
HETATM   22  C15 UNL     1      25.210   5.700  49.777  1.00  0.00     0.024 A 
HETATM   23  C16 UNL     1      24.064   6.133  50.418  1.00  0.00     0.034 A 
HETATM   24 CL1  UNL     1      23.924   7.818  50.919  1.00  0.00    -0.084 Cl
HETATM   25  C17 UNL     1      23.044   5.241  50.658  1.00  0.00     0.031 A 
ENDBRANCH  18  19
ENDBRANCH  17  18
ENDBRANCH   3  17
BRANCH   4  26
HETATM   26  O2  UNL     1      20.006   1.194  53.233  1.00  0.00    -0.346 OA
HETATM   27  H16 UNL     1      19.428   0.573  52.643  1.00  0.00     0.219 HD
ENDBRANCH   4  26
TORSDOF 6
ENDMDL
MODEL 6
REMARK VINA RESULT:      -7.8      2.965      4.621
REMARK  6 active torsions:
REMARK  status: ('A' for Active; 'I' for Inactive)
REMARK       I    between atoms: C1_2  and  N1_3 
REMARK    1  A    between atoms: C1_2  and  C8_10 
REMARK    2  A    between atoms: N1_3  and  C2_4 
REMARK    3  A    between atoms: N2_12  and  C10_13 
REMARK    4  A    between atoms: C10_13  and  C11_14 
REMARK    5  A    between atoms: C11_14  and  C12_15 
REMARK    6  A    between atoms: C18_22  and  O2_23 
ROOT
HETATM    1  C8  UNL     1      24.825   2.744  50.876  1.00  0.00     0.029 A 
HETATM    2  C9  UNL     1      23.614   2.273  50.957  1.00  0.00     0.106 A 
HETATM    3  N2  UNL     1      22.631   2.939  50.181  1.00  0.00    -0.337 N 
HETATM    4  C18 UNL     1      22.989   4.053  49.374  1.00  0.00     0.138 A 
HETATM    5  C19 UNL     1      24.235   4.490  49.328  1.00  0.00     0.034 A 
HETATM    6  C20 UNL     1      25.358   3.886  50.088  1.00  0.00     0.077 A 
ENDROOT
BRANCH   1   7
HETATM    7  C1  UNL     1      25.922   2.120  51.647  1.00  0.00     0.253 C 
HETATM    8  O1  UNL     1      27.146   1.955  51.306  1.00  0.00    -0.268 OA
HETATM    9  N1  UNL     1      25.799   1.564  52.973  1.00  0.00    -0.323 N 
HETATM   10  H1  UNL     1      24.840   1.610  53.425  1.00  0.00     0.169 HD
BRANCH   9  11
HETATM   11  C2  UNL     1      27.130   1.086  53.274  1.00  0.00     0.035 A 
HETATM   12  C3  UNL     1      27.404  -0.244  53.020  1.00  0.00     0.029 A 
HETATM   13  C4  UNL     1      28.671  -0.737  53.293  1.00  0.00     0.002 A 
HETATM   14  C5  UNL     1      29.606   0.130  53.808  1.00  0.00     0.000 A 
HETATM   15  C6  UNL     1      29.355   1.446  54.065  1.00  0.00     0.002 A 
HETATM   16  C7  UNL     1      28.093   1.934  53.792  1.00  0.00     0.029 A 
ENDBRANCH   9  11
ENDBRANCH   1   7
BRANCH   3  17
HETATM   17  C10 UNL     1      21.263   2.544  50.172  1.00  0.00     0.135 C 
BRANCH  17  18
HETATM   18  C11 UNL     1      21.025   1.099  49.808  1.00  0.00     0.058 C 
BRANCH  18  19
HETATM   19  C12 UNL     1      20.240   0.511  50.931  1.00  0.00    -0.055 A 
HETATM   20  C13 UNL     1      18.885   0.269  50.967  1.00  0.00     0.007 A 
HETATM   21  C14 UNL     1      18.284  -0.278  52.079  1.00  0.00     0.002 A 
HETATM   22  C15 UNL     1      19.030  -0.608  53.212  1.00  0.00     0.024 A 
HETATM   23  C16 UNL     1      20.393  -0.373  53.197  1.00  0.00     0.034 A 
HETATM   24 CL1  UNL     1      21.367  -0.778  54.610  1.00  0.00    -0.084 Cl
HETATM   25  C17 UNL     1      20.973   0.175  52.076  1.00  0.00     0.031 A 
ENDBRANCH  18  19
ENDBRANCH  17  18
ENDBRANCH   3  17
BRANCH   4  26
HETATM   26  O2  UNL     1      22.043   4.741  48.588  1.00  0.00    -0.346 OA
HETATM   27  H16 UNL     1      21.192   4.191  48.384  1.00  0.00     0.219 HD
ENDBRANCH   4  26
TORSDOF 6
ENDMDL
MODEL 7
REMARK VINA RESULT:      -7.7      1.893      2.411
REMARK  6 active torsions:
REMARK  status: ('A' for Active; 'I' for Inactive)
REMARK       I    between atoms: C1_2  and  N1_3 
REMARK    1  A    between atoms: C1_2  and  C8_10 
REMARK    2  A    between atoms: N1_3  and  C2_4 
REMARK    3  A    between atoms: N2_12  and  C10_13 
REMARK    4  A    between atoms: C10_13  and  C11_14 
REMARK    5  A    between atoms: C11_14  and  C12_15 
REMARK    6  A    between atoms: C18_22  and  O2_23 
ROOT
HETATM    1  C8  UNL     1      23.275  -0.266  53.507  1.00  0.00     0.029 A 
HETATM    2  C9  UNL     1      22.533   0.188  52.538  1.00  0.00     0.106 A 
HETATM    3  N2  UNL     1      21.145  -0.084  52.632  1.00  0.00    -0.337 N 
HETATM    4  C18 UNL     1      20.632  -0.814  53.739  1.00  0.00     0.138 A 
HETATM    5  C19 UNL     1      21.429  -1.252  54.697  1.00  0.00     0.034 A 
HETATM    6  C20 UNL     1      22.898  -1.037  54.720  1.00  0.00     0.077 A 
ENDROOT
BRANCH   1   7
HETATM    7  C1  UNL     1      24.736  -0.036  53.501  1.00  0.00     0.253 C 
HETATM    8  O1  UNL     1      25.569  -0.156  54.466  1.00  0.00    -0.268 OA
HETATM    9  N1  UNL     1      25.510   0.381  52.356  1.00  0.00    -0.323 N 
HETATM   10  H1  UNL     1      24.980   0.535  51.449  1.00  0.00     0.169 HD
BRANCH   9  11
HETATM   11  C2  UNL     1      26.862   0.462  52.863  1.00  0.00     0.035 A 
HETATM   12  C3  UNL     1      27.329   1.708  53.238  1.00  0.00     0.029 A 
HETATM   13  C4  UNL     1      28.620   1.824  53.732  1.00  0.00     0.002 A 
HETATM   14  C5  UNL     1      29.382   0.683  53.827  1.00  0.00     0.000 A 
HETATM   15  C6  UNL     1      28.938  -0.554  53.463  1.00  0.00     0.002 A 
HETATM   16  C7  UNL     1      27.653  -0.667  52.971  1.00  0.00     0.029 A 
ENDBRANCH   9  11
ENDBRANCH   1   7
BRANCH   3  17
HETATM   17  C10 UNL     1      20.210   0.343  51.646  1.00  0.00     0.135 C 
BRANCH  17  18
HETATM   18  C11 UNL     1      20.830   0.879  50.379  1.00  0.00     0.058 C 
BRANCH  18  19
HETATM   19  C12 UNL     1      20.326   2.276  50.229  1.00  0.00    -0.055 A 
HETATM   20  C13 UNL     1      20.921   3.309  49.542  1.00  0.00     0.007 A 
HETATM   21  C14 UNL     1      20.345   4.559  49.488  1.00  0.00     0.002 A 
HETATM   22  C15 UNL     1      19.134   4.822  50.131  1.00  0.00     0.024 A 
HETATM   23  C16 UNL     1      18.520   3.798  50.828  1.00  0.00     0.034 A 
HETATM   24 CL1  UNL     1      16.989   4.093  51.651  1.00  0.00    -0.084 Cl
HETATM   25  C17 UNL     1      19.113   2.556  50.869  1.00  0.00     0.031 A 
ENDBRANCH  18  19
ENDBRANCH  17  18
ENDBRANCH   3  17
BRANCH   4  26
HETATM   26  O2  UNL     1      19.258  -1.103  53.870  1.00  0.00    -0.346 OA
HETATM   27  H16 UNL     1      18.724  -0.372  54.367  1.00  0.00     0.219 HD
ENDBRANCH   4  26
TORSDOF 6
ENDMDL
MODEL 8
REMARK VINA RESULT:      -7.4      7.748      9.596
REMARK  6 active torsions:
REMARK  status: ('A' for Active; 'I' for Inactive)
REMARK       I    between atoms: C1_2  and  N1_3 
REMARK    1  A    between atoms: C1_2  and  C8_10 
REMARK    2  A    between atoms: N1_3  and  C2_4 
REMARK    3  A    between atoms: N2_12  and  C10_13 
REMARK    4  A    between atoms: C10_13  and  C11_14 
REMARK    5  A    between atoms: C11_14  and  C12_15 
REMARK    6  A    between atoms: C18_22  and  O2_23 
ROOT
HETATM    1  C8  UNL     1      30.424   7.395  48.675  1.00  0.00     0.029 A 
HETATM    2  C9  UNL     1      29.134   7.224  48.625  1.00  0.00     0.106 A 
HETATM    3  N2  UNL     1      28.340   8.341  48.992  1.00  0.00    -0.337 N 
HETATM    4  C18 UNL     1      28.958   9.560  49.385  1.00  0.00     0.138 A 
HETATM    5  C19 UNL     1      30.272   9.680  49.418  1.00  0.00     0.034 A 
HETATM    6  C20 UNL     1      31.217   8.592  49.060  1.00  0.00     0.077 A 
ENDROOT
BRANCH   1   7
HETATM    7  C1  UNL     1      31.338   6.291  48.312  1.00  0.00     0.253 C 
HETATM    8  O1  UNL     1      31.653   5.255  48.997  1.00  0.00    -0.268 OA
HETATM    9  N1  UNL     1      32.066   6.184  47.071  1.00  0.00    -0.323 N 
HETATM   10  H1  UNL     1      31.929   6.966  46.366  1.00  0.00     0.169 HD
BRANCH   9  11
HETATM   11  C2  UNL     1      32.804   4.948  47.207  1.00  0.00     0.035 A 
HETATM   12  C3  UNL     1      32.179   3.783  46.801  1.00  0.00     0.029 A 
HETATM   13  C4  UNL     1      32.857   2.579  46.914  1.00  0.00     0.002 A 
HETATM   14  C5  UNL     1      34.133   2.600  47.428  1.00  0.00     0.000 A 
HETATM   15  C6  UNL     1      34.766   3.738  47.832  1.00  0.00     0.002 A 
HETATM   16  C7  UNL     1      34.088   4.936  47.719  1.00  0.00     0.029 A 
ENDBRANCH   9  11
ENDBRANCH   1   7
BRANCH   3  17
HETATM   17  C10 UNL     1      26.917   8.304  48.993  1.00  0.00     0.135 C 
BRANCH  17  18
HETATM   18  C11 UNL     1      26.301   7.643  47.784  1.00  0.00     0.058 C 
BRANCH  18  19
HETATM   19  C12 UNL     1      25.483   6.508  48.303  1.00  0.00    -0.055 A 
HETATM   20  C13 UNL     1      24.116   6.366  48.240  1.00  0.00     0.007 A 
HETATM   21  C14 UNL     1      23.485   5.261  48.766  1.00  0.00     0.002 A 
HETATM   22  C15 UNL     1      24.213   4.242  49.384  1.00  0.00     0.024 A 
HETATM   23  C16 UNL     1      25.588   4.365  49.458  1.00  0.00     0.034 A 
HETATM   24 CL1  UNL     1      26.541   3.098  50.231  1.00  0.00    -0.084 Cl
HETATM   25  C17 UNL     1      26.199   5.478  48.925  1.00  0.00     0.031 A 
ENDBRANCH  18  19
ENDBRANCH  17  18
ENDBRANCH   3  17
BRANCH   4  26
HETATM   26  O2  UNL     1      28.204  10.692  49.756  1.00  0.00    -0.346 OA
HETATM   27  H16 UNL     1      27.552  11.017  49.023  1.00  0.00     0.219 HD
ENDBRANCH   4  26
TORSDOF 6
ENDMDL
MODEL 9
REMARK VINA RESULT:      -7.4      5.650      7.295
REMARK  6 active torsions:
REMARK  status: ('A' for Active; 'I' for Inactive)
REMARK       I    between atoms: C1_2  and  N1_3 
REMARK    1  A    between atoms: C1_2  and  C8_10 
REMARK    2  A    between atoms: N1_3  and  C2_4 
REMARK    3  A    between atoms: N2_12  and  C10_13 
REMARK    4  A    between atoms: C10_13  and  C11_14 
REMARK    5  A    between atoms: C11_14  and  C12_15 
REMARK    6  A    between atoms: C18_22  and  O2_23 
ROOT
HETATM    1  C8  UNL     1      25.340   4.243  49.910  1.00  0.00     0.029 A 
HETATM    2  C9  UNL     1      25.959   5.372  49.712  1.00  0.00     0.106 A 
HETATM    3  N2  UNL     1      25.293   6.316  48.890  1.00  0.00    -0.337 N 
HETATM    4  C18 UNL     1      24.021   6.009  48.334  1.00  0.00     0.138 A 
HETATM    5  C19 UNL     1      23.436   4.849  48.566  1.00  0.00     0.034 A 
HETATM    6  C20 UNL     1      24.022   3.774  49.406  1.00  0.00     0.077 A 
ENDROOT
BRANCH   1   7
HETATM    7  C1  UNL     1      25.951   3.192  50.751  1.00  0.00     0.253 C 
HETATM    8  O1  UNL     1      26.901   2.384  50.458  1.00  0.00    -0.268 OA
HETATM    9  N1  UNL     1      25.567   2.881  52.107  1.00  0.00    -0.323 N 
HETATM   10  H1  UNL     1      24.780   3.457  52.527  1.00  0.00     0.169 HD
BRANCH   9  11
HETATM   11  C2  UNL     1      26.450   1.797  52.477  1.00  0.00     0.035 A 
HETATM   12  C3  UNL     1      26.042   0.511  52.178  1.00  0.00     0.029 A 
HETATM   13  C4  UNL     1      26.863  -0.554  52.515  1.00  0.00     0.002 A 
HETATM   14  C5  UNL     1      28.059  -0.278  53.137  1.00  0.00     0.000 A 
HETATM   15  C6  UNL     1      28.479   0.984  53.439  1.00  0.00     0.002 A 
HETATM   16  C7  UNL     1      27.658   2.042  53.103  1.00  0.00     0.029 A 
ENDBRANCH   9  11
ENDBRANCH   1   7
BRANCH   3  17
HETATM   17  C10 UNL     1      25.848   7.590  48.580  1.00  0.00     0.135 C 
BRANCH  17  18
HETATM   18  C11 UNL     1      26.736   7.611  47.359  1.00  0.00     0.058 C 
BRANCH  18  19
HETATM   19  C12 UNL     1      28.132   7.444  47.857  1.00  0.00    -0.055 A 
HETATM   20  C13 UNL     1      28.901   6.303  47.820  1.00  0.00     0.007 A 
HETATM   21  C14 UNL     1      30.183   6.287  48.323  1.00  0.00     0.002 A 
HETATM   22  C15 UNL     1      30.748   7.430  48.891  1.00  0.00     0.024 A 
HETATM   23  C16 UNL     1      29.993   8.587  48.938  1.00  0.00     0.034 A 
HETATM   24 CL1  UNL     1      30.675  10.051  49.646  1.00  0.00    -0.084 Cl
HETATM   25  C17 UNL     1      28.714   8.582  48.429  1.00  0.00     0.031 A 
ENDBRANCH  18  19
ENDBRANCH  17  18
ENDBRANCH   3  17
BRANCH   4  26
HETATM   26  O2  UNL     1      23.326   6.921  47.513  1.00  0.00    -0.346 OA
HETATM   27  H16 UNL     1      22.679   6.472  46.845  1.00  0.00     0.219 HD
ENDBRANCH   4  26
TORSDOF 6
ENDMDL
