MODEL 1
REMARK VINA RESULT:      -8.6      0.000      0.000
REMARK  6 active torsions:
REMARK  status: ('A' for Active; 'I' for Inactive)
REMARK    1  A    between atoms: O1_1  and  C1_2 
REMARK    2  A    between atoms: N3_19  and  C15_20 
REMARK    3  A    between atoms: C15_20  and  N4_21 
REMARK    4  A    between atoms: N4_21  and  C16_22 
REMARK    5  A    between atoms: C16_22  and  C17_23 
REMARK    6  A    between atoms: C17_23  and  N5_24 
ROOT
HETATM    1  C1  UNL     1      23.924   4.181  50.020  1.00  0.00     0.363 C 
HETATM    2  C2  UNL     1      25.367   4.076  49.607  1.00  0.00     0.105 C 
HETATM    3  C3  UNL     1      26.060   5.367  49.444  1.00  0.00    -0.027 A 
HETATM    4  C4  UNL     1      27.147   5.319  48.599  1.00  0.00     0.011 A 
HETATM    5  C5  UNL     1      27.970   6.371  48.273  1.00  0.00     0.020 A 
HETATM    6  C6  UNL     1      27.710   7.609  48.828  1.00  0.00     0.013 A 
HETATM    7 BR1  UNL     1      28.791   9.122  48.437  1.00  0.00    -0.051 Br
HETATM    8  C7  UNL     1      26.620   7.662  49.677  1.00  0.00     0.049 A 
HETATM    9  C8  UNL     1      25.808   6.604  49.992  1.00  0.00     0.041 A 
HETATM   10  N1  UNL     1      24.758   6.987  50.906  1.00  0.00    -0.340 N 
HETATM   11  C9  UNL     1      23.354   7.039  50.692  1.00  0.00     0.130 A 
HETATM   12  N2  UNL     1      23.368   8.129  50.093  1.00  0.00    -0.272 NA
HETATM   13  C10 UNL     1      22.230   8.804  49.574  1.00  0.00     0.155 A 
HETATM   14  C11 UNL     1      20.958   8.041  49.765  1.00  0.00     0.049 A 
HETATM   15  C12 UNL     1      21.181   6.793  50.491  1.00  0.00    -0.012 A 
HETATM   16  C13 UNL     1      22.223   6.179  50.992  1.00  0.00     0.012 A 
HETATM   17  C14 UNL     1      22.359   4.902  51.725  1.00  0.00     0.320 C 
HETATM   18  N3  UNL     1      23.709   4.430  51.416  1.00  0.00     0.138 NA
HETATM   19  H8  UNL     1      25.204   7.243  51.815  1.00  0.00     0.167 HD
ENDROOT
BRANCH  18  20
HETATM   20  C15 UNL     1      23.970   3.215  52.209  1.00  0.00     0.394 C 
BRANCH  20  21
HETATM   21  N4  UNL     1      24.999   3.331  53.152  1.00  0.00    -0.396 N 
HETATM   22  H18 UNL     1      25.080   4.224  53.681  1.00  0.00     0.154 HD
BRANCH  21  23
HETATM   23  C16 UNL     1      25.671   2.230  53.672  1.00  0.00     0.135 C 
BRANCH  23  24
HETATM   24  C17 UNL     1      27.122   2.019  53.583  1.00  0.00     0.136 C 
BRANCH  24  25
HETATM   25  N5  UNL     1      27.808   1.003  54.223  1.00  0.00    -0.411 N 
HETATM   26  C18 UNL     1      29.204   0.973  54.311  1.00  0.00     0.117 C 
HETATM   27  C19 UNL     1      29.908  -0.050  53.426  1.00  0.00     0.019 C 
HETATM   28  C20 UNL     1      29.198  -1.360  53.407  1.00  0.00     0.003 C 
HETATM   29  C21 UNL     1      27.753  -1.132  53.015  1.00  0.00     0.019 C 
HETATM   30  C22 UNL     1      27.179  -0.263  54.142  1.00  0.00     0.117 C 
ENDBRANCH  24  25
ENDBRANCH  23  24
ENDBRANCH  21  23
ENDBRANCH  20  21
ENDBRANCH  18  20
BRANCH   1  31
HETATM   31  O1  UNL     1      23.188   4.897  49.123  1.00  0.00    -0.367 OA
HETATM   32  H1  UNL     1      22.908   4.394  48.318  1.00  0.00     0.212 HD
ENDBRANCH   1  31
TORSDOF 6
ENDMDL
MODEL 2
REMARK VINA RESULT:      -8.6      3.254      5.725
REMARK  6 active torsions:
REMARK  status: ('A' for Active; 'I' for Inactive)
REMARK    1  A    between atoms: O1_1  and  C1_2 
REMARK    2  A    between atoms: N3_19  and  C15_20 
REMARK    3  A    between atoms: C15_20  and  N4_21 
REMARK    4  A    between atoms: N4_21  and  C16_22 
REMARK    5  A    between atoms: C16_22  and  C17_23 
REMARK    6  A    between atoms: C17_23  and  N5_24 
ROOT
HETATM    1  C1  UNL     1      23.611   3.955  50.663  1.00  0.00     0.363 C 
HETATM    2  C2  UNL     1      23.905   4.997  49.619  1.00  0.00     0.105 C 
HETATM    3  C3  UNL     1      25.326   5.112  49.241  1.00  0.00    -0.027 A 
HETATM    4  C4  UNL     1      25.673   6.341  48.724  1.00  0.00     0.011 A 
HETATM    5  C5  UNL     1      26.922   6.718  48.292  1.00  0.00     0.020 A 
HETATM    6  C6  UNL     1      27.951   5.799  48.368  1.00  0.00     0.013 A 
HETATM    7 BR1  UNL     1      29.712   6.227  47.794  1.00  0.00    -0.051 Br
HETATM    8  C7  UNL     1      27.608   4.564  48.885  1.00  0.00     0.049 A 
HETATM    9  C8  UNL     1      26.357   4.204  49.314  1.00  0.00     0.041 A 
HETATM   10  N1  UNL     1      26.326   2.844  49.799  1.00  0.00    -0.340 N 
HETATM   11  C9  UNL     1      26.102   2.365  51.118  1.00  0.00     0.130 A 
HETATM   12  N2  UNL     1      27.258   2.590  51.521  1.00  0.00    -0.272 NA
HETATM   13  C10 UNL     1      27.745   2.326  52.830  1.00  0.00     0.155 A 
HETATM   14  C11 UNL     1      26.697   1.781  53.747  1.00  0.00     0.049 A 
HETATM   15  C12 UNL     1      25.420   1.600  53.060  1.00  0.00    -0.012 A 
HETATM   16  C13 UNL     1      24.973   1.818  51.849  1.00  0.00     0.012 A 
HETATM   17  C14 UNL     1      23.648   1.599  51.230  1.00  0.00     0.320 C 
HETATM   18  N3  UNL     1      23.551   2.608  50.175  1.00  0.00     0.138 NA
HETATM   19  H8  UNL     1      26.508   2.212  48.988  1.00  0.00     0.167 HD
ENDROOT
BRANCH  18  20
HETATM   20  C15 UNL     1      22.303   2.379  49.425  1.00  0.00     0.394 C 
BRANCH  20  21
HETATM   21  N4  UNL     1      21.572   1.251  49.818  1.00  0.00    -0.396 N 
HETATM   22  H18 UNL     1      22.095   0.371  50.009  1.00  0.00     0.154 HD
BRANCH  21  23
HETATM   23  C16 UNL     1      20.274   1.329  50.311  1.00  0.00     0.135 C 
BRANCH  23  24
HETATM   24  C17 UNL     1      19.679   0.369  51.250  1.00  0.00     0.136 C 
BRANCH  24  25
HETATM   25  N5  UNL     1      19.728   0.486  52.628  1.00  0.00    -0.411 N 
HETATM   26  C18 UNL     1      20.721   1.216  53.289  1.00  0.00     0.117 C 
HETATM   27  C19 UNL     1      21.782   0.394  54.016  1.00  0.00     0.019 C 
HETATM   28  C20 UNL     1      21.194  -0.768  54.739  1.00  0.00     0.003 C 
HETATM   29  C21 UNL     1      20.371  -1.589  53.767  1.00  0.00     0.019 C 
HETATM   30  C22 UNL     1      19.243  -0.647  53.324  1.00  0.00     0.117 C 
ENDBRANCH  24  25
ENDBRANCH  23  24
ENDBRANCH  21  23
ENDBRANCH  20  21
ENDBRANCH  18  20
BRANCH   1  31
HETATM   31  O1  UNL     1      24.295   4.186  51.819  1.00  0.00    -0.367 OA
HETATM   32  H1  UNL     1      23.833   4.777  52.465  1.00  0.00     0.212 HD
ENDBRANCH   1  31
TORSDOF 6
ENDMDL
MODEL 3
REMARK VINA RESULT:      -8.5      3.651      5.537
REMARK  6 active torsions:
REMARK  status: ('A' for Active; 'I' for Inactive)
REMARK    1  A    between atoms: O1_1  and  C1_2 
REMARK    2  A    between atoms: N3_19  and  C15_20 
REMARK    3  A    between atoms: C15_20  and  N4_21 
REMARK    4  A    between atoms: N4_21  and  C16_22 
REMARK    5  A    between atoms: C16_22  and  C17_23 
REMARK    6  A    between atoms: C17_23  and  N5_24 
ROOT
HETATM    1  C1  UNL     1      24.320   2.922  52.487  1.00  0.00     0.363 C 
HETATM    2  C2  UNL     1      23.846   1.625  53.083  1.00  0.00     0.105 C 
HETATM    3  C3  UNL     1      22.486   1.218  52.681  1.00  0.00    -0.027 A 
HETATM    4  C4  UNL     1      21.864   0.375  53.574  1.00  0.00     0.011 A 
HETATM    5  C5  UNL     1      20.602  -0.156  53.447  1.00  0.00     0.020 A 
HETATM    6  C6  UNL     1      19.861   0.167  52.327  1.00  0.00     0.013 A 
HETATM    7 BR1  UNL     1      18.107  -0.518  52.064  1.00  0.00    -0.051 Br
HETATM    8  C7  UNL     1      20.481   1.013  51.428  1.00  0.00     0.049 A 
HETATM    9  C8  UNL     1      21.740   1.535  51.569  1.00  0.00     0.041 A 
HETATM   10  N1  UNL     1      22.098   2.383  50.456  1.00  0.00    -0.340 N 
HETATM   11  C9  UNL     1      22.327   3.785  50.432  1.00  0.00     0.130 A 
HETATM   12  N2  UNL     1      21.123   4.100  50.415  1.00  0.00    -0.272 NA
HETATM   13  C10 UNL     1      20.614   5.426  50.382  1.00  0.00     0.155 A 
HETATM   14  C11 UNL     1      21.686   6.467  50.425  1.00  0.00     0.049 A 
HETATM   15  C12 UNL     1      23.019   5.869  50.441  1.00  0.00    -0.012 A 
HETATM   16  C13 UNL     1      23.494   4.650  50.446  1.00  0.00     0.012 A 
HETATM   17  C14 UNL     1      24.877   4.127  50.459  1.00  0.00     0.320 C 
HETATM   18  N3  UNL     1      24.788   2.833  51.134  1.00  0.00     0.138 NA
HETATM   19  H8  UNL     1      22.167   1.781  49.606  1.00  0.00     0.167 HD
ENDROOT
BRANCH  18  20
HETATM   20  C15 UNL     1      26.112   2.187  51.081  1.00  0.00     0.394 C 
BRANCH  20  21
HETATM   21  N4  UNL     1      27.129   2.859  51.769  1.00  0.00    -0.396 N 
HETATM   22  H18 UNL     1      27.113   3.900  51.772  1.00  0.00     0.154 HD
BRANCH  21  23
HETATM   23  C16 UNL     1      27.926   2.241  52.727  1.00  0.00     0.135 C 
BRANCH  23  24
HETATM   24  C17 UNL     1      27.422   1.636  53.968  1.00  0.00     0.136 C 
BRANCH  24  25
HETATM   25  N5  UNL     1      27.690   0.342  54.375  1.00  0.00    -0.411 N 
HETATM   26  C18 UNL     1      28.992  -0.147  54.526  1.00  0.00     0.117 C 
HETATM   27  C19 UNL     1      29.466  -1.126  53.455  1.00  0.00     0.019 C 
HETATM   28  C20 UNL     1      28.408  -2.106  53.081  1.00  0.00     0.003 C 
HETATM   29  C21 UNL     1      27.156  -1.352  52.683  1.00  0.00     0.019 C 
HETATM   30  C22 UNL     1      26.729  -0.610  53.957  1.00  0.00     0.117 C 
ENDBRANCH  24  25
ENDBRANCH  23  24
ENDBRANCH  21  23
ENDBRANCH  20  21
ENDBRANCH  18  20
BRANCH   1  31
HETATM   31  O1  UNL     1      23.500   3.961  52.812  1.00  0.00    -0.367 OA
HETATM   32  H1  UNL     1      22.655   4.001  52.298  1.00  0.00     0.212 HD
ENDBRANCH   1  31
TORSDOF 6
ENDMDL
MODEL 4
REMARK VINA RESULT:      -8.5      1.527      2.306
REMARK  6 active torsions:
REMARK  status: ('A' for Active; 'I' for Inactive)
REMARK    1  A    between atoms: O1_1  and  C1_2 
REMARK    2  A    between atoms: N3_19  and  C15_20 
REMARK    3  A    between atoms: C15_20  and  N4_21 
REMARK    4  A    between atoms: N4_21  and  C16_22 
REMARK    5  A    between atoms: C16_22  and  C17_23 
REMARK    6  A    between atoms: C17_23  and  N5_24 
ROOT
HETATM    1  C1  UNL     1      25.564   3.442  49.734  1.00  0.00     0.363 C 
HETATM    2  C2  UNL     1      26.632   4.268  49.071  1.00  0.00     0.105 C 
HETATM    3  C3  UNL     1      26.414   5.726  49.129  1.00  0.00    -0.027 A 
HETATM    4  C4  UNL     1      27.049   6.430  48.130  1.00  0.00     0.011 A 
HETATM    5  C5  UNL     1      27.017   7.792  47.950  1.00  0.00     0.020 A 
HETATM    6  C6  UNL     1      26.289   8.558  48.840  1.00  0.00     0.013 A 
HETATM    7 BR1  UNL     1      26.186  10.449  48.672  1.00  0.00    -0.051 Br
HETATM    8  C7  UNL     1      25.651   7.856  49.845  1.00  0.00     0.049 A 
HETATM    9  C8  UNL     1      25.691   6.497  50.010  1.00  0.00     0.041 A 
HETATM   10  N1  UNL     1      24.921   6.073  51.155  1.00  0.00    -0.340 N 
HETATM   11  C9  UNL     1      23.732   5.295  51.201  1.00  0.00     0.130 A 
HETATM   12  N2  UNL     1      22.968   6.232  50.908  1.00  0.00    -0.272 NA
HETATM   13  C10 UNL     1      21.556   6.140  50.778  1.00  0.00     0.155 A 
HETATM   14  C11 UNL     1      21.037   4.753  50.980  1.00  0.00     0.049 A 
HETATM   15  C12 UNL     1      22.111   3.818  51.313  1.00  0.00    -0.012 A 
HETATM   16  C13 UNL     1      23.408   3.902  51.458  1.00  0.00     0.012 A 
HETATM   17  C14 UNL     1      24.431   2.893  51.806  1.00  0.00     0.320 C 
HETATM   18  N3  UNL     1      25.660   3.361  51.163  1.00  0.00     0.138 NA
HETATM   19  H8  UNL     1      25.388   6.446  52.011  1.00  0.00     0.167 HD
ENDROOT
BRANCH  18  20
HETATM   20  C15 UNL     1      26.763   2.469  51.563  1.00  0.00     0.394 C 
BRANCH  20  21
HETATM   21  N4  UNL     1      27.380   2.794  52.777  1.00  0.00    -0.396 N 
HETATM   22  H18 UNL     1      26.810   3.279  53.501  1.00  0.00     0.154 HD
BRANCH  21  23
HETATM   23  C16 UNL     1      28.563   2.201  53.203  1.00  0.00     0.135 C 
BRANCH  23  24
HETATM   24  C17 UNL     1      28.657   1.210  54.284  1.00  0.00     0.136 C 
BRANCH  24  25
HETATM   25  N5  UNL     1      27.992  -0.002  54.297  1.00  0.00    -0.411 N 
HETATM   26  C18 UNL     1      28.049  -0.906  53.231  1.00  0.00     0.117 C 
HETATM   27  C19 UNL     1      26.789  -1.013  52.377  1.00  0.00     0.019 C 
HETATM   28  C20 UNL     1      25.548  -1.010  53.203  1.00  0.00     0.003 C 
HETATM   29  C21 UNL     1      25.556   0.212  54.099  1.00  0.00     0.019 C 
HETATM   30  C22 UNL     1      26.772   0.012  55.014  1.00  0.00     0.117 C 
ENDBRANCH  24  25
ENDBRANCH  23  24
ENDBRANCH  21  23
ENDBRANCH  20  21
ENDBRANCH  18  20
BRANCH   1  31
HETATM   31  O1  UNL     1      24.335   3.666  49.188  1.00  0.00    -0.367 OA
HETATM   32  H1  UNL     1      23.846   4.438  49.567  1.00  0.00     0.212 HD
ENDBRANCH   1  31
TORSDOF 6
ENDMDL
MODEL 5
REMARK VINA RESULT:      -8.3      2.961      5.995
REMARK  6 active torsions:
REMARK  status: ('A' for Active; 'I' for Inactive)
REMARK    1  A    between atoms: O1_1  and  C1_2 
REMARK    2  A    between atoms: N3_19  and  C15_20 
REMARK    3  A    between atoms: C15_20  and  N4_21 
REMARK    4  A    between atoms: N4_21  and  C16_22 
REMARK    5  A    between atoms: C16_22  and  C17_23 
REMARK    6  A    between atoms: C17_23  and  N5_24 
ROOT
HETATM    1  C1  UNL     1      23.793   4.690  50.212  1.00  0.00     0.363 C 
HETATM    2  C2  UNL     1      24.336   5.698  49.237  1.00  0.00     0.105 C 
HETATM    3  C3  UNL     1      25.780   5.579  48.961  1.00  0.00    -0.027 A 
HETATM    4  C4  UNL     1      26.367   6.745  48.523  1.00  0.00     0.011 A 
HETATM    5  C5  UNL     1      27.691   6.914  48.193  1.00  0.00     0.020 A 
HETATM    6  C6  UNL     1      28.541   5.830  48.299  1.00  0.00     0.013 A 
HETATM    7 BR1  UNL     1      30.386   5.967  47.865  1.00  0.00    -0.051 Br
HETATM    8  C7  UNL     1      27.956   4.657  48.737  1.00  0.00     0.049 A 
HETATM    9  C8  UNL     1      26.634   4.504  49.064  1.00  0.00     0.041 A 
HETATM   10  N1  UNL     1      26.338   3.156  49.486  1.00  0.00    -0.340 N 
HETATM   11  C9  UNL     1      25.939   2.681  50.765  1.00  0.00     0.130 A 
HETATM   12  N2  UNL     1      27.082   2.691  51.254  1.00  0.00    -0.272 NA
HETATM   13  C10 UNL     1      27.419   2.306  52.581  1.00  0.00     0.155 A 
HETATM   14  C11 UNL     1      26.229   1.920  53.399  1.00  0.00     0.049 A 
HETATM   15  C12 UNL     1      24.994   1.984  52.620  1.00  0.00    -0.012 A 
HETATM   16  C13 UNL     1      24.682   2.313  51.393  1.00  0.00     0.012 A 
HETATM   17  C14 UNL     1      23.389   2.345  50.677  1.00  0.00     0.320 C 
HETATM   18  N3  UNL     1      23.542   3.388  49.663  1.00  0.00     0.138 NA
HETATM   19  H8  UNL     1      26.469   2.527  48.663  1.00  0.00     0.167 HD
ENDROOT
BRANCH  18  20
HETATM   20  C15 UNL     1      22.332   3.401  48.821  1.00  0.00     0.394 C 
BRANCH  20  21
HETATM   21  N4  UNL     1      21.480   2.304  48.989  1.00  0.00    -0.396 N 
HETATM   22  H18 UNL     1      21.863   1.452  49.450  1.00  0.00     0.154 HD
BRANCH  21  23
HETATM   23  C16 UNL     1      20.095   2.407  48.914  1.00  0.00     0.135 C 
BRANCH  23  24
HETATM   24  C17 UNL     1      19.153   1.512  49.599  1.00  0.00     0.136 C 
BRANCH  24  25
HETATM   25  N5  UNL     1      18.995   1.442  50.972  1.00  0.00    -0.411 N 
HETATM   26  C18 UNL     1      19.174   2.547  51.810  1.00  0.00     0.117 C 
HETATM   27  C19 UNL     1      20.445   2.546  52.654  1.00  0.00     0.019 C 
HETATM   28  C20 UNL     1      20.739   1.202  53.226  1.00  0.00     0.003 C 
HETATM   29  C21 UNL     1      20.772   0.185  52.103  1.00  0.00     0.019 C 
HETATM   30  C22 UNL     1      19.347   0.191  51.534  1.00  0.00     0.117 C 
ENDBRANCH  24  25
ENDBRANCH  23  24
ENDBRANCH  21  23
ENDBRANCH  20  21
ENDBRANCH  18  20
BRANCH   1  31
HETATM   31  O1  UNL     1      24.419   4.763  51.421  1.00  0.00    -0.367 OA
HETATM   32  H1  UNL     1      25.372   4.496  51.412  1.00  0.00     0.212 HD
ENDBRANCH   1  31
TORSDOF 6
ENDMDL
MODEL 6
REMARK VINA RESULT:      -8.2      2.759      6.496
REMARK  6 active torsions:
REMARK  status: ('A' for Active; 'I' for Inactive)
REMARK    1  A    between atoms: O1_1  and  C1_2 
REMARK    2  A    between atoms: N3_19  and  C15_20 
REMARK    3  A    between atoms: C15_20  and  N4_21 
REMARK    4  A    between atoms: N4_21  and  C16_22 
REMARK    5  A    between atoms: C16_22  and  C17_23 
REMARK    6  A    between atoms: C17_23  and  N5_24 
ROOT
HETATM    1  C1  UNL     1      23.501   3.506  52.741  1.00  0.00     0.363 C 
HETATM    2  C2  UNL     1      23.363   4.665  51.793  1.00  0.00     0.105 C 
HETATM    3  C3  UNL     1      24.524   4.886  50.910  1.00  0.00    -0.027 A 
HETATM    4  C4  UNL     1      24.640   6.178  50.446  1.00  0.00     0.011 A 
HETATM    5  C5  UNL     1      25.621   6.655  49.610  1.00  0.00     0.020 A 
HETATM    6  C6  UNL     1      26.600   5.783  49.175  1.00  0.00     0.013 A 
HETATM    7 BR1  UNL     1      27.997   6.351  48.018  1.00  0.00    -0.051 Br
HETATM    8  C7  UNL     1      26.488   4.485  49.638  1.00  0.00     0.049 A 
HETATM    9  C8  UNL     1      25.503   4.024  50.473  1.00  0.00     0.041 A 
HETATM   10  N1  UNL     1      25.667   2.621  50.771  1.00  0.00    -0.340 N 
HETATM   11  C9  UNL     1      25.976   1.995  52.009  1.00  0.00     0.130 A 
HETATM   12  N2  UNL     1      27.196   2.229  51.956  1.00  0.00    -0.272 NA
HETATM   13  C10 UNL     1      28.155   1.851  52.935  1.00  0.00     0.155 A 
HETATM   14  C11 UNL     1      27.549   1.163  54.115  1.00  0.00     0.049 A 
HETATM   15  C12 UNL     1      26.105   0.997  53.960  1.00  0.00    -0.012 A 
HETATM   16  C13 UNL     1      25.222   1.321  53.051  1.00  0.00     0.012 A 
HETATM   17  C14 UNL     1      23.761   1.107  52.973  1.00  0.00     0.320 C 
HETATM   18  N3  UNL     1      23.258   2.217  52.162  1.00  0.00     0.138 NA
HETATM   19  H8  UNL     1      25.519   2.087  49.886  1.00  0.00     0.167 HD
ENDROOT
BRANCH  18  20
HETATM   20  C15 UNL     1      21.817   2.010  51.933  1.00  0.00     0.394 C 
BRANCH  20  21
HETATM   21  N4  UNL     1      21.470   0.753  51.425  1.00  0.00    -0.396 N 
HETATM   22  H18 UNL     1      21.892  -0.088  51.870  1.00  0.00     0.154 HD
BRANCH  21  23
HETATM   23  C16 UNL     1      20.348   0.546  50.628  1.00  0.00     0.135 C 
BRANCH  23  24
HETATM   24  C17 UNL     1      19.794   1.535  49.694  1.00  0.00     0.136 C 
BRANCH  24  25
HETATM   25  N5  UNL     1      20.445   1.998  48.565  1.00  0.00    -0.411 N 
HETATM   26  C18 UNL     1      21.711   1.542  48.182  1.00  0.00     0.117 C 
HETATM   27  C19 UNL     1      22.865   2.515  48.399  1.00  0.00     0.019 C 
HETATM   28  C20 UNL     1      22.502   3.911  48.025  1.00  0.00     0.003 C 
HETATM   29  C21 UNL     1      21.243   4.308  48.769  1.00  0.00     0.019 C 
HETATM   30  C22 UNL     1      20.166   3.349  48.246  1.00  0.00     0.117 C 
ENDBRANCH  24  25
ENDBRANCH  23  24
ENDBRANCH  21  23
ENDBRANCH  20  21
ENDBRANCH  18  20
BRANCH   1  31
HETATM   31  O1  UNL     1      24.582   3.645  53.561  1.00  0.00    -0.367 OA
HETATM   32  H1  UNL     1      25.212   4.362  53.300  1.00  0.00     0.212 HD
ENDBRANCH   1  31
TORSDOF 6
ENDMDL
MODEL 7
REMARK VINA RESULT:      -8.0      4.248      8.158
REMARK  6 active torsions:
REMARK  status: ('A' for Active; 'I' for Inactive)
REMARK    1  A    between atoms: O1_1  and  C1_2 
REMARK    2  A    between atoms: N3_19  and  C15_20 
REMARK    3  A    between atoms: C15_20  and  N4_21 
REMARK    4  A    between atoms: N4_21  and  C16_22 
REMARK    5  A    between atoms: C16_22  and  C17_23 
REMARK    6  A    between atoms: C17_23  and  N5_24 
ROOT
HETATM    1  C1  UNL     1      22.521   2.808  51.029  1.00  0.00     0.363 C 
HETATM    2  C2  UNL     1      21.055   2.637  50.739  1.00  0.00     0.105 C 
HETATM    3  C3  UNL     1      20.398   1.549  51.486  1.00  0.00    -0.027 A 
HETATM    4  C4  UNL     1      19.265   1.053  50.879  1.00  0.00     0.011 A 
HETATM    5  C5  UNL     1      18.462   0.045  51.357  1.00  0.00     0.020 A 
HETATM    6  C6  UNL     1      18.794  -0.549  52.559  1.00  0.00     0.013 A 
HETATM    7 BR1  UNL     1      17.744  -1.950  53.299  1.00  0.00    -0.051 Br
HETATM    8  C7  UNL     1      19.930  -0.056  53.172  1.00  0.00     0.049 A 
HETATM    9  C8  UNL     1      20.722   0.950  52.683  1.00  0.00     0.041 A 
HETATM   10  N1  UNL     1      21.833   1.234  53.560  1.00  0.00    -0.340 N 
HETATM   11  C9  UNL     1      23.224   1.043  53.339  1.00  0.00     0.130 A 
HETATM   12  N2  UNL     1      23.214  -0.177  53.582  1.00  0.00    -0.272 NA
HETATM   13  C10 UNL     1      24.344  -1.038  53.544  1.00  0.00     0.155 A 
HETATM   14  C11 UNL     1      25.597  -0.343  53.120  1.00  0.00     0.049 A 
HETATM   15  C12 UNL     1      25.372   1.082  52.889  1.00  0.00    -0.012 A 
HETATM   16  C13 UNL     1      24.340   1.884  52.945  1.00  0.00     0.012 A 
HETATM   17  C14 UNL     1      24.201   3.335  52.696  1.00  0.00     0.320 C 
HETATM   18  N3  UNL     1      22.821   3.512  52.243  1.00  0.00     0.138 NA
HETATM   19  H8  UNL     1      21.447   1.625  54.448  1.00  0.00     0.167 HD
ENDROOT
BRANCH  18  20
HETATM   20  C15 UNL     1      22.563   4.954  52.087  1.00  0.00     0.394 C 
BRANCH  20  21
HETATM   21  N4  UNL     1      23.705   5.762  52.053  1.00  0.00    -0.396 N 
HETATM   22  H18 UNL     1      24.512   5.495  52.654  1.00  0.00     0.154 HD
BRANCH  21  23
HETATM   23  C16 UNL     1      23.961   6.662  51.023  1.00  0.00     0.135 C 
BRANCH  23  24
HETATM   24  C17 UNL     1      25.295   6.952  50.480  1.00  0.00     0.136 C 
BRANCH  24  25
HETATM   25  N5  UNL     1      25.739   6.547  49.234  1.00  0.00    -0.411 N 
HETATM   26  C18 UNL     1      26.125   5.231  48.961  1.00  0.00     0.117 C 
HETATM   27  C19 UNL     1      27.624   4.992  48.805  1.00  0.00     0.019 C 
HETATM   28  C20 UNL     1      28.286   6.073  48.022  1.00  0.00     0.003 C 
HETATM   29  C21 UNL     1      27.961   7.411  48.655  1.00  0.00     0.019 C 
HETATM   30  C22 UNL     1      26.439   7.545  48.514  1.00  0.00     0.117 C 
ENDBRANCH  24  25
ENDBRANCH  23  24
ENDBRANCH  21  23
ENDBRANCH  20  21
ENDBRANCH  18  20
BRANCH   1  31
HETATM   31  O1  UNL     1      23.230   1.676  50.756  1.00  0.00    -0.367 OA
HETATM   32  H1  UNL     1      23.812   1.732  49.957  1.00  0.00     0.212 HD
ENDBRANCH   1  31
TORSDOF 6
ENDMDL
MODEL 8
REMARK VINA RESULT:      -7.9      3.370      7.421
REMARK  6 active torsions:
REMARK  status: ('A' for Active; 'I' for Inactive)
REMARK    1  A    between atoms: O1_1  and  C1_2 
REMARK    2  A    between atoms: N3_19  and  C15_20 
REMARK    3  A    between atoms: C15_20  and  N4_21 
REMARK    4  A    between atoms: N4_21  and  C16_22 
REMARK    5  A    between atoms: C16_22  and  C17_23 
REMARK    6  A    between atoms: C17_23  and  N5_24 
ROOT
HETATM    1  C1  UNL     1      23.914   2.628  52.023  1.00  0.00     0.363 C 
HETATM    2  C2  UNL     1      25.385   2.883  51.835  1.00  0.00     0.105 C 
HETATM    3  C3  UNL     1      26.268   1.813  52.334  1.00  0.00    -0.027 A 
HETATM    4  C4  UNL     1      27.542   2.234  52.646  1.00  0.00     0.011 A 
HETATM    5  C5  UNL     1      28.563   1.449  53.127  1.00  0.00     0.020 A 
HETATM    6  C6  UNL     1      28.323   0.104  53.327  1.00  0.00     0.013 A 
HETATM    7 BR1  UNL     1      29.672  -1.061  53.987  1.00  0.00    -0.051 Br
HETATM    8  C7  UNL     1      27.046  -0.324  53.015  1.00  0.00     0.049 A 
HETATM    9  C8  UNL     1      26.038   0.471  52.538  1.00  0.00     0.041 A 
HETATM   10  N1  UNL     1      24.824  -0.278  52.311  1.00  0.00    -0.340 N 
HETATM   11  C9  UNL     1      23.573  -0.186  52.977  1.00  0.00     0.130 A 
HETATM   12  N2  UNL     1      23.919  -0.853  53.968  1.00  0.00    -0.272 NA
HETATM   13  C10 UNL     1      23.097  -1.167  55.085  1.00  0.00     0.155 A 
HETATM   14  C11 UNL     1      21.734  -0.559  54.998  1.00  0.00     0.049 A 
HETATM   15  C12 UNL     1      21.551   0.180  53.751  1.00  0.00    -0.012 A 
HETATM   16  C13 UNL     1      22.295   0.451  52.710  1.00  0.00     0.012 A 
HETATM   17  C14 UNL     1      22.024   1.214  51.472  1.00  0.00     0.320 C 
HETATM   18  N3  UNL     1      23.324   1.744  51.061  1.00  0.00     0.138 NA
HETATM   19  H8  UNL     1      25.005  -0.951  51.533  1.00  0.00     0.167 HD
ENDROOT
BRANCH  18  20
HETATM   20  C15 UNL     1      23.162   2.420  49.761  1.00  0.00     0.394 C 
BRANCH  20  21
HETATM   21  N4  UNL     1      22.702   3.740  49.831  1.00  0.00    -0.396 N 
HETATM   22  H18 UNL     1      22.295   4.069  50.732  1.00  0.00     0.154 HD
BRANCH  21  23
HETATM   23  C16 UNL     1      23.079   4.719  48.918  1.00  0.00     0.135 C 
BRANCH  23  24
HETATM   24  C17 UNL     1      23.266   6.139  49.246  1.00  0.00     0.136 C 
BRANCH  24  25
HETATM   25  N5  UNL     1      24.492   6.734  49.485  1.00  0.00    -0.411 N 
HETATM   26  C18 UNL     1      24.994   7.772  48.694  1.00  0.00     0.117 C 
HETATM   27  C19 UNL     1      26.138   7.402  47.754  1.00  0.00     0.019 C 
HETATM   28  C20 UNL     1      27.129   6.498  48.403  1.00  0.00     0.003 C 
HETATM   29  C21 UNL     1      26.404   5.290  48.959  1.00  0.00     0.019 C 
HETATM   30  C22 UNL     1      25.465   5.861  50.030  1.00  0.00     0.117 C 
ENDBRANCH  24  25
ENDBRANCH  23  24
ENDBRANCH  21  23
ENDBRANCH  20  21
ENDBRANCH  18  20
BRANCH   1  31
HETATM   31  O1  UNL     1      23.593   2.450  53.336  1.00  0.00    -0.367 OA
HETATM   32  H1  UNL     1      24.319   2.076  53.895  1.00  0.00     0.212 HD
ENDBRANCH   1  31
TORSDOF 6
ENDMDL
MODEL 9
REMARK VINA RESULT:      -7.7      2.524      6.990
REMARK  6 active torsions:
REMARK  status: ('A' for Active; 'I' for Inactive)
REMARK    1  A    between atoms: O1_1  and  C1_2 
REMARK    2  A    between atoms: N3_19  and  C15_20 
REMARK    3  A    between atoms: C15_20  and  N4_21 
REMARK    4  A    between atoms: N4_21  and  C16_22 
REMARK    5  A    between atoms: C16_22  and  C17_23 
REMARK    6  A    between atoms: C17_23  and  N5_24 
ROOT
HETATM    1  C1  UNL     1      23.655   4.081  50.772  1.00  0.00     0.363 C 
HETATM    2  C2  UNL     1      23.975   5.117  49.729  1.00  0.00     0.105 C 
HETATM    3  C3  UNL     1      25.391   5.173  49.324  1.00  0.00    -0.027 A 
HETATM    4  C4  UNL     1      25.781   6.390  48.809  1.00  0.00     0.011 A 
HETATM    5  C5  UNL     1      27.037   6.715  48.354  1.00  0.00     0.020 A 
HETATM    6  C6  UNL     1      28.027   5.751  48.405  1.00  0.00     0.013 A 
HETATM    7 BR1  UNL     1      29.793   6.107  47.799  1.00  0.00    -0.051 Br
HETATM    8  C7  UNL     1      27.640   4.529  48.920  1.00  0.00     0.049 A 
HETATM    9  C8  UNL     1      26.383   4.220  49.371  1.00  0.00     0.041 A 
HETATM   10  N1  UNL     1      26.303   2.860  49.848  1.00  0.00    -0.340 N 
HETATM   11  C9  UNL     1      26.084   2.381  51.168  1.00  0.00     0.130 A 
HETATM   12  N2  UNL     1      27.256   2.553  51.549  1.00  0.00    -0.272 NA
HETATM   13  C10 UNL     1      27.756   2.259  52.847  1.00  0.00     0.155 A 
HETATM   14  C11 UNL     1      26.703   1.752  53.780  1.00  0.00     0.049 A 
HETATM   15  C12 UNL     1      25.406   1.632  53.117  1.00  0.00    -0.012 A 
HETATM   16  C13 UNL     1      24.946   1.878  51.917  1.00  0.00     0.012 A 
HETATM   17  C14 UNL     1      23.602   1.721  51.323  1.00  0.00     0.320 C 
HETATM   18  N3  UNL     1      23.528   2.741  50.277  1.00  0.00     0.138 NA
HETATM   19  H8  UNL     1      26.442   2.226  49.030  1.00  0.00     0.167 HD
ENDROOT
BRANCH  18  20
HETATM   20  C15 UNL     1      22.257   2.571  49.550  1.00  0.00     0.394 C 
BRANCH  20  21
HETATM   21  N4  UNL     1      22.370   2.535  48.155  1.00  0.00    -0.396 N 
HETATM   22  H18 UNL     1      23.160   1.997  47.742  1.00  0.00     0.154 HD
BRANCH  21  23
HETATM   23  C16 UNL     1      21.317   2.856  47.305  1.00  0.00     0.135 C 
BRANCH  23  24
HETATM   24  C17 UNL     1      19.991   3.305  47.752  1.00  0.00     0.136 C 
BRANCH  24  25
HETATM   25  N5  UNL     1      19.612   4.629  47.877  1.00  0.00    -0.411 N 
HETATM   26  C18 UNL     1      20.215   5.659  47.148  1.00  0.00     0.117 C 
HETATM   27  C19 UNL     1      21.148   6.575  47.933  1.00  0.00     0.019 C 
HETATM   28  C20 UNL     1      20.601   6.920  49.275  1.00  0.00     0.003 C 
HETATM   29  C21 UNL     1      20.266   5.641  50.014  1.00  0.00     0.019 C 
HETATM   30  C22 UNL     1      19.163   4.985  49.172  1.00  0.00     0.117 C 
ENDBRANCH  24  25
ENDBRANCH  23  24
ENDBRANCH  21  23
ENDBRANCH  20  21
ENDBRANCH  18  20
BRANCH   1  31
HETATM   31  O1  UNL     1      24.371   4.273  51.916  1.00  0.00    -0.367 OA
HETATM   32  H1  UNL     1      24.940   5.083  51.919  1.00  0.00     0.212 HD
ENDBRANCH   1  31
TORSDOF 6
ENDMDL
