MODEL 1
REMARK VINA RESULT:      -7.1      0.000      0.000
REMARK  8 active torsions:
REMARK  status: ('A' for Active; 'I' for Inactive)
REMARK    1  A    between atoms: N1_2  and  C2_3 
REMARK    2  A    between atoms: C2_3  and  C3_4 
REMARK    3  A    between atoms: C5_6  and  N2_7 
REMARK    4  A    between atoms: C10_13  and  N3_14 
REMARK    5  A    between atoms: C13_18  and  C14_19 
REMARK    6  A    between atoms: C14_19  and  N5_20 
REMARK       I    between atoms: N5_20  and  C16_22 
REMARK    7  A    between atoms: C16_22  and  O2_24 
REMARK    8  A    between atoms: O2_24  and  C17_25 
ROOT
HETATM    1  C3  UNL     1      22.179   2.342  52.362  1.00  0.00    -0.011 A 
HETATM    2  C4  UNL     1      21.857   3.608  52.259  1.00  0.00     0.014 A 
HETATM    3  C5  UNL     1      22.919   4.632  52.554  1.00  0.00     0.146 A 
HETATM    4  C11 UNL     1      24.142   3.931  52.900  1.00  0.00     0.119 A 
HETATM    5  N4  UNL     1      24.451   2.672  52.999  1.00  0.00    -0.263 NA
HETATM    6  C12 UNL     1      23.419   1.680  52.718  1.00  0.00     0.061 A 
HETATM    7  C13 UNL     1      23.434   0.380  52.717  1.00  0.00     0.025 C 
ENDROOT
BRANCH   3   8
HETATM    8  N2  UNL     1      22.944   5.561  51.510  1.00  0.00    -0.369 N 
HETATM    9  C6  UNL     1      21.792   6.311  51.182  1.00  0.00     0.149 C 
HETATM   10  C7  UNL     1      21.768   6.341  49.668  1.00  0.00     0.012 C 
HETATM   11  C8  UNL     1      22.976   6.237  49.089  1.00  0.00     0.013 C 
HETATM   12 CL1  UNL     1      23.119   6.260  47.322  1.00  0.00    -0.089 Cl
HETATM   13  C9  UNL     1      24.332   6.080  49.699  1.00  0.00     0.107 C 
HETATM   14  C10 UNL     1      24.139   6.268  51.217  1.00  0.00     0.320 C 
BRANCH  14  15
HETATM   15  N3  UNL     1      23.932   7.710  51.340  1.00  0.00     0.101 N 
HETATM   16  H13 UNL     1      24.602   8.188  51.956  1.00  0.00     0.315 HD
HETATM   17  H14 UNL     1      23.743   8.173  50.417  1.00  0.00     0.315 HD
ENDBRANCH  14  15
ENDBRANCH   3   8
BRANCH   1  18
HETATM   18  C2  UNL     1      21.012   1.497  52.032  1.00  0.00     0.188 C 
BRANCH  18  19
HETATM   19  N1  UNL     1      20.683   1.596  50.633  1.00  0.00    -0.308 NA
HETATM   20  C1  UNL     1      21.261   0.962  49.703  1.00  0.00     0.142 C 
ENDBRANCH  18  19
ENDBRANCH   1  18
BRANCH   7  21
HETATM   21  C14 UNL     1      24.716  -0.014  53.083  1.00  0.00     0.157 C 
BRANCH  21  22
HETATM   22  N5  UNL     1      25.967  -0.397  53.440  1.00  0.00    -0.329 N 
HETATM   23  C15 UNL     1      26.647  -1.455  52.661  1.00  0.00     0.155 C 
HETATM   24  C16 UNL     1      26.669   0.161  54.578  1.00  0.00     0.363 C 
HETATM   25  O1  UNL     1      26.012   1.038  55.180  1.00  0.00    -0.238 OA
BRANCH  24  26
HETATM   26  O2  UNL     1      27.917  -0.320  54.846  1.00  0.00    -0.289 OA
BRANCH  26  27
HETATM   27  C17 UNL     1      29.116   0.357  54.439  1.00  0.00     0.295 C 
HETATM   28 CL2  UNL     1      30.168  -0.658  53.469  1.00  0.00    -0.101 Cl
ENDBRANCH  26  27
ENDBRANCH  24  26
ENDBRANCH  21  22
ENDBRANCH   7  21
TORSDOF 8
ENDMDL
MODEL 2
REMARK VINA RESULT:      -7.0      3.245      7.864
REMARK  8 active torsions:
REMARK  status: ('A' for Active; 'I' for Inactive)
REMARK    1  A    between atoms: N1_2  and  C2_3 
REMARK    2  A    between atoms: C2_3  and  C3_4 
REMARK    3  A    between atoms: C5_6  and  N2_7 
REMARK    4  A    between atoms: C10_13  and  N3_14 
REMARK    5  A    between atoms: C13_18  and  C14_19 
REMARK    6  A    between atoms: C14_19  and  N5_20 
REMARK       I    between atoms: N5_20  and  C16_22 
REMARK    7  A    between atoms: C16_22  and  O2_24 
REMARK    8  A    between atoms: O2_24  and  C17_25 
ROOT
HETATM    1  C3  UNL     1      25.859   2.772  51.000  1.00  0.00    -0.011 A 
HETATM    2  C4  UNL     1      26.792   2.352  51.820  1.00  0.00     0.014 A 
HETATM    3  C5  UNL     1      26.434   2.193  53.273  1.00  0.00     0.146 A 
HETATM    4  C11 UNL     1      25.039   2.558  53.440  1.00  0.00     0.119 A 
HETATM    5  N4  UNL     1      24.121   2.973  52.618  1.00  0.00    -0.263 NA
HETATM    6  C12 UNL     1      24.470   3.133  51.211  1.00  0.00     0.061 A 
HETATM    7  C13 UNL     1      23.778   3.505  50.175  1.00  0.00     0.025 C 
ENDROOT
BRANCH   3   8
HETATM    8  N2  UNL     1      26.859   0.931  53.700  1.00  0.00    -0.369 N 
HETATM    9  C6  UNL     1      27.618   0.788  54.884  1.00  0.00     0.149 C 
HETATM   10  C7  UNL     1      28.670  -0.248  54.545  1.00  0.00     0.012 C 
HETATM   11  C8  UNL     1      28.306  -1.121  53.591  1.00  0.00     0.013 C 
HETATM   12 CL1  UNL     1      29.424  -2.399  53.082  1.00  0.00    -0.089 Cl
HETATM   13  C9  UNL     1      27.040  -1.221  52.802  1.00  0.00     0.107 C 
HETATM   14  C10 UNL     1      26.062  -0.212  53.437  1.00  0.00     0.320 C 
BRANCH  14  15
HETATM   15  N3  UNL     1      25.680  -0.876  54.683  1.00  0.00     0.101 N 
HETATM   16  H13 UNL     1      24.871  -0.457  55.161  1.00  0.00     0.315 HD
HETATM   17  H14 UNL     1      25.675  -1.922  54.601  1.00  0.00     0.315 HD
ENDBRANCH  14  15
ENDBRANCH   3   8
BRANCH   1  18
HETATM   18  C2  UNL     1      26.399   2.861  49.628  1.00  0.00     0.188 C 
BRANCH  18  19
HETATM   19  N1  UNL     1      27.229   4.029  49.475  1.00  0.00    -0.308 NA
HETATM   20  C1  UNL     1      26.859   5.123  48.957  1.00  0.00     0.142 C 
ENDBRANCH  18  19
ENDBRANCH   1  18
BRANCH   7  21
HETATM   21  C14 UNL     1      22.494   3.792  50.625  1.00  0.00     0.157 C 
BRANCH  21  22
HETATM   22  N5  UNL     1      21.241   4.072  51.064  1.00  0.00    -0.329 N 
HETATM   23  C15 UNL     1      20.675   5.416  50.821  1.00  0.00     0.155 C 
HETATM   24  C16 UNL     1      20.431   3.120  51.796  1.00  0.00     0.363 C 
HETATM   25  O1  UNL     1      20.996   2.017  51.963  1.00  0.00    -0.238 OA
BRANCH  24  26
HETATM   26  O2  UNL     1      19.193   3.526  52.200  1.00  0.00    -0.289 OA
BRANCH  26  27
HETATM   27  C17 UNL     1      17.982   3.064  51.582  1.00  0.00     0.295 C 
HETATM   28 CL2  UNL     1      17.089   4.356  50.799  1.00  0.00    -0.101 Cl
ENDBRANCH  26  27
ENDBRANCH  24  26
ENDBRANCH  21  22
ENDBRANCH   7  21
TORSDOF 8
ENDMDL
MODEL 3
REMARK VINA RESULT:      -6.8      2.699      7.189
REMARK  8 active torsions:
REMARK  status: ('A' for Active; 'I' for Inactive)
REMARK    1  A    between atoms: N1_2  and  C2_3 
REMARK    2  A    between atoms: C2_3  and  C3_4 
REMARK    3  A    between atoms: C5_6  and  N2_7 
REMARK    4  A    between atoms: C10_13  and  N3_14 
REMARK    5  A    between atoms: C13_18  and  C14_19 
REMARK    6  A    between atoms: C14_19  and  N5_20 
REMARK       I    between atoms: N5_20  and  C16_22 
REMARK    7  A    between atoms: C16_22  and  O2_24 
REMARK    8  A    between atoms: O2_24  and  C17_25 
ROOT
HETATM    1  C3  UNL     1      22.864   1.657  52.485  1.00  0.00    -0.011 A 
HETATM    2  C4  UNL     1      23.805   0.746  52.524  1.00  0.00     0.014 A 
HETATM    3  C5  UNL     1      25.133   1.076  51.899  1.00  0.00     0.146 A 
HETATM    4  C11 UNL     1      25.062   2.426  51.369  1.00  0.00     0.119 A 
HETATM    5  N4  UNL     1      24.121   3.323  51.337  1.00  0.00    -0.263 NA
HETATM    6  C12 UNL     1      22.832   2.999  51.937  1.00  0.00     0.061 A 
HETATM    7  C13 UNL     1      21.733   3.682  52.070  1.00  0.00     0.025 C 
ENDROOT
BRANCH   3   8
HETATM    8  N2  UNL     1      26.145   0.761  52.811  1.00  0.00    -0.369 N 
HETATM    9  C6  UNL     1      26.640   1.736  53.706  1.00  0.00     0.149 C 
HETATM   10  C7  UNL     1      28.138   1.512  53.731  1.00  0.00     0.012 C 
HETATM   11  C8  UNL     1      28.518   0.251  53.465  1.00  0.00     0.013 C 
HETATM   12 CL1  UNL     1      30.238  -0.176  53.459  1.00  0.00    -0.089 Cl
HETATM   13  C9  UNL     1      27.702  -0.956  53.132  1.00  0.00     0.107 C 
HETATM   14  C10 UNL     1      26.230  -0.548  53.351  1.00  0.00     0.320 C 
BRANCH  14  15
HETATM   15  N3  UNL     1      26.119  -0.517  54.809  1.00  0.00     0.101 N 
HETATM   16  H13 UNL     1      25.173  -0.695  55.170  1.00  0.00     0.315 HD
HETATM   17  H14 UNL     1      26.899  -1.031  55.286  1.00  0.00     0.315 HD
ENDBRANCH  14  15
ENDBRANCH   3   8
BRANCH   1  18
HETATM   18  C2  UNL     1      21.644   1.149  53.147  1.00  0.00     0.188 C 
BRANCH  18  19
HETATM   19  N1  UNL     1      21.924  -0.052  53.891  1.00  0.00    -0.308 NA
HETATM   20  C1  UNL     1      21.068  -0.725  54.536  1.00  0.00     0.142 C 
ENDBRANCH  18  19
ENDBRANCH   1  18
BRANCH   7  21
HETATM   21  C14 UNL     1      21.948   4.920  51.475  1.00  0.00     0.157 C 
BRANCH  21  22
HETATM   22  N5  UNL     1      22.159   6.128  50.895  1.00  0.00    -0.329 N 
HETATM   23  C15 UNL     1      21.147   6.664  49.959  1.00  0.00     0.155 C 
HETATM   24  C16 UNL     1      23.353   6.915  51.123  1.00  0.00     0.363 C 
HETATM   25  O1  UNL     1      24.153   6.377  51.919  1.00  0.00    -0.238 OA
BRANCH  24  26
HETATM   26  O2  UNL     1      23.457   8.106  50.467  1.00  0.00    -0.289 OA
BRANCH  26  27
HETATM   27  C17 UNL     1      24.488   8.378  49.505  1.00  0.00     0.295 C 
HETATM   28 CL2  UNL     1      24.650   7.102  48.311  1.00  0.00    -0.101 Cl
ENDBRANCH  26  27
ENDBRANCH  24  26
ENDBRANCH  21  22
ENDBRANCH   7  21
TORSDOF 8
ENDMDL
MODEL 4
REMARK VINA RESULT:      -6.5      4.007      6.911
REMARK  8 active torsions:
REMARK  status: ('A' for Active; 'I' for Inactive)
REMARK    1  A    between atoms: N1_2  and  C2_3 
REMARK    2  A    between atoms: C2_3  and  C3_4 
REMARK    3  A    between atoms: C5_6  and  N2_7 
REMARK    4  A    between atoms: C10_13  and  N3_14 
REMARK    5  A    between atoms: C13_18  and  C14_19 
REMARK    6  A    between atoms: C14_19  and  N5_20 
REMARK       I    between atoms: N5_20  and  C16_22 
REMARK    7  A    between atoms: C16_22  and  O2_24 
REMARK    8  A    between atoms: O2_24  and  C17_25 
ROOT
HETATM    1  C3  UNL     1      25.482   1.312  52.106  1.00  0.00    -0.011 A 
HETATM    2  C4  UNL     1      24.523   0.858  52.875  1.00  0.00     0.014 A 
HETATM    3  C5  UNL     1      23.251   1.657  52.962  1.00  0.00     0.146 A 
HETATM    4  C11 UNL     1      23.388   2.822  52.106  1.00  0.00     0.119 A 
HETATM    5  N4  UNL     1      24.345   3.262  51.345  1.00  0.00    -0.263 NA
HETATM    6  C12 UNL     1      25.580   2.490  51.266  1.00  0.00     0.061 A 
HETATM    7  C13 UNL     1      26.679   2.665  50.594  1.00  0.00     0.025 C 
ENDROOT
BRANCH   3   8
HETATM    8  N2  UNL     1      22.169   0.795  52.763  1.00  0.00    -0.369 N 
HETATM    9  C6  UNL     1      21.978   0.152  51.518  1.00  0.00     0.149 C 
HETATM   10  C7  UNL     1      20.484   0.217  51.276  1.00  0.00     0.012 C 
HETATM   11  C8  UNL     1      19.740   0.267  52.394  1.00  0.00     0.013 C 
HETATM   12 CL1  UNL     1      17.972   0.342  52.281  1.00  0.00    -0.089 Cl
HETATM   13  C9  UNL     1      20.151   0.287  53.831  1.00  0.00     0.107 C 
HETATM   14  C10 UNL     1      21.670   0.021  53.842  1.00  0.00     0.320 C 
BRANCH  14  15
HETATM   15  N3  UNL     1      21.749  -1.406  53.539  1.00  0.00     0.101 N 
HETATM   16  H13 UNL     1      22.411  -1.933  54.124  1.00  0.00     0.315 HD
HETATM   17  H14 UNL     1      20.806  -1.845  53.400  1.00  0.00     0.315 HD
ENDBRANCH  14  15
ENDBRANCH   3   8
BRANCH   1  18
HETATM   18  C2  UNL     1      26.640   0.394  52.151  1.00  0.00     0.188 C 
BRANCH  18  19
HETATM   19  N1  UNL     1      26.246  -0.909  52.622  1.00  0.00    -0.308 NA
HETATM   20  C1  UNL     1      26.974  -1.944  52.594  1.00  0.00     0.142 C 
ENDBRANCH  18  19
ENDBRANCH   1  18
BRANCH   7  21
HETATM   21  C14 UNL     1      26.533   3.845  49.873  1.00  0.00     0.157 C 
BRANCH  21  22
HETATM   22  N5  UNL     1      26.389   4.996  49.170  1.00  0.00    -0.329 N 
HETATM   23  C15 UNL     1      25.048   5.610  49.059  1.00  0.00     0.155 C 
HETATM   24  C16 UNL     1      27.488   5.645  48.486  1.00  0.00     0.363 C 
HETATM   25  O1  UNL     1      28.577   5.049  48.627  1.00  0.00    -0.238 OA
BRANCH  24  26
HETATM   26  O2  UNL     1      27.213   6.789  47.796  1.00  0.00    -0.289 OA
BRANCH  26  27
HETATM   27  C17 UNL     1      28.111   7.909  47.755  1.00  0.00     0.295 C 
HETATM   28 CL2  UNL     1      28.215   8.748  49.293  1.00  0.00    -0.101 Cl
ENDBRANCH  26  27
ENDBRANCH  24  26
ENDBRANCH  21  22
ENDBRANCH   7  21
TORSDOF 8
ENDMDL
MODEL 5
REMARK VINA RESULT:      -6.4      5.183      7.501
REMARK  8 active torsions:
REMARK  status: ('A' for Active; 'I' for Inactive)
REMARK    1  A    between atoms: N1_2  and  C2_3 
REMARK    2  A    between atoms: C2_3  and  C3_4 
REMARK    3  A    between atoms: C5_6  and  N2_7 
REMARK    4  A    between atoms: C10_13  and  N3_14 
REMARK    5  A    between atoms: C13_18  and  C14_19 
REMARK    6  A    between atoms: C14_19  and  N5_20 
REMARK       I    between atoms: N5_20  and  C16_22 
REMARK    7  A    between atoms: C16_22  and  O2_24 
REMARK    8  A    between atoms: O2_24  and  C17_25 
ROOT
HETATM    1  C3  UNL     1      25.049   5.234  49.311  1.00  0.00    -0.011 A 
HETATM    2  C4  UNL     1      24.445   4.178  49.799  1.00  0.00     0.014 A 
HETATM    3  C5  UNL     1      25.260   2.931  50.004  1.00  0.00     0.146 A 
HETATM    4  C11 UNL     1      26.625   3.208  49.594  1.00  0.00     0.119 A 
HETATM    5  N4  UNL     1      27.215   4.261  49.112  1.00  0.00    -0.263 NA
HETATM    6  C12 UNL     1      26.422   5.468  48.907  1.00  0.00     0.061 A 
HETATM    7  C13 UNL     1      26.730   6.652  48.466  1.00  0.00     0.025 C 
ENDROOT
BRANCH   3   8
HETATM    8  N2  UNL     1      25.026   2.454  51.298  1.00  0.00    -0.369 N 
HETATM    9  C6  UNL     1      26.073   1.884  52.057  1.00  0.00     0.149 C 
HETATM   10  C7  UNL     1      25.444   0.692  52.748  1.00  0.00     0.012 C 
HETATM   11  C8  UNL     1      24.123   0.808  52.969  1.00  0.00     0.013 C 
HETATM   12 CL1  UNL     1      23.239  -0.501  53.772  1.00  0.00    -0.089 Cl
HETATM   13  C9  UNL     1      23.178   1.914  52.627  1.00  0.00     0.107 C 
HETATM   14  C10 UNL     1      24.053   3.079  52.119  1.00  0.00     0.320 C 
BRANCH  14  15
HETATM   15  N3  UNL     1      24.659   3.586  53.348  1.00  0.00     0.101 N 
HETATM   16  H13 UNL     1      25.489   3.067  53.663  1.00  0.00     0.315 HD
HETATM   17  H14 UNL     1      24.738   4.633  53.360  1.00  0.00     0.315 HD
ENDBRANCH  14  15
ENDBRANCH   3   8
BRANCH   1  18
HETATM   18  C2  UNL     1      24.089   6.351  49.186  1.00  0.00     0.188 C 
BRANCH  18  19
HETATM   19  N1  UNL     1      23.529   6.695  50.467  1.00  0.00    -0.308 NA
HETATM   20  C1  UNL     1      22.354   7.126  50.656  1.00  0.00     0.142 C 
ENDBRANCH  18  19
ENDBRANCH   1  18
BRANCH   7  21
HETATM   21  C14 UNL     1      28.084   6.629  48.150  1.00  0.00     0.157 C 
BRANCH  21  22
HETATM   22  N5  UNL     1      29.404   6.608  47.842  1.00  0.00    -0.329 N 
HETATM   23  C15 UNL     1      30.140   5.327  47.912  1.00  0.00     0.155 C 
HETATM   24  C16 UNL     1      30.148   7.795  47.474  1.00  0.00     0.363 C 
HETATM   25  O1  UNL     1      29.446   8.829  47.452  1.00  0.00    -0.238 OA
BRANCH  24  26
HETATM   26  O2  UNL     1      31.477   7.648  47.204  1.00  0.00    -0.289 OA
BRANCH  26  27
HETATM   27  C17 UNL     1      32.504   7.953  48.160  1.00  0.00     0.295 C 
HETATM   28 CL2  UNL     1      31.870   8.196  49.778  1.00  0.00    -0.101 Cl
ENDBRANCH  26  27
ENDBRANCH  24  26
ENDBRANCH  21  22
ENDBRANCH   7  21
TORSDOF 8
ENDMDL
MODEL 6
REMARK VINA RESULT:      -6.4      2.779      3.727
REMARK  8 active torsions:
REMARK  status: ('A' for Active; 'I' for Inactive)
REMARK    1  A    between atoms: N1_2  and  C2_3 
REMARK    2  A    between atoms: C2_3  and  C3_4 
REMARK    3  A    between atoms: C5_6  and  N2_7 
REMARK    4  A    between atoms: C10_13  and  N3_14 
REMARK    5  A    between atoms: C13_18  and  C14_19 
REMARK    6  A    between atoms: C14_19  and  N5_20 
REMARK       I    between atoms: N5_20  and  C16_22 
REMARK    7  A    between atoms: C16_22  and  O2_24 
REMARK    8  A    between atoms: O2_24  and  C17_25 
ROOT
HETATM    1  C3  UNL     1      21.534   0.453  52.687  1.00  0.00    -0.011 A 
HETATM    2  C4  UNL     1      20.621   1.187  52.098  1.00  0.00     0.014 A 
HETATM    3  C5  UNL     1      21.080   2.363  51.281  1.00  0.00     0.146 A 
HETATM    4  C11 UNL     1      22.530   2.412  51.330  1.00  0.00     0.119 A 
HETATM    5  N4  UNL     1      23.428   1.677  51.917  1.00  0.00    -0.263 NA
HETATM    6  C12 UNL     1      22.981   0.540  52.715  1.00  0.00     0.061 A 
HETATM    7  C13 UNL     1      23.629  -0.363  53.389  1.00  0.00     0.025 C 
ENDROOT
BRANCH   3   8
HETATM    8  N2  UNL     1      20.447   2.314  50.036  1.00  0.00    -0.369 N 
HETATM    9  C6  UNL     1      20.989   1.547  48.979  1.00  0.00     0.149 C 
HETATM   10  C7  UNL     1      20.808   2.407  47.746  1.00  0.00     0.012 C 
HETATM   11  C8  UNL     1      19.771   3.259  47.807  1.00  0.00     0.013 C 
HETATM   12 CL1  UNL     1      19.423   4.333  46.440  1.00  0.00    -0.089 Cl
HETATM   13  C9  UNL     1      18.783   3.505  48.900  1.00  0.00     0.107 C 
HETATM   14  C10 UNL     1      19.033   2.406  49.954  1.00  0.00     0.320 C 
BRANCH  14  15
HETATM   15  N3  UNL     1      18.471   1.216  49.318  1.00  0.00     0.101 N 
HETATM   16  H13 UNL     1      18.905   0.330  49.607  1.00  0.00     0.315 HD
HETATM   17  H14 UNL     1      17.422   1.228  49.291  1.00  0.00     0.315 HD
ENDBRANCH  14  15
ENDBRANCH   3   8
BRANCH   1  18
HETATM   18  C2  UNL     1      20.891  -0.647  53.435  1.00  0.00     0.188 C 
BRANCH  18  19
HETATM   19  N1  UNL     1      19.456  -0.524  53.400  1.00  0.00    -0.308 NA
HETATM   20  C1  UNL     1      18.641  -1.490  53.461  1.00  0.00     0.142 C 
ENDBRANCH  18  19
ENDBRANCH   1  18
BRANCH   7  21
HETATM   21  C14 UNL     1      24.983  -0.072  53.264  1.00  0.00     0.157 C 
BRANCH  21  22
HETATM   22  N5  UNL     1      26.304   0.213  53.141  1.00  0.00    -0.329 N 
HETATM   23  C15 UNL     1      26.814   0.722  51.849  1.00  0.00     0.155 C 
HETATM   24  C16 UNL     1      27.257   0.011  54.211  1.00  0.00     0.363 C 
HETATM   25  O1  UNL     1      26.737  -0.432  55.258  1.00  0.00    -0.238 OA
BRANCH  24  26
HETATM   26  O2  UNL     1      28.562   0.317  53.959  1.00  0.00    -0.289 OA
BRANCH  26  27
HETATM   27  C17 UNL     1      29.591  -0.680  53.856  1.00  0.00     0.295 C 
HETATM   28 CL2  UNL     1      29.001  -2.191  53.185  1.00  0.00    -0.101 Cl
ENDBRANCH  26  27
ENDBRANCH  24  26
ENDBRANCH  21  22
ENDBRANCH   7  21
TORSDOF 8
ENDMDL
MODEL 7
REMARK VINA RESULT:      -6.4      1.633      2.090
REMARK  8 active torsions:
REMARK  status: ('A' for Active; 'I' for Inactive)
REMARK    1  A    between atoms: N1_2  and  C2_3 
REMARK    2  A    between atoms: C2_3  and  C3_4 
REMARK    3  A    between atoms: C5_6  and  N2_7 
REMARK    4  A    between atoms: C10_13  and  N3_14 
REMARK    5  A    between atoms: C13_18  and  C14_19 
REMARK    6  A    between atoms: C14_19  and  N5_20 
REMARK       I    between atoms: N5_20  and  C16_22 
REMARK    7  A    between atoms: C16_22  and  O2_24 
REMARK    8  A    between atoms: O2_24  and  C17_25 
ROOT
HETATM    1  C3  UNL     1      21.918   1.371  52.185  1.00  0.00    -0.011 A 
HETATM    2  C4  UNL     1      21.418   2.523  51.808  1.00  0.00     0.014 A 
HETATM    3  C5  UNL     1      22.253   3.756  52.019  1.00  0.00     0.146 A 
HETATM    4  C11 UNL     1      23.510   3.356  52.624  1.00  0.00     0.119 A 
HETATM    5  N4  UNL     1      23.997   2.208  52.993  1.00  0.00    -0.263 NA
HETATM    6  C12 UNL     1      23.184   1.014  52.794  1.00  0.00     0.061 A 
HETATM    7  C13 UNL     1      23.404  -0.244  53.042  1.00  0.00     0.025 C 
ENDROOT
BRANCH   3   8
HETATM    8  N2  UNL     1      22.278   4.485  50.826  1.00  0.00    -0.369 N 
HETATM    9  C6  UNL     1      22.153   3.833  49.578  1.00  0.00     0.149 C 
HETATM   10  C7  UNL     1      23.151   4.529  48.676  1.00  0.00     0.012 C 
HETATM   11  C8  UNL     1      23.408   5.805  49.009  1.00  0.00     0.013 C 
HETATM   12 CL1  UNL     1      24.552   6.760  48.049  1.00  0.00    -0.089 Cl
HETATM   13  C9  UNL     1      22.882   6.637  50.133  1.00  0.00     0.107 C 
HETATM   14  C10 UNL     1      21.760   5.805  50.789  1.00  0.00     0.320 C 
BRANCH  14  15
HETATM   15  N3  UNL     1      20.672   5.910  49.818  1.00  0.00     0.101 N 
HETATM   16  H13 UNL     1      20.149   5.038  49.666  1.00  0.00     0.315 HD
HETATM   17  H14 UNL     1      20.096   6.777  49.947  1.00  0.00     0.315 HD
ENDBRANCH  14  15
ENDBRANCH   3   8
BRANCH   1  18
HETATM   18  C2  UNL     1      20.957   0.286  51.895  1.00  0.00     0.188 C 
BRANCH  18  19
HETATM   19  N1  UNL     1      19.834   0.339  52.796  1.00  0.00    -0.308 NA
HETATM   20  C1  UNL     1      18.826  -0.424  52.749  1.00  0.00     0.142 C 
ENDBRANCH  18  19
ENDBRANCH   1  18
BRANCH   7  21
HETATM   21  C14 UNL     1      24.667  -0.332  53.615  1.00  0.00     0.157 C 
BRANCH  21  22
HETATM   22  N5  UNL     1      25.900  -0.418  54.175  1.00  0.00    -0.329 N 
HETATM   23  C15 UNL     1      26.029  -0.348  55.647  1.00  0.00     0.155 C 
HETATM   24  C16 UNL     1      27.113  -0.543  53.395  1.00  0.00     0.363 C 
HETATM   25  O1  UNL     1      26.906  -0.583  52.163  1.00  0.00    -0.238 OA
BRANCH  24  26
HETATM   26  O2  UNL     1      28.295  -0.602  54.074  1.00  0.00    -0.289 OA
BRANCH  26  27
HETATM   27  C17 UNL     1      29.336   0.374  53.912  1.00  0.00     0.295 C 
HETATM   28 CL2  UNL     1      28.709   2.001  53.711  1.00  0.00    -0.101 Cl
ENDBRANCH  26  27
ENDBRANCH  24  26
ENDBRANCH  21  22
ENDBRANCH   7  21
TORSDOF 8
ENDMDL
MODEL 8
REMARK VINA RESULT:      -6.4      3.817      5.384
REMARK  8 active torsions:
REMARK  status: ('A' for Active; 'I' for Inactive)
REMARK    1  A    between atoms: N1_2  and  C2_3 
REMARK    2  A    between atoms: C2_3  and  C3_4 
REMARK    3  A    between atoms: C5_6  and  N2_7 
REMARK    4  A    between atoms: C10_13  and  N3_14 
REMARK    5  A    between atoms: C13_18  and  C14_19 
REMARK    6  A    between atoms: C14_19  and  N5_20 
REMARK       I    between atoms: N5_20  and  C16_22 
REMARK    7  A    between atoms: C16_22  and  O2_24 
REMARK    8  A    between atoms: O2_24  and  C17_25 
ROOT
HETATM    1  C3  UNL     1      25.659   1.957  51.370  1.00  0.00    -0.011 A 
HETATM    2  C4  UNL     1      25.870   2.865  50.448  1.00  0.00     0.014 A 
HETATM    3  C5  UNL     1      24.672   3.516  49.813  1.00  0.00     0.146 A 
HETATM    4  C11 UNL     1      23.477   2.957  50.418  1.00  0.00     0.119 A 
HETATM    5  N4  UNL     1      23.279   2.056  51.335  1.00  0.00    -0.263 NA
HETATM    6  C12 UNL     1      24.441   1.420  51.945  1.00  0.00     0.061 A 
HETATM    7  C13 UNL     1      24.557   0.519  52.876  1.00  0.00     0.025 C 
ENDROOT
BRANCH   3   8
HETATM    8  N2  UNL     1      24.855   4.902  49.835  1.00  0.00    -0.369 N 
HETATM    9  C6  UNL     1      24.747   5.626  51.045  1.00  0.00     0.149 C 
HETATM   10  C7  UNL     1      24.003   6.891  50.672  1.00  0.00     0.012 C 
HETATM   11  C8  UNL     1      24.166   7.279  49.396  1.00  0.00     0.013 C 
HETATM   12 CL1  UNL     1      23.364   8.744  48.803  1.00  0.00    -0.089 Cl
HETATM   13  C9  UNL     1      24.948   6.653  48.286  1.00  0.00     0.107 C 
HETATM   14  C10 UNL     1      25.762   5.512  48.931  1.00  0.00     0.320 C 
BRANCH  14  15
HETATM   15  N3  UNL     1      26.810   6.233  49.652  1.00  0.00     0.101 N 
HETATM   16  H13 UNL     1      26.549   6.532  50.600  1.00  0.00     0.315 HD
HETATM   17  H14 UNL     1      27.753   5.783  49.554  1.00  0.00     0.315 HD
ENDBRANCH  14  15
ENDBRANCH   3   8
BRANCH   1  18
HETATM   18  C2  UNL     1      26.950   1.439  51.870  1.00  0.00     0.188 C 
BRANCH  18  19
HETATM   19  N1  UNL     1      27.721   2.487  52.488  1.00  0.00    -0.308 NA
HETATM   20  C1  UNL     1      28.459   2.345  53.506  1.00  0.00     0.142 C 
ENDBRANCH  18  19
ENDBRANCH   1  18
BRANCH   7  21
HETATM   21  C14 UNL     1      23.269   0.168  53.265  1.00  0.00     0.157 C 
BRANCH  21  22
HETATM   22  N5  UNL     1      22.013  -0.175  53.644  1.00  0.00    -0.329 N 
HETATM   23  C15 UNL     1      21.748  -0.481  55.067  1.00  0.00     0.155 C 
HETATM   24  C16 UNL     1      20.911  -0.288  52.712  1.00  0.00     0.363 C 
HETATM   25  O1  UNL     1      21.232  -0.022  51.534  1.00  0.00    -0.238 OA
BRANCH  24  26
HETATM   26  O2  UNL     1      19.697  -0.658  53.213  1.00  0.00    -0.289 OA
BRANCH  26  27
HETATM   27  C17 UNL     1      18.467  -0.462  52.498  1.00  0.00     0.295 C 
HETATM   28 CL2  UNL     1      17.277  -1.704  52.849  1.00  0.00    -0.101 Cl
ENDBRANCH  26  27
ENDBRANCH  24  26
ENDBRANCH  21  22
ENDBRANCH   7  21
TORSDOF 8
ENDMDL
MODEL 9
REMARK VINA RESULT:      -6.2      4.686      7.929
REMARK  8 active torsions:
REMARK  status: ('A' for Active; 'I' for Inactive)
REMARK    1  A    between atoms: N1_2  and  C2_3 
REMARK    2  A    between atoms: C2_3  and  C3_4 
REMARK    3  A    between atoms: C5_6  and  N2_7 
REMARK    4  A    between atoms: C10_13  and  N3_14 
REMARK    5  A    between atoms: C13_18  and  C14_19 
REMARK    6  A    between atoms: C14_19  and  N5_20 
REMARK       I    between atoms: N5_20  and  C16_22 
REMARK    7  A    between atoms: C16_22  and  O2_24 
REMARK    8  A    between atoms: O2_24  and  C17_25 
ROOT
HETATM    1  C3  UNL     1      24.208   4.949  49.080  1.00  0.00    -0.011 A 
HETATM    2  C4  UNL     1      24.312   3.709  49.492  1.00  0.00     0.014 A 
HETATM    3  C5  UNL     1      25.692   3.144  49.686  1.00  0.00     0.146 A 
HETATM    4  C11 UNL     1      26.656   4.178  49.358  1.00  0.00     0.119 A 
HETATM    5  N4  UNL     1      26.542   5.407  48.950  1.00  0.00    -0.263 NA
HETATM    6  C12 UNL     1      25.204   5.952  48.756  1.00  0.00     0.061 A 
HETATM    7  C13 UNL     1      24.783   7.124  48.381  1.00  0.00     0.025 C 
ENDROOT
BRANCH   3   8
HETATM    8  N2  UNL     1      25.752   2.539  50.946  1.00  0.00    -0.369 N 
HETATM    9  C6  UNL     1      26.961   2.513  51.677  1.00  0.00     0.149 C 
HETATM   10  C7  UNL     1      27.014   1.127  52.287  1.00  0.00     0.012 C 
HETATM   11  C8  UNL     1      25.812   0.567  52.503  1.00  0.00     0.013 C 
HETATM   12 CL1  UNL     1      25.702  -1.053  53.215  1.00  0.00    -0.089 Cl
HETATM   13  C9  UNL     1      24.438   1.084  52.223  1.00  0.00     0.107 C 
HETATM   14  C10 UNL     1      24.616   2.555  51.795  1.00  0.00     0.320 C 
BRANCH  14  15
HETATM   15  N3  UNL     1      24.923   3.222  53.060  1.00  0.00     0.101 N 
HETATM   16  H13 UNL     1      24.574   4.186  53.131  1.00  0.00     0.315 HD
HETATM   17  H14 UNL     1      24.756   2.608  53.894  1.00  0.00     0.315 HD
ENDBRANCH  14  15
ENDBRANCH   3   8
BRANCH   1  18
HETATM   18  C2  UNL     1      22.783   5.319  48.952  1.00  0.00     0.188 C 
BRANCH  18  19
HETATM   19  N1  UNL     1      22.076   5.083  50.185  1.00  0.00    -0.308 NA
HETATM   20  C1  UNL     1      21.760   5.974  51.026  1.00  0.00     0.142 C 
ENDBRANCH  18  19
ENDBRANCH   1  18
BRANCH   7  21
HETATM   21  C14 UNL     1      25.909   7.901  48.132  1.00  0.00     0.157 C 
BRANCH  21  22
HETATM   22  N5  UNL     1      27.007   8.659  47.891  1.00  0.00    -0.329 N 
HETATM   23  C15 UNL     1      27.801   8.409  46.668  1.00  0.00     0.155 C 
HETATM   24  C16 UNL     1      27.467   9.692  48.795  1.00  0.00     0.363 C 
HETATM   25  O1  UNL     1      26.741   9.823  49.804  1.00  0.00    -0.238 OA
BRANCH  24  26
HETATM   26  O2  UNL     1      28.596  10.375  48.450  1.00  0.00    -0.289 OA
BRANCH  26  27
HETATM   27  C17 UNL     1      29.780  10.384  49.263  1.00  0.00     0.295 C 
HETATM   28 CL2  UNL     1      30.936  11.605  48.760  1.00  0.00    -0.101 Cl
ENDBRANCH  26  27
ENDBRANCH  24  26
ENDBRANCH  21  22
ENDBRANCH   7  21
TORSDOF 8
ENDMDL
