MODEL 1
REMARK VINA RESULT:      -6.5      0.000      0.000
REMARK  8 active torsions:
REMARK  status: ('A' for Active; 'I' for Inactive)
REMARK    1  A    between atoms: C2_2  and  O1_3 
REMARK    2  A    between atoms: C2_2  and  C3_4 
REMARK    3  A    between atoms: C4_5  and  C5_6 
REMARK    4  A    between atoms: C5_6  and  C6_7 
REMARK    5  A    between atoms: C6_7  and  C7_8 
REMARK    6  A    between atoms: C7_8  and  O2_9 
REMARK    7  A    between atoms: O2_9  and  C8_10 
REMARK    8  A    between atoms: C8_10  and  C10_12 
ROOT
HETATM    1  C8  UNL     1      22.451   2.103  52.356  1.00  0.00     0.172 C 
HETATM    2  C9  UNL     1      21.882   2.978  51.293  1.00  0.00     0.044 C 
ENDROOT
BRANCH   1   3
HETATM    3  O2  UNL     1      23.723   2.479  52.732  1.00  0.00    -0.381 OA
BRANCH   3   4
HETATM    4  C7  UNL     1      24.408   3.255  51.845  1.00  0.00     0.168 C 
BRANCH   4   5
HETATM    5  C6  UNL     1      25.634   2.586  51.282  1.00  0.00     0.030 C 
BRANCH   5   6
HETATM    6  C5  UNL     1      26.410   1.888  52.398  1.00  0.00     0.029 C 
BRANCH   6   7
HETATM    7  C4  UNL     1      26.620   0.452  52.073  1.00  0.00    -0.028 C 
HETATM    8  C3  UNL     1      27.487  -0.321  52.712  1.00  0.00    -0.000 C 
BRANCH   8   9
HETATM    9  C2  UNL     1      28.423  -0.037  53.830  1.00  0.00     0.136 C 
HETATM   10  C1  UNL     1      29.658  -0.913  53.687  1.00  0.00     0.043 C 
BRANCH   9  11
HETATM   11  O1  UNL     1      27.780  -0.397  55.013  1.00  0.00    -0.392 OA
HETATM   12  H5  UNL     1      28.424  -0.669  55.698  1.00  0.00     0.210 HD
ENDBRANCH   9  11
ENDBRANCH   8   9
ENDBRANCH   6   7
ENDBRANCH   5   6
ENDBRANCH   4   5
ENDBRANCH   3   4
ENDBRANCH   1   3
BRANCH   1  13
HETATM   13  C10 UNL     1      22.505   0.645  51.941  1.00  0.00     0.294 C 
HETATM   14  O3  UNL     1      23.416  -0.007  52.787  1.00  0.00    -0.330 OA
HETATM   15  C11 UNL     1      23.443  -0.627  54.027  1.00  0.00     0.138 C 
HETATM   16  C12 UNL     1      22.472  -1.205  54.750  1.00  0.00     0.024 C 
HETATM   17  C13 UNL     1      21.034  -1.401  54.510  1.00  0.00     0.000 C 
HETATM   18  C14 UNL     1      20.205  -0.795  53.651  1.00  0.00     0.004 C 
HETATM   19  C15 UNL     1      20.282   0.280  52.597  1.00  0.00     0.143 C 
HETATM   20  C16 UNL     1      18.987   0.095  51.790  1.00  0.00     0.044 C 
HETATM   21  O4  UNL     1      21.308   0.044  51.746  1.00  0.00    -0.350 OA
ENDBRANCH   1  13
TORSDOF 8
ENDMDL
MODEL 2
REMARK VINA RESULT:      -6.3      1.784      4.307
REMARK  8 active torsions:
REMARK  status: ('A' for Active; 'I' for Inactive)
REMARK    1  A    between atoms: C2_2  and  O1_3 
REMARK    2  A    between atoms: C2_2  and  C3_4 
REMARK    3  A    between atoms: C4_5  and  C5_6 
REMARK    4  A    between atoms: C5_6  and  C6_7 
REMARK    5  A    between atoms: C6_7  and  C7_8 
REMARK    6  A    between atoms: C7_8  and  O2_9 
REMARK    7  A    between atoms: O2_9  and  C8_10 
REMARK    8  A    between atoms: C8_10  and  C10_12 
ROOT
HETATM    1  C8  UNL     1      23.042   1.309  52.144  1.00  0.00     0.172 C 
HETATM    2  C9  UNL     1      21.675   1.211  52.730  1.00  0.00     0.044 C 
ENDROOT
BRANCH   1   3
HETATM    3  O2  UNL     1      23.907   0.362  52.648  1.00  0.00    -0.381 OA
BRANCH   3   4
HETATM    4  C7  UNL     1      23.442  -0.384  53.691  1.00  0.00     0.168 C 
BRANCH   4   5
HETATM    5  C6  UNL     1      24.522  -0.837  54.637  1.00  0.00     0.030 C 
BRANCH   5   6
HETATM    6  C5  UNL     1      25.897  -0.609  54.010  1.00  0.00     0.029 C 
BRANCH   6   7
HETATM    7  C4  UNL     1      26.792   0.109  54.957  1.00  0.00    -0.028 C 
HETATM    8  C3  UNL     1      28.034   0.463  54.659  1.00  0.00    -0.000 C 
BRANCH   8   9
HETATM    9  C2  UNL     1      28.843   0.278  53.426  1.00  0.00     0.136 C 
HETATM   10  C1  UNL     1      29.851  -0.839  53.649  1.00  0.00     0.043 C 
BRANCH   9  11
HETATM   11  O1  UNL     1      29.555   1.459  53.215  1.00  0.00    -0.392 OA
HETATM   12  H5  UNL     1      29.477   1.758  52.287  1.00  0.00     0.210 HD
ENDBRANCH   9  11
ENDBRANCH   8   9
ENDBRANCH   6   7
ENDBRANCH   5   6
ENDBRANCH   4   5
ENDBRANCH   3   4
ENDBRANCH   1   3
BRANCH   1  13
HETATM   13  C10 UNL     1      23.671   2.671  52.361  1.00  0.00     0.294 C 
HETATM   14  O3  UNL     1      25.044   2.478  52.581  1.00  0.00    -0.330 OA
HETATM   15  C11 UNL     1      26.217   2.338  51.855  1.00  0.00     0.138 C 
HETATM   16  C12 UNL     1      26.548   2.742  50.619  1.00  0.00     0.024 C 
HETATM   17  C13 UNL     1      25.808   3.475  49.580  1.00  0.00     0.000 C 
HETATM   18  C14 UNL     1      24.495   3.687  49.431  1.00  0.00     0.004 C 
HETATM   19  C15 UNL     1      23.220   3.334  50.156  1.00  0.00     0.143 C 
HETATM   20  C16 UNL     1      22.182   4.300  49.562  1.00  0.00     0.044 C 
HETATM   21  O4  UNL     1      23.319   3.631  51.473  1.00  0.00    -0.350 OA
ENDBRANCH   1  13
TORSDOF 8
ENDMDL
MODEL 3
REMARK VINA RESULT:      -6.3      1.857      7.270
REMARK  8 active torsions:
REMARK  status: ('A' for Active; 'I' for Inactive)
REMARK    1  A    between atoms: C2_2  and  O1_3 
REMARK    2  A    between atoms: C2_2  and  C3_4 
REMARK    3  A    between atoms: C4_5  and  C5_6 
REMARK    4  A    between atoms: C5_6  and  C6_7 
REMARK    5  A    between atoms: C6_7  and  C7_8 
REMARK    6  A    between atoms: C7_8  and  O2_9 
REMARK    7  A    between atoms: O2_9  and  C8_10 
REMARK    8  A    between atoms: C8_10  and  C10_12 
ROOT
HETATM    1  C8  UNL     1      25.995   0.889  53.126  1.00  0.00     0.172 C 
HETATM    2  C9  UNL     1      25.600   2.263  53.546  1.00  0.00     0.044 C 
ENDROOT
BRANCH   1   3
HETATM    3  O2  UNL     1      24.941   0.165  52.612  1.00  0.00    -0.381 OA
BRANCH   3   4
HETATM    4  C7  UNL     1      23.700   0.507  53.062  1.00  0.00     0.168 C 
BRANCH   4   5
HETATM    5  C6  UNL     1      23.071  -0.536  53.948  1.00  0.00     0.030 C 
BRANCH   5   6
HETATM    6  C5  UNL     1      21.703  -0.936  53.397  1.00  0.00     0.029 C 
BRANCH   6   7
HETATM    7  C4  UNL     1      20.917   0.269  53.020  1.00  0.00    -0.028 C 
HETATM    8  C3  UNL     1      19.621   0.236  52.743  1.00  0.00    -0.000 C 
BRANCH   8   9
HETATM    9  C2  UNL     1      18.646  -0.884  52.721  1.00  0.00     0.136 C 
HETATM   10  C1  UNL     1      17.471  -0.511  51.830  1.00  0.00     0.043 C 
BRANCH   9  11
HETATM   11  O1  UNL     1      18.163  -1.041  54.020  1.00  0.00    -0.392 OA
HETATM   12  H5  UNL     1      18.058  -0.176  54.465  1.00  0.00     0.210 HD
ENDBRANCH   9  11
ENDBRANCH   8   9
ENDBRANCH   6   7
ENDBRANCH   5   6
ENDBRANCH   4   5
ENDBRANCH   3   4
ENDBRANCH   1   3
BRANCH   1  13
HETATM   13  C10 UNL     1      26.597   0.085  54.263  1.00  0.00     0.294 C 
HETATM   14  O3  UNL     1      26.566  -1.269  53.892  1.00  0.00    -0.330 OA
HETATM   15  C11 UNL     1      27.330  -2.183  53.184  1.00  0.00     0.138 C 
HETATM   16  C12 UNL     1      28.641  -2.213  52.901  1.00  0.00     0.024 C 
HETATM   17  C13 UNL     1      29.751  -1.304  53.228  1.00  0.00     0.000 C 
HETATM   18  C14 UNL     1      29.741  -0.028  53.633  1.00  0.00     0.004 C 
HETATM   19  C15 UNL     1      28.717   1.036  53.938  1.00  0.00     0.143 C 
HETATM   20  C16 UNL     1      29.507   2.088  54.733  1.00  0.00     0.044 C 
HETATM   21  O4  UNL     1      27.760   0.558  54.768  1.00  0.00    -0.350 OA
ENDBRANCH   1  13
TORSDOF 8
ENDMDL
MODEL 4
REMARK VINA RESULT:      -6.3      2.123      4.947
REMARK  8 active torsions:
REMARK  status: ('A' for Active; 'I' for Inactive)
REMARK    1  A    between atoms: C2_2  and  O1_3 
REMARK    2  A    between atoms: C2_2  and  C3_4 
REMARK    3  A    between atoms: C4_5  and  C5_6 
REMARK    4  A    between atoms: C5_6  and  C6_7 
REMARK    5  A    between atoms: C6_7  and  C7_8 
REMARK    6  A    between atoms: C7_8  and  O2_9 
REMARK    7  A    between atoms: O2_9  and  C8_10 
REMARK    8  A    between atoms: C8_10  and  C10_12 
ROOT
HETATM    1  C8  UNL     1      23.094   2.590  51.491  1.00  0.00     0.172 C 
HETATM    2  C9  UNL     1      21.759   2.920  52.064  1.00  0.00     0.044 C 
ENDROOT
BRANCH   1   3
HETATM    3  O2  UNL     1      23.486   1.297  51.763  1.00  0.00    -0.381 OA
BRANCH   3   4
HETATM    4  C7  UNL     1      22.888   0.699  52.833  1.00  0.00     0.168 C 
BRANCH   4   5
HETATM    5  C6  UNL     1      23.592  -0.548  53.298  1.00  0.00     0.030 C 
BRANCH   5   6
HETATM    6  C5  UNL     1      25.105  -0.372  53.179  1.00  0.00     0.029 C 
BRANCH   6   7
HETATM    7  C4  UNL     1      25.717  -0.175  54.520  1.00  0.00    -0.028 C 
HETATM    8  C3  UNL     1      26.820   0.533  54.722  1.00  0.00    -0.000 C 
BRANCH   8   9
HETATM    9  C2  UNL     1      27.701   1.274  53.782  1.00  0.00     0.136 C 
HETATM   10  C1  UNL     1      29.154   0.971  54.110  1.00  0.00     0.043 C 
BRANCH   9  11
HETATM   11  O1  UNL     1      27.490   2.635  54.000  1.00  0.00    -0.392 OA
HETATM   12  H5  UNL     1      26.601   2.800  54.374  1.00  0.00     0.210 HD
ENDBRANCH   9  11
ENDBRANCH   8   9
ENDBRANCH   6   7
ENDBRANCH   5   6
ENDBRANCH   4   5
ENDBRANCH   3   4
ENDBRANCH   1   3
BRANCH   1  13
HETATM   13  C10 UNL     1      24.186   3.517  51.990  1.00  0.00     0.294 C 
HETATM   14  O3  UNL     1      25.422   2.909  51.717  1.00  0.00    -0.330 OA
HETATM   15  C11 UNL     1      26.339   2.807  50.683  1.00  0.00     0.138 C 
HETATM   16  C12 UNL     1      26.586   3.608  49.636  1.00  0.00     0.024 C 
HETATM   17  C13 UNL     1      25.992   4.878  49.192  1.00  0.00     0.000 C 
HETATM   18  C14 UNL     1      24.829   5.456  49.517  1.00  0.00     0.004 C 
HETATM   19  C15 UNL     1      23.646   5.158  50.403  1.00  0.00     0.143 C 
HETATM   20  C16 UNL     1      22.929   6.513  50.524  1.00  0.00     0.044 C 
HETATM   21  O4  UNL     1      24.053   4.820  51.649  1.00  0.00    -0.350 OA
ENDBRANCH   1  13
TORSDOF 8
ENDMDL
MODEL 5
REMARK VINA RESULT:      -6.2      2.341      6.193
REMARK  8 active torsions:
REMARK  status: ('A' for Active; 'I' for Inactive)
REMARK    1  A    between atoms: C2_2  and  O1_3 
REMARK    2  A    between atoms: C2_2  and  C3_4 
REMARK    3  A    between atoms: C4_5  and  C5_6 
REMARK    4  A    between atoms: C5_6  and  C6_7 
REMARK    5  A    between atoms: C6_7  and  C7_8 
REMARK    6  A    between atoms: C7_8  and  O2_9 
REMARK    7  A    between atoms: O2_9  and  C8_10 
REMARK    8  A    between atoms: C8_10  and  C10_12 
ROOT
HETATM    1  C8  UNL     1      25.309   1.251  53.305  1.00  0.00     0.172 C 
HETATM    2  C9  UNL     1      24.172   0.371  52.915  1.00  0.00     0.044 C 
ENDROOT
BRANCH   1   3
HETATM    3  O2  UNL     1      24.932   2.565  53.475  1.00  0.00    -0.381 OA
BRANCH   3   4
HETATM    4  C7  UNL     1      23.712   2.911  52.976  1.00  0.00     0.168 C 
BRANCH   4   5
HETATM    5  C6  UNL     1      23.695   4.258  52.304  1.00  0.00     0.030 C 
BRANCH   5   6
HETATM    6  C5  UNL     1      22.992   4.160  50.950  1.00  0.00     0.029 C 
BRANCH   6   7
HETATM    7  C4  UNL     1      23.737   3.253  50.037  1.00  0.00    -0.028 C 
HETATM    8  C3  UNL     1      23.163   2.266  49.363  1.00  0.00    -0.000 C 
BRANCH   8   9
HETATM    9  C2  UNL     1      21.754   1.799  49.308  1.00  0.00     0.136 C 
HETATM   10  C1  UNL     1      21.495   0.842  50.461  1.00  0.00     0.043 C 
BRANCH   9  11
HETATM   11  O1  UNL     1      21.598   1.086  48.120  1.00  0.00    -0.392 OA
HETATM   12  H5  UNL     1      22.189   1.430  47.420  1.00  0.00     0.210 HD
ENDBRANCH   9  11
ENDBRANCH   8   9
ENDBRANCH   6   7
ENDBRANCH   5   6
ENDBRANCH   4   5
ENDBRANCH   3   4
ENDBRANCH   1   3
BRANCH   1  13
HETATM   13  C10 UNL     1      26.440   1.221  52.294  1.00  0.00     0.294 C 
HETATM   14  O3  UNL     1      27.363   2.215  52.656  1.00  0.00    -0.330 OA
HETATM   15  C11 UNL     1      28.459   2.379  53.490  1.00  0.00     0.138 C 
HETATM   16  C12 UNL     1      29.326   1.492  54.000  1.00  0.00     0.024 C 
HETATM   17  C13 UNL     1      29.446   0.031  53.872  1.00  0.00     0.000 C 
HETATM   18  C14 UNL     1      28.556  -0.884  53.468  1.00  0.00     0.004 C 
HETATM   19  C15 UNL     1      27.128  -0.912  52.985  1.00  0.00     0.143 C 
HETATM   20  C16 UNL     1      26.987  -2.300  52.340  1.00  0.00     0.044 C 
HETATM   21  O4  UNL     1      26.936  -0.003  52.001  1.00  0.00    -0.350 OA
ENDBRANCH   1  13
TORSDOF 8
ENDMDL
MODEL 6
REMARK VINA RESULT:      -6.1      2.193      4.025
REMARK  8 active torsions:
REMARK  status: ('A' for Active; 'I' for Inactive)
REMARK    1  A    between atoms: C2_2  and  O1_3 
REMARK    2  A    between atoms: C2_2  and  C3_4 
REMARK    3  A    between atoms: C4_5  and  C5_6 
REMARK    4  A    between atoms: C5_6  and  C6_7 
REMARK    5  A    between atoms: C6_7  and  C7_8 
REMARK    6  A    between atoms: C7_8  and  O2_9 
REMARK    7  A    between atoms: O2_9  and  C8_10 
REMARK    8  A    between atoms: C8_10  and  C10_12 
ROOT
HETATM    1  C8  UNL     1      24.760   1.425  52.152  1.00  0.00     0.172 C 
HETATM    2  C9  UNL     1      24.444   0.432  53.216  1.00  0.00     0.044 C 
ENDROOT
BRANCH   1   3
HETATM    3  O2  UNL     1      25.994   2.015  52.321  1.00  0.00    -0.381 OA
BRANCH   3   4
HETATM    4  C7  UNL     1      26.506   1.987  53.585  1.00  0.00     0.168 C 
BRANCH   4   5
HETATM    5  C6  UNL     1      27.985   2.262  53.643  1.00  0.00     0.030 C 
BRANCH   5   6
HETATM    6  C5  UNL     1      28.759   1.099  53.023  1.00  0.00     0.029 C 
BRANCH   6   7
HETATM    7  C4  UNL     1      29.263   0.182  54.080  1.00  0.00    -0.028 C 
HETATM    8  C3  UNL     1      29.192  -1.139  53.992  1.00  0.00    -0.000 C 
BRANCH   8   9
HETATM    9  C2  UNL     1      28.649  -2.029  52.934  1.00  0.00     0.136 C 
HETATM   10  C1  UNL     1      27.165  -1.750  52.755  1.00  0.00     0.043 C 
BRANCH   9  11
HETATM   11  O1  UNL     1      28.784  -3.341  53.385  1.00  0.00    -0.392 OA
HETATM   12  H5  UNL     1      28.373  -3.457  54.266  1.00  0.00     0.210 HD
ENDBRANCH   9  11
ENDBRANCH   8   9
ENDBRANCH   6   7
ENDBRANCH   5   6
ENDBRANCH   4   5
ENDBRANCH   3   4
ENDBRANCH   1   3
BRANCH   1  13
HETATM   13  C10 UNL     1      23.727   2.533  52.066  1.00  0.00     0.294 C 
HETATM   14  O3  UNL     1      24.322   3.622  51.409  1.00  0.00    -0.330 OA
HETATM   15  C11 UNL     1      24.543   4.080  50.119  1.00  0.00     0.138 C 
HETATM   16  C12 UNL     1      23.899   3.834  48.969  1.00  0.00     0.024 C 
HETATM   17  C13 UNL     1      22.733   2.999  48.640  1.00  0.00     0.000 C 
HETATM   18  C14 UNL     1      22.157   2.000  49.319  1.00  0.00     0.004 C 
HETATM   19  C15 UNL     1      22.364   1.277  50.627  1.00  0.00     0.143 C 
HETATM   20  C16 UNL     1      21.035   0.538  50.851  1.00  0.00     0.044 C 
HETATM   21  O4  UNL     1      22.496   2.159  51.646  1.00  0.00    -0.350 OA
ENDBRANCH   1  13
TORSDOF 8
ENDMDL
MODEL 7
REMARK VINA RESULT:      -6.1      3.028      4.822
REMARK  8 active torsions:
REMARK  status: ('A' for Active; 'I' for Inactive)
REMARK    1  A    between atoms: C2_2  and  O1_3 
REMARK    2  A    between atoms: C2_2  and  C3_4 
REMARK    3  A    between atoms: C4_5  and  C5_6 
REMARK    4  A    between atoms: C5_6  and  C6_7 
REMARK    5  A    between atoms: C6_7  and  C7_8 
REMARK    6  A    between atoms: C7_8  and  O2_9 
REMARK    7  A    between atoms: O2_9  and  C8_10 
REMARK    8  A    between atoms: C8_10  and  C10_12 
ROOT
HETATM    1  C8  UNL     1      23.192   3.045  52.348  1.00  0.00     0.172 C 
HETATM    2  C9  UNL     1      21.791   3.530  52.194  1.00  0.00     0.044 C 
ENDROOT
BRANCH   1   3
HETATM    3  O2  UNL     1      24.126   3.997  52.002  1.00  0.00    -0.381 OA
BRANCH   3   4
HETATM    4  C7  UNL     1      23.686   5.010  51.202  1.00  0.00     0.168 C 
BRANCH   4   5
HETATM    5  C6  UNL     1      24.778   5.652  50.388  1.00  0.00     0.030 C 
BRANCH   5   6
HETATM    6  C5  UNL     1      25.094   4.793  49.164  1.00  0.00     0.029 C 
BRANCH   6   7
HETATM    7  C4  UNL     1      26.486   4.274  49.232  1.00  0.00    -0.028 C 
HETATM    8  C3  UNL     1      27.546   4.980  48.864  1.00  0.00    -0.000 C 
BRANCH   8   9
HETATM    9  C2  UNL     1      27.673   6.358  48.324  1.00  0.00     0.136 C 
HETATM   10  C1  UNL     1      29.039   6.521  47.675  1.00  0.00     0.043 C 
BRANCH   9  11
HETATM   11  O1  UNL     1      27.609   7.236  49.406  1.00  0.00    -0.392 OA
HETATM   12  H5  UNL     1      26.683   7.469  49.618  1.00  0.00     0.210 HD
ENDBRANCH   9  11
ENDBRANCH   8   9
ENDBRANCH   6   7
ENDBRANCH   5   6
ENDBRANCH   4   5
ENDBRANCH   3   4
ENDBRANCH   1   3
BRANCH   1  13
HETATM   13  C10 UNL     1      23.471   1.803  51.524  1.00  0.00     0.294 C 
HETATM   14  O3  UNL     1      24.844   1.782  51.233  1.00  0.00    -0.330 OA
HETATM   15  C11 UNL     1      26.034   1.358  51.803  1.00  0.00     0.138 C 
HETATM   16  C12 UNL     1      26.291   0.412  52.719  1.00  0.00     0.024 C 
HETATM   17  C13 UNL     1      25.424  -0.520  53.457  1.00  0.00     0.000 C 
HETATM   18  C14 UNL     1      24.102  -0.498  53.669  1.00  0.00     0.004 C 
HETATM   19  C15 UNL     1      22.931   0.382  53.311  1.00  0.00     0.143 C 
HETATM   20  C16 UNL     1      21.707  -0.506  53.588  1.00  0.00     0.044 C 
HETATM   21  O4  UNL     1      22.922   0.654  51.985  1.00  0.00    -0.350 OA
ENDBRANCH   1  13
TORSDOF 8
ENDMDL
MODEL 8
REMARK VINA RESULT:      -6.1      1.420      3.038
REMARK  8 active torsions:
REMARK  status: ('A' for Active; 'I' for Inactive)
REMARK    1  A    between atoms: C2_2  and  O1_3 
REMARK    2  A    between atoms: C2_2  and  C3_4 
REMARK    3  A    between atoms: C4_5  and  C5_6 
REMARK    4  A    between atoms: C5_6  and  C6_7 
REMARK    5  A    between atoms: C6_7  and  C7_8 
REMARK    6  A    between atoms: C7_8  and  O2_9 
REMARK    7  A    between atoms: O2_9  and  C8_10 
REMARK    8  A    between atoms: C8_10  and  C10_12 
ROOT
HETATM    1  C8  UNL     1      21.867  -0.379  52.971  1.00  0.00     0.172 C 
HETATM    2  C9  UNL     1      22.119  -1.145  54.224  1.00  0.00     0.044 C 
ENDROOT
BRANCH   1   3
HETATM    3  O2  UNL     1      23.003   0.224  52.477  1.00  0.00    -0.381 OA
BRANCH   3   4
HETATM    4  C7  UNL     1      24.118   0.137  53.258  1.00  0.00     0.168 C 
BRANCH   4   5
HETATM    5  C6  UNL     1      25.104   1.251  53.025  1.00  0.00     0.030 C 
BRANCH   5   6
HETATM    6  C5  UNL     1      26.261   0.755  52.158  1.00  0.00     0.029 C 
BRANCH   6   7
HETATM    7  C4  UNL     1      26.530  -0.685  52.417  1.00  0.00    -0.028 C 
HETATM    8  C3  UNL     1      27.577  -1.119  53.104  1.00  0.00    -0.000 C 
BRANCH   8   9
HETATM    9  C2  UNL     1      28.693  -0.393  53.762  1.00  0.00     0.136 C 
HETATM   10  C1  UNL     1      29.961  -1.229  53.669  1.00  0.00     0.043 C 
BRANCH   9  11
HETATM   11  O1  UNL     1      28.367  -0.264  55.112  1.00  0.00    -0.392 OA
HETATM   12  H5  UNL     1      27.429  -0.489  55.272  1.00  0.00     0.210 HD
ENDBRANCH   9  11
ENDBRANCH   8   9
ENDBRANCH   6   7
ENDBRANCH   5   6
ENDBRANCH   4   5
ENDBRANCH   3   4
ENDBRANCH   1   3
BRANCH   1  13
HETATM   13  C10 UNL     1      20.813   0.698  53.151  1.00  0.00     0.294 C 
HETATM   14  O3  UNL     1      21.010   1.660  52.147  1.00  0.00    -0.330 OA
HETATM   15  C11 UNL     1      20.654   1.893  50.828  1.00  0.00     0.138 C 
HETATM   16  C12 UNL     1      19.616   1.455  50.100  1.00  0.00     0.024 C 
HETATM   17  C13 UNL     1      18.479   0.576  50.416  1.00  0.00     0.000 C 
HETATM   18  C14 UNL     1      18.302  -0.294  51.418  1.00  0.00     0.004 C 
HETATM   19  C15 UNL     1      19.074  -0.784  52.617  1.00  0.00     0.143 C 
HETATM   20  C16 UNL     1      18.008  -1.475  53.482  1.00  0.00     0.044 C 
HETATM   21  O4  UNL     1      19.547   0.257  53.341  1.00  0.00    -0.350 OA
ENDBRANCH   1  13
TORSDOF 8
ENDMDL
MODEL 9
REMARK VINA RESULT:      -6.0      3.636      5.606
REMARK  8 active torsions:
REMARK  status: ('A' for Active; 'I' for Inactive)
REMARK    1  A    between atoms: C2_2  and  O1_3 
REMARK    2  A    between atoms: C2_2  and  C3_4 
REMARK    3  A    between atoms: C4_5  and  C5_6 
REMARK    4  A    between atoms: C5_6  and  C6_7 
REMARK    5  A    between atoms: C6_7  and  C7_8 
REMARK    6  A    between atoms: C7_8  and  O2_9 
REMARK    7  A    between atoms: O2_9  and  C8_10 
REMARK    8  A    between atoms: C8_10  and  C10_12 
ROOT
HETATM    1  C8  UNL     1      25.343   2.187  51.406  1.00  0.00     0.172 C 
HETATM    2  C9  UNL     1      26.802   2.485  51.370  1.00  0.00     0.044 C 
ENDROOT
BRANCH   1   3
HETATM    3  O2  UNL     1      24.622   2.939  50.504  1.00  0.00    -0.381 OA
BRANCH   3   4
HETATM    4  C7  UNL     1      25.337   3.520  49.498  1.00  0.00     0.168 C 
BRANCH   4   5
HETATM    5  C6  UNL     1      24.905   4.929  49.187  1.00  0.00     0.030 C 
BRANCH   5   6
HETATM    6  C5  UNL     1      26.129   5.818  48.975  1.00  0.00     0.029 C 
BRANCH   6   7
HETATM    7  C4  UNL     1      27.325   4.996  48.650  1.00  0.00    -0.028 C 
HETATM    8  C3  UNL     1      28.519   5.514  48.399  1.00  0.00    -0.000 C 
BRANCH   8   9
HETATM    9  C2  UNL     1      28.996   6.920  48.363  1.00  0.00     0.136 C 
HETATM   10  C1  UNL     1      29.162   7.360  46.917  1.00  0.00     0.043 C 
BRANCH   9  11
HETATM   11  O1  UNL     1      30.254   6.948  48.964  1.00  0.00    -0.392 OA
HETATM   12  H5  UNL     1      30.229   6.550  49.857  1.00  0.00     0.210 HD
ENDBRANCH   9  11
ENDBRANCH   8   9
ENDBRANCH   6   7
ENDBRANCH   5   6
ENDBRANCH   4   5
ENDBRANCH   3   4
ENDBRANCH   1   3
BRANCH   1  13
HETATM   13  C10 UNL     1      24.738   2.409  52.780  1.00  0.00     0.294 C 
HETATM   14  O3  UNL     1      23.341   2.411  52.637  1.00  0.00    -0.330 OA
HETATM   15  C11 UNL     1      22.286   1.513  52.602  1.00  0.00     0.138 C 
HETATM   16  C12 UNL     1      22.159   0.275  53.103  1.00  0.00     0.024 C 
HETATM   17  C13 UNL     1      23.071  -0.587  53.870  1.00  0.00     0.000 C 
HETATM   18  C14 UNL     1      24.399  -0.526  54.029  1.00  0.00     0.004 C 
HETATM   19  C15 UNL     1      25.538   0.350  53.568  1.00  0.00     0.143 C 
HETATM   20  C16 UNL     1      26.687  -0.013  54.522  1.00  0.00     0.044 C 
HETATM   21  O4  UNL     1      25.254   1.656  53.779  1.00  0.00    -0.350 OA
ENDBRANCH   1  13
TORSDOF 8
ENDMDL
