MODEL 1
REMARK VINA RESULT:      -7.8      0.000      0.000
REMARK  5 active torsions:
REMARK  status: ('A' for Active; 'I' for Inactive)
REMARK    1  A    between atoms: C4_5  and  C5_6 
REMARK    2  A    between atoms: C5_6  and  C6_7 
REMARK    3  A    between atoms: C6_7  and  N2_8 
REMARK       I    between atoms: N2_8  and  C7_9 
REMARK    4  A    between atoms: C11_15  and  N4_16 
REMARK    5  A    between atoms: N4_16  and  C12_17 
ROOT
HETATM    1  N2  UNL     1      28.025  -0.899  54.203  1.00  0.00    -0.199 NA
HETATM    2  C7  UNL     1      29.072  -0.000  53.947  1.00  0.00     0.348 C 
HETATM    3  O1  UNL     1      30.191  -0.490  53.566  1.00  0.00    -0.254 OA
HETATM    4  C8  UNL     1      29.017   1.404  54.068  1.00  0.00     0.164 C 
HETATM    5  N3  UNL     1      28.963   2.561  54.150  1.00  0.00    -0.186 NA
ENDROOT
BRANCH   1   6
HETATM    6  C6  UNL     1      26.905  -0.730  53.629  1.00  0.00     0.092 C 
BRANCH   6   7
HETATM    7  C5  UNL     1      25.942  -0.951  52.749  1.00  0.00     0.066 C 
BRANCH   7   8
HETATM    8  C4  UNL     1      25.099   0.211  52.696  1.00  0.00     0.067 A 
HETATM    9  N1  UNL     1      25.755   1.346  52.317  1.00  0.00    -0.260 NA
HETATM   10  C3  UNL     1      25.106   2.527  52.216  1.00  0.00     0.126 A 
HETATM   11  C2  UNL     1      23.755   2.624  52.494  1.00  0.00    -0.017 A 
HETATM   12  C1  UNL     1      22.977   3.869  52.409  1.00  0.00     0.052 C 
HETATM   13  C11 UNL     1      23.064   1.493  52.880  1.00  0.00     0.048 A 
HETATM   14  C9  UNL     1      23.759   0.299  52.974  1.00  0.00    -0.006 A 
HETATM   15  C10 UNL     1      23.124  -0.969  53.375  1.00  0.00     0.053 C 
BRANCH  13  16
HETATM   16  N4  UNL     1      21.681   1.407  53.204  1.00  0.00    -0.355 N 
HETATM   17  H9  UNL     1      21.584   1.703  54.200  1.00  0.00     0.166 HD
BRANCH  16  18
HETATM   18  C12 UNL     1      20.637   1.003  52.362  1.00  0.00     0.033 A 
HETATM   19  C13 UNL     1      20.643   1.411  51.054  1.00  0.00     0.029 A 
HETATM   20  C14 UNL     1      19.572   0.967  50.282  1.00  0.00     0.004 A 
HETATM   21  C15 UNL     1      18.581   0.183  50.784  1.00  0.00     0.019 A 
HETATM   22  C16 UNL     1      18.616  -0.208  52.122  1.00  0.00     0.013 A 
HETATM   23 BR1  UNL     1      17.239  -1.307  52.846  1.00  0.00    -0.051 Br
HETATM   24  C17 UNL     1      19.666   0.209  52.934  1.00  0.00     0.048 A 
ENDBRANCH  16  18
ENDBRANCH  13  16
ENDBRANCH   7   8
ENDBRANCH   6   7
ENDBRANCH   1   6
TORSDOF 5
ENDMDL
MODEL 2
REMARK VINA RESULT:      -7.6      1.818      2.702
REMARK  5 active torsions:
REMARK  status: ('A' for Active; 'I' for Inactive)
REMARK    1  A    between atoms: C4_5  and  C5_6 
REMARK    2  A    between atoms: C5_6  and  C6_7 
REMARK    3  A    between atoms: C6_7  and  N2_8 
REMARK       I    between atoms: N2_8  and  C7_9 
REMARK    4  A    between atoms: C11_15  and  N4_16 
REMARK    5  A    between atoms: N4_16  and  C12_17 
ROOT
HETATM    1  N2  UNL     1      28.502   2.247  52.853  1.00  0.00    -0.199 NA
HETATM    2  C7  UNL     1      28.951   1.514  53.963  1.00  0.00     0.348 C 
HETATM    3  O1  UNL     1      29.264   2.168  55.016  1.00  0.00    -0.254 OA
HETATM    4  C8  UNL     1      29.092   0.113  54.037  1.00  0.00     0.164 C 
HETATM    5  N3  UNL     1      29.189  -1.043  54.101  1.00  0.00    -0.186 NA
ENDROOT
BRANCH   1   6
HETATM    6  C6  UNL     1      27.394   1.943  52.313  1.00  0.00     0.092 C 
BRANCH   6   7
HETATM    7  C5  UNL     1      26.582   1.386  51.429  1.00  0.00     0.066 C 
BRANCH   7   8
HETATM    8  C4  UNL     1      25.343   1.070  52.085  1.00  0.00     0.067 A 
HETATM    9  N1  UNL     1      25.396  -0.070  52.834  1.00  0.00    -0.260 NA
HETATM   10  C3  UNL     1      24.314  -0.507  53.516  1.00  0.00     0.126 A 
HETATM   11  C2  UNL     1      23.119   0.186  53.477  1.00  0.00    -0.017 A 
HETATM   12  C1  UNL     1      21.899  -0.223  54.188  1.00  0.00     0.052 C 
HETATM   13  C11 UNL     1      23.035   1.342  52.728  1.00  0.00     0.048 A 
HETATM   14  C9  UNL     1      24.162   1.763  52.041  1.00  0.00    -0.006 A 
HETATM   15  C10 UNL     1      24.186   2.981  51.212  1.00  0.00     0.053 C 
BRANCH  13  16
HETATM   16  N4  UNL     1      21.893   2.177  52.573  1.00  0.00    -0.355 N 
HETATM   17  H9  UNL     1      22.040   3.008  53.187  1.00  0.00     0.166 HD
BRANCH  16  18
HETATM   18  C12 UNL     1      20.776   1.944  51.760  1.00  0.00     0.033 A 
HETATM   19  C13 UNL     1      20.869   1.021  50.753  1.00  0.00     0.029 A 
HETATM   20  C14 UNL     1      19.717   0.847  49.990  1.00  0.00     0.004 A 
HETATM   21  C15 UNL     1      18.572   1.543  50.220  1.00  0.00     0.019 A 
HETATM   22  C16 UNL     1      18.523   2.474  51.257  1.00  0.00     0.013 A 
HETATM   23 BR1  UNL     1      16.930   3.460  51.599  1.00  0.00    -0.051 Br
HETATM   24  C17 UNL     1      19.649   2.683  52.049  1.00  0.00     0.048 A 
ENDBRANCH  16  18
ENDBRANCH  13  16
ENDBRANCH   7   8
ENDBRANCH   6   7
ENDBRANCH   1   6
TORSDOF 5
ENDMDL
MODEL 3
REMARK VINA RESULT:      -7.4      3.569      4.300
REMARK  5 active torsions:
REMARK  status: ('A' for Active; 'I' for Inactive)
REMARK    1  A    between atoms: C4_5  and  C5_6 
REMARK    2  A    between atoms: C5_6  and  C6_7 
REMARK    3  A    between atoms: C6_7  and  N2_8 
REMARK       I    between atoms: N2_8  and  C7_9 
REMARK    4  A    between atoms: C11_15  and  N4_16 
REMARK    5  A    between atoms: N4_16  and  C12_17 
ROOT
HETATM    1  N2  UNL     1      26.959  -0.472  54.730  1.00  0.00    -0.199 NA
HETATM    2  C7  UNL     1      28.300  -0.123  54.506  1.00  0.00     0.348 C 
HETATM    3  O1  UNL     1      29.112  -1.062  54.203  1.00  0.00    -0.254 OA
HETATM    4  C8  UNL     1      28.849   1.174  54.582  1.00  0.00     0.164 C 
HETATM    5  N3  UNL     1      29.295   2.245  54.625  1.00  0.00    -0.186 NA
ENDROOT
BRANCH   1   6
HETATM    6  C6  UNL     1      26.043   0.130  54.089  1.00  0.00     0.092 C 
BRANCH   6   7
HETATM    7  C5  UNL     1      24.944   0.255  53.363  1.00  0.00     0.066 C 
BRANCH   7   8
HETATM    8  C4  UNL     1      25.159   1.281  52.382  1.00  0.00     0.067 A 
HETATM    9  N1  UNL     1      26.471   1.448  52.044  1.00  0.00    -0.260 NA
HETATM   10  C3  UNL     1      26.845   2.374  51.133  1.00  0.00     0.126 A 
HETATM   11  C2  UNL     1      25.910   3.183  50.515  1.00  0.00    -0.017 A 
HETATM   12  C1  UNL     1      26.234   4.212  49.516  1.00  0.00     0.052 C 
HETATM   13  C11 UNL     1      24.576   3.038  50.837  1.00  0.00     0.048 A 
HETATM   14  C9  UNL     1      24.226   2.080  51.774  1.00  0.00    -0.006 A 
HETATM   15  C10 UNL     1      22.834   1.839  52.193  1.00  0.00     0.053 C 
BRANCH  13  16
HETATM   16  N4  UNL     1      23.484   3.780  50.304  1.00  0.00    -0.355 N 
HETATM   17  H9  UNL     1      23.142   4.406  51.066  1.00  0.00     0.166 HD
BRANCH  16  18
HETATM   18  C12 UNL     1      22.955   3.697  49.009  1.00  0.00     0.033 A 
HETATM   19  C13 UNL     1      22.644   2.466  48.496  1.00  0.00     0.029 A 
HETATM   20  C14 UNL     1      22.122   2.469  47.205  1.00  0.00     0.004 A 
HETATM   21  C15 UNL     1      21.932   3.610  46.492  1.00  0.00     0.019 A 
HETATM   22  C16 UNL     1      22.264   4.843  47.055  1.00  0.00     0.013 A 
HETATM   23 BR1  UNL     1      22.006   6.455  46.075  1.00  0.00    -0.051 Br
HETATM   24  C17 UNL     1      22.788   4.892  48.343  1.00  0.00     0.048 A 
ENDBRANCH  16  18
ENDBRANCH  13  16
ENDBRANCH   7   8
ENDBRANCH   6   7
ENDBRANCH   1   6
TORSDOF 5
ENDMDL
MODEL 4
REMARK VINA RESULT:      -7.1      5.445      7.598
REMARK  5 active torsions:
REMARK  status: ('A' for Active; 'I' for Inactive)
REMARK    1  A    between atoms: C4_5  and  C5_6 
REMARK    2  A    between atoms: C5_6  and  C6_7 
REMARK    3  A    between atoms: C6_7  and  N2_8 
REMARK       I    between atoms: N2_8  and  C7_9 
REMARK    4  A    between atoms: C11_15  and  N4_16 
REMARK    5  A    between atoms: N4_16  and  C12_17 
ROOT
HETATM    1  N2  UNL     1      28.054   2.137  52.480  1.00  0.00    -0.199 NA
HETATM    2  C7  UNL     1      28.330   1.704  53.787  1.00  0.00     0.348 C 
HETATM    3  O1  UNL     1      29.115   2.424  54.495  1.00  0.00    -0.254 OA
HETATM    4  C8  UNL     1      27.823   0.544  54.407  1.00  0.00     0.164 C 
HETATM    5  N3  UNL     1      27.388  -0.402  54.921  1.00  0.00    -0.186 NA
ENDROOT
BRANCH   1   6
HETATM    6  C6  UNL     1      26.847   2.269  52.110  1.00  0.00     0.092 C 
BRANCH   6   7
HETATM    7  C5  UNL     1      25.781   2.094  51.345  1.00  0.00     0.066 C 
BRANCH   7   8
HETATM    8  C4  UNL     1      25.161   3.371  51.129  1.00  0.00     0.067 A 
HETATM    9  N1  UNL     1      24.143   3.640  51.998  1.00  0.00    -0.260 NA
HETATM   10  C3  UNL     1      23.456   4.801  51.930  1.00  0.00     0.126 A 
HETATM   11  C2  UNL     1      23.760   5.755  50.976  1.00  0.00    -0.017 A 
HETATM   12  C1  UNL     1      23.061   7.041  50.836  1.00  0.00     0.052 C 
HETATM   13  C11 UNL     1      24.784   5.512  50.083  1.00  0.00     0.048 A 
HETATM   14  C9  UNL     1      25.469   4.312  50.180  1.00  0.00    -0.006 A 
HETATM   15  C10 UNL     1      26.578   3.947  49.281  1.00  0.00     0.053 C 
BRANCH  13  16
HETATM   16  N4  UNL     1      25.232   6.374  49.043  1.00  0.00    -0.355 N 
HETATM   17  H9  UNL     1      24.604   6.213  48.225  1.00  0.00     0.166 HD
BRANCH  16  18
HETATM   18  C12 UNL     1      26.307   7.270  49.090  1.00  0.00     0.033 A 
HETATM   19  C13 UNL     1      26.379   8.168  50.121  1.00  0.00     0.029 A 
HETATM   20  C14 UNL     1      27.478   9.024  50.096  1.00  0.00     0.004 A 
HETATM   21  C15 UNL     1      28.420   8.981  49.117  1.00  0.00     0.019 A 
HETATM   22  C16 UNL     1      28.306   8.049  48.085  1.00  0.00     0.013 A 
HETATM   23 BR1  UNL     1      29.614   7.970  46.703  1.00  0.00    -0.051 Br
HETATM   24  C17 UNL     1      27.226   7.171  48.067  1.00  0.00     0.048 A 
ENDBRANCH  16  18
ENDBRANCH  13  16
ENDBRANCH   7   8
ENDBRANCH   6   7
ENDBRANCH   1   6
TORSDOF 5
ENDMDL
MODEL 5
REMARK VINA RESULT:      -6.9      4.192      6.091
REMARK  5 active torsions:
REMARK  status: ('A' for Active; 'I' for Inactive)
REMARK    1  A    between atoms: C4_5  and  C5_6 
REMARK    2  A    between atoms: C5_6  and  C6_7 
REMARK    3  A    between atoms: C6_7  and  N2_8 
REMARK       I    between atoms: N2_8  and  C7_9 
REMARK    4  A    between atoms: C11_15  and  N4_16 
REMARK    5  A    between atoms: N4_16  and  C12_17 
ROOT
HETATM    1  N2  UNL     1      24.831  -0.817  53.517  1.00  0.00    -0.199 NA
HETATM    2  C7  UNL     1      26.152  -0.458  53.203  1.00  0.00     0.348 C 
HETATM    3  O1  UNL     1      26.755  -1.147  52.310  1.00  0.00    -0.254 OA
HETATM    4  C8  UNL     1      26.890   0.597  53.778  1.00  0.00     0.164 C 
HETATM    5  N3  UNL     1      27.489   1.479  54.238  1.00  0.00    -0.186 NA
ENDROOT
BRANCH   1   6
HETATM    6  C6  UNL     1      23.919   0.065  53.470  1.00  0.00     0.092 C 
BRANCH   6   7
HETATM    7  C5  UNL     1      22.728   0.572  53.196  1.00  0.00     0.066 C 
BRANCH   7   8
HETATM    8  C4  UNL     1      22.842   1.400  52.028  1.00  0.00     0.067 A 
HETATM    9  N1  UNL     1      22.195   0.897  50.936  1.00  0.00    -0.260 NA
HETATM   10  C3  UNL     1      22.205   1.554  49.755  1.00  0.00     0.126 A 
HETATM   11  C2  UNL     1      22.871   2.758  49.615  1.00  0.00    -0.017 A 
HETATM   12  C1  UNL     1      22.929   3.533  48.367  1.00  0.00     0.052 C 
HETATM   13  C11 UNL     1      23.534   3.291  50.701  1.00  0.00     0.048 A 
HETATM   14  C9  UNL     1      23.505   2.592  51.897  1.00  0.00    -0.006 A 
HETATM   15  C10 UNL     1      24.177   3.067  53.120  1.00  0.00     0.053 C 
BRANCH  13  16
HETATM   16  N4  UNL     1      24.267   4.511  50.739  1.00  0.00    -0.355 N 
HETATM   17  H9  UNL     1      23.840   5.098  51.489  1.00  0.00     0.166 HD
BRANCH  16  18
HETATM   18  C12 UNL     1      25.353   4.872  49.932  1.00  0.00     0.033 A 
HETATM   19  C13 UNL     1      26.376   3.979  49.756  1.00  0.00     0.029 A 
HETATM   20  C14 UNL     1      27.418   4.413  48.940  1.00  0.00     0.004 A 
HETATM   21  C15 UNL     1      27.429   5.639  48.354  1.00  0.00     0.019 A 
HETATM   22  C16 UNL     1      26.366   6.517  48.561  1.00  0.00     0.013 A 
HETATM   23 BR1  UNL     1      26.360   8.241  47.751  1.00  0.00    -0.051 Br
HETATM   24  C17 UNL     1      25.300   6.129  49.369  1.00  0.00     0.048 A 
ENDBRANCH  16  18
ENDBRANCH  13  16
ENDBRANCH   7   8
ENDBRANCH   6   7
ENDBRANCH   1   6
TORSDOF 5
ENDMDL
MODEL 6
REMARK VINA RESULT:      -6.7      4.027      4.924
REMARK  5 active torsions:
REMARK  status: ('A' for Active; 'I' for Inactive)
REMARK    1  A    between atoms: C4_5  and  C5_6 
REMARK    2  A    between atoms: C5_6  and  C6_7 
REMARK    3  A    between atoms: C6_7  and  N2_8 
REMARK       I    between atoms: N2_8  and  C7_9 
REMARK    4  A    between atoms: C11_15  and  N4_16 
REMARK    5  A    between atoms: N4_16  and  C12_17 
ROOT
HETATM    1  N2  UNL     1      26.568  -0.418  52.905  1.00  0.00    -0.199 NA
HETATM    2  C7  UNL     1      27.629  -1.333  53.003  1.00  0.00     0.348 C 
HETATM    3  O1  UNL     1      27.380  -2.558  52.730  1.00  0.00    -0.254 OA
HETATM    4  C8  UNL     1      28.956  -1.037  53.376  1.00  0.00     0.164 C 
HETATM    5  N3  UNL     1      30.053  -0.786  53.664  1.00  0.00    -0.186 NA
ENDROOT
BRANCH   1   6
HETATM    6  C6  UNL     1      26.709   0.623  52.192  1.00  0.00     0.092 C 
BRANCH   6   7
HETATM    7  C5  UNL     1      27.045   1.872  51.912  1.00  0.00     0.066 C 
BRANCH   7   8
HETATM    8  C4  UNL     1      25.844   2.653  51.804  1.00  0.00     0.067 A 
HETATM    9  N1  UNL     1      25.057   2.605  52.918  1.00  0.00    -0.260 NA
HETATM   10  C3  UNL     1      23.891   3.285  52.979  1.00  0.00     0.126 A 
HETATM   11  C2  UNL     1      23.457   4.053  51.914  1.00  0.00    -0.017 A 
HETATM   12  C1  UNL     1      22.204   4.821  51.901  1.00  0.00     0.052 C 
HETATM   13  C11 UNL     1      24.232   4.121  50.774  1.00  0.00     0.048 A 
HETATM   14  C9  UNL     1      25.421   3.412  50.743  1.00  0.00    -0.006 A 
HETATM   15  C10 UNL     1      26.326   3.412  49.580  1.00  0.00     0.053 C 
BRANCH  13  16
HETATM   16  N4  UNL     1      23.944   4.856  49.590  1.00  0.00    -0.355 N 
HETATM   17  H9  UNL     1      24.429   5.776  49.678  1.00  0.00     0.166 HD
BRANCH  16  18
HETATM   18  C12 UNL     1      23.160   4.442  48.504  1.00  0.00     0.033 A 
HETATM   19  C13 UNL     1      22.699   3.153  48.472  1.00  0.00     0.029 A 
HETATM   20  C14 UNL     1      21.927   2.819  47.361  1.00  0.00     0.004 A 
HETATM   21  C15 UNL     1      21.647   3.706  46.370  1.00  0.00     0.019 A 
HETATM   22  C16 UNL     1      22.138   5.009  46.444  1.00  0.00     0.013 A 
HETATM   23 BR1  UNL     1      21.757   6.268  45.067  1.00  0.00    -0.051 Br
HETATM   24  C17 UNL     1      22.913   5.391  47.535  1.00  0.00     0.048 A 
ENDBRANCH  16  18
ENDBRANCH  13  16
ENDBRANCH   7   8
ENDBRANCH   6   7
ENDBRANCH   1   6
TORSDOF 5
ENDMDL
MODEL 7
REMARK VINA RESULT:      -6.7      3.535      4.373
REMARK  5 active torsions:
REMARK  status: ('A' for Active; 'I' for Inactive)
REMARK    1  A    between atoms: C4_5  and  C5_6 
REMARK    2  A    between atoms: C5_6  and  C6_7 
REMARK    3  A    between atoms: C6_7  and  N2_8 
REMARK       I    between atoms: N2_8  and  C7_9 
REMARK    4  A    between atoms: C11_15  and  N4_16 
REMARK    5  A    between atoms: N4_16  and  C12_17 
ROOT
HETATM    1  N2  UNL     1      27.135  -1.335  53.376  1.00  0.00    -0.199 NA
HETATM    2  C7  UNL     1      28.459  -1.800  53.343  1.00  0.00     0.348 C 
HETATM    3  O1  UNL     1      28.639  -3.059  53.209  1.00  0.00    -0.254 OA
HETATM    4  C8  UNL     1      29.624  -1.012  53.441  1.00  0.00     0.164 C 
HETATM    5  N3  UNL     1      30.582  -0.359  53.503  1.00  0.00    -0.186 NA
ENDROOT
BRANCH   1   6
HETATM    6  C6  UNL     1      26.777  -0.415  52.577  1.00  0.00     0.092 C 
BRANCH   6   7
HETATM    7  C5  UNL     1      26.716   0.809  52.077  1.00  0.00     0.066 C 
BRANCH   7   8
HETATM    8  C4  UNL     1      25.345   1.236  52.084  1.00  0.00     0.067 A 
HETATM    9  N1  UNL     1      24.550   0.509  52.923  1.00  0.00    -0.260 NA
HETATM   10  C3  UNL     1      23.232   0.783  53.048  1.00  0.00     0.126 A 
HETATM   11  C2  UNL     1      22.646   1.808  52.329  1.00  0.00    -0.017 A 
HETATM   12  C1  UNL     1      21.223   2.168  52.407  1.00  0.00     0.052 C 
HETATM   13  C11 UNL     1      23.424   2.560  51.473  1.00  0.00     0.048 A 
HETATM   14  C9  UNL     1      24.771   2.254  51.368  1.00  0.00    -0.006 A 
HETATM   15  C10 UNL     1      25.695   2.990  50.486  1.00  0.00     0.053 C 
BRANCH  13  16
HETATM   16  N4  UNL     1      22.993   3.646  50.660  1.00  0.00    -0.355 N 
HETATM   17  H9  UNL     1      22.972   4.492  51.270  1.00  0.00     0.166 HD
BRANCH  16  18
HETATM   18  C12 UNL     1      22.656   3.605  49.300  1.00  0.00     0.033 A 
HETATM   19  C13 UNL     1      22.302   2.407  48.740  1.00  0.00     0.029 A 
HETATM   20  C14 UNL     1      21.981   2.450  47.385  1.00  0.00     0.004 A 
HETATM   21  C15 UNL     1      22.015   3.598  46.659  1.00  0.00     0.019 A 
HETATM   22  C16 UNL     1      22.381   4.796  47.272  1.00  0.00     0.013 A 
HETATM   23 BR1  UNL     1      22.436   6.418  46.274  1.00  0.00    -0.051 Br
HETATM   24  C17 UNL     1      22.711   4.805  48.624  1.00  0.00     0.048 A 
ENDBRANCH  16  18
ENDBRANCH  13  16
ENDBRANCH   7   8
ENDBRANCH   6   7
ENDBRANCH   1   6
TORSDOF 5
ENDMDL
MODEL 8
REMARK VINA RESULT:      -6.7      5.401      7.217
REMARK  5 active torsions:
REMARK  status: ('A' for Active; 'I' for Inactive)
REMARK    1  A    between atoms: C4_5  and  C5_6 
REMARK    2  A    between atoms: C5_6  and  C6_7 
REMARK    3  A    between atoms: C6_7  and  N2_8 
REMARK       I    between atoms: N2_8  and  C7_9 
REMARK    4  A    between atoms: C11_15  and  N4_16 
REMARK    5  A    between atoms: N4_16  and  C12_17 
ROOT
HETATM    1  N2  UNL     1      26.562   8.588  48.688  1.00  0.00    -0.199 NA
HETATM    2  C7  UNL     1      27.620   9.355  49.200  1.00  0.00     0.348 C 
HETATM    3  O1  UNL     1      27.331  10.479  49.735  1.00  0.00    -0.254 OA
HETATM    4  C8  UNL     1      28.987   9.006  49.186  1.00  0.00     0.164 C 
HETATM    5  N3  UNL     1      30.109   8.708  49.191  1.00  0.00    -0.186 NA
ENDROOT
BRANCH   1   6
HETATM    6  C6  UNL     1      26.426   7.383  49.064  1.00  0.00     0.092 C 
BRANCH   6   7
HETATM    7  C5  UNL     1      26.699   6.090  49.132  1.00  0.00     0.066 C 
BRANCH   7   8
HETATM    8  C4  UNL     1      25.679   5.450  49.914  1.00  0.00     0.067 A 
HETATM    9  N1  UNL     1      24.844   6.325  50.546  1.00  0.00    -0.260 NA
HETATM   10  C3  UNL     1      23.829   5.885  51.322  1.00  0.00     0.126 A 
HETATM   11  C2  UNL     1      23.603   4.533  51.502  1.00  0.00    -0.017 A 
HETATM   12  C1  UNL     1      22.524   3.974  52.328  1.00  0.00     0.052 C 
HETATM   13  C11 UNL     1      24.432   3.623  50.876  1.00  0.00     0.048 A 
HETATM   14  C9  UNL     1      25.463   4.108  50.087  1.00  0.00    -0.006 A 
HETATM   15  C10 UNL     1      26.406   3.229  49.373  1.00  0.00     0.053 C 
BRANCH  13  16
HETATM   16  N4  UNL     1      24.350   2.204  50.947  1.00  0.00    -0.355 N 
HETATM   17  H9  UNL     1      23.997   1.874  50.023  1.00  0.00     0.166 HD
BRANCH  16  18
HETATM   18  C12 UNL     1      24.674   1.391  52.041  1.00  0.00     0.033 A 
HETATM   19  C13 UNL     1      23.693   0.624  52.612  1.00  0.00     0.029 A 
HETATM   20  C14 UNL     1      24.095  -0.157  53.693  1.00  0.00     0.004 A 
HETATM   21  C15 UNL     1      25.372  -0.164  54.159  1.00  0.00     0.019 A 
HETATM   22  C16 UNL     1      26.338   0.633  53.546  1.00  0.00     0.013 A 
HETATM   23 BR1  UNL     1      28.134   0.639  54.181  1.00  0.00    -0.051 Br
HETATM   24  C17 UNL     1      25.986   1.431  52.461  1.00  0.00     0.048 A 
ENDBRANCH  16  18
ENDBRANCH  13  16
ENDBRANCH   7   8
ENDBRANCH   6   7
ENDBRANCH   1   6
TORSDOF 5
ENDMDL
MODEL 9
REMARK VINA RESULT:      -6.6      3.976      7.323
REMARK  5 active torsions:
REMARK  status: ('A' for Active; 'I' for Inactive)
REMARK    1  A    between atoms: C4_5  and  C5_6 
REMARK    2  A    between atoms: C5_6  and  C6_7 
REMARK    3  A    between atoms: C6_7  and  N2_8 
REMARK       I    between atoms: N2_8  and  C7_9 
REMARK    4  A    between atoms: C11_15  and  N4_16 
REMARK    5  A    between atoms: N4_16  and  C12_17 
ROOT
HETATM    1  N2  UNL     1      19.773   5.654  49.879  1.00  0.00    -0.199 NA
HETATM    2  C7  UNL     1      19.346   4.348  50.166  1.00  0.00     0.348 C 
HETATM    3  O1  UNL     1      18.821   3.675  49.214  1.00  0.00    -0.254 OA
HETATM    4  C8  UNL     1      19.439   3.693  51.412  1.00  0.00     0.164 C 
HETATM    5  N3  UNL     1      19.535   3.150  52.434  1.00  0.00    -0.186 NA
ENDROOT
BRANCH   1   6
HETATM    6  C6  UNL     1      20.965   5.993  50.153  1.00  0.00     0.092 C 
BRANCH   6   7
HETATM    7  C5  UNL     1      21.976   6.393  50.909  1.00  0.00     0.066 C 
BRANCH   7   8
HETATM    8  C4  UNL     1      23.105   5.546  50.644  1.00  0.00     0.067 A 
HETATM    9  N1  UNL     1      23.479   5.527  49.332  1.00  0.00    -0.260 NA
HETATM   10  C3  UNL     1      24.526   4.780  48.915  1.00  0.00     0.126 A 
HETATM   11  C2  UNL     1      25.251   4.009  49.804  1.00  0.00    -0.017 A 
HETATM   12  C1  UNL     1      26.399   3.171  49.432  1.00  0.00     0.052 C 
HETATM   13  C11 UNL     1      24.896   4.008  51.138  1.00  0.00     0.048 A 
HETATM   14  C9  UNL     1      23.819   4.784  51.533  1.00  0.00    -0.006 A 
HETATM   15  C10 UNL     1      23.353   4.859  52.929  1.00  0.00     0.053 C 
BRANCH  13  16
HETATM   16  N4  UNL     1      25.525   3.280  52.187  1.00  0.00    -0.355 N 
HETATM   17  H9  UNL     1      26.074   3.969  52.747  1.00  0.00     0.166 HD
BRANCH  16  18
HETATM   18  C12 UNL     1      25.436   1.904  52.436  1.00  0.00     0.033 A 
HETATM   19  C13 UNL     1      26.556   1.130  52.290  1.00  0.00     0.029 A 
HETATM   20  C14 UNL     1      26.387  -0.227  52.556  1.00  0.00     0.004 A 
HETATM   21  C15 UNL     1      25.194  -0.757  52.934  1.00  0.00     0.019 A 
HETATM   22  C16 UNL     1      24.079   0.070  53.070  1.00  0.00     0.013 A 
HETATM   23 BR1  UNL     1      22.397  -0.651  53.600  1.00  0.00    -0.051 Br
HETATM   24  C17 UNL     1      24.198   1.433  52.817  1.00  0.00     0.048 A 
ENDBRANCH  16  18
ENDBRANCH  13  16
ENDBRANCH   7   8
ENDBRANCH   6   7
ENDBRANCH   1   6
TORSDOF 5
ENDMDL
