MODEL 1
REMARK VINA RESULT:      -7.2      0.000      0.000
REMARK  10 active torsions:
REMARK  status: ('A' for Active; 'I' for Inactive)
REMARK    1  A    between atoms: C2_2  and  C3_4 
REMARK    2  A    between atoms: C4_6  and  C5_7 
REMARK    3  A    between atoms: C6_8  and  C7_9 
REMARK    4  A    between atoms: C11_15  and  O1_16 
REMARK    5  A    between atoms: C13_18  and  O2_19 
REMARK    6  A    between atoms: O2_19  and  C14_20 
REMARK    7  A    between atoms: C14_20  and  C15_21 
REMARK    8  A    between atoms: C15_21  and  N3_22 
REMARK    9  A    between atoms: N3_22  and  C16_23 
REMARK   10  A    between atoms: N3_22  and  C18_25 
ROOT
HETATM    1  C7  UNL     1      22.950  -0.403  53.035  1.00  0.00     0.145 C 
HETATM    2  N1  UNL     1      22.586  -1.019  54.297  1.00  0.00    -0.273 NA
HETATM    3  C8  UNL     1      21.531  -0.573  54.884  1.00  0.00     0.227 C 
HETATM    4  N2  UNL     1      20.727   0.454  54.333  1.00  0.00    -0.246 NA
HETATM    5  C9  UNL     1      20.926   1.023  53.208  1.00  0.00     0.048 C 
HETATM    6  C10 UNL     1      20.237   2.093  52.526  1.00  0.00     0.067 C 
HETATM    7  C11 UNL     1      20.447   2.558  51.318  1.00  0.00     0.103 C 
HETATM    8  C13 UNL     1      21.467   1.920  50.498  1.00  0.00     0.099 C 
HETATM    9  C20 UNL     1      22.055   0.897  51.065  1.00  0.00     0.026 C 
HETATM   10  C21 UNL     1      21.867   0.269  52.351  1.00  0.00     0.091 C 
ENDROOT
BRANCH   1  11
HETATM   11  C6  UNL     1      24.189   0.409  53.210  1.00  0.00     0.001 C 
HETATM   12  C5  UNL     1      25.480   0.142  53.105  1.00  0.00     0.001 C 
BRANCH  12  13
HETATM   13  C4  UNL     1      26.081  -1.122  52.758  1.00  0.00     0.043 C 
HETATM   14  C3  UNL     1      27.358  -1.377  52.966  1.00  0.00     0.134 C 
HETATM   15  F1  UNL     1      28.008  -2.525  52.677  1.00  0.00    -0.205 F 
BRANCH  14  16
HETATM   16  C2  UNL     1      28.606  -0.836  53.474  1.00  0.00     0.047 A 
HETATM   17  C1  UNL     1      29.911  -0.718  53.608  1.00  0.00     0.156 A 
HETATM   18 CL1  UNL     1      29.042   0.427  54.621  1.00  0.00    -0.178 Cl
ENDBRANCH  14  16
ENDBRANCH  12  13
ENDBRANCH   1  11
BRANCH   8  19
HETATM   19  O2  UNL     1      21.729   2.414  49.242  1.00  0.00    -0.347 OA
BRANCH  19  20
HETATM   20  C14 UNL     1      22.976   2.838  48.751  1.00  0.00     0.206 C 
BRANCH  20  21
HETATM   21  C15 UNL     1      23.250   4.268  49.160  1.00  0.00     0.299 C 
BRANCH  21  22
HETATM   22  N3  UNL     1      24.248   4.414  50.172  1.00  0.00     0.089 N 
BRANCH  22  23
HETATM   23  C16 UNL     1      24.961   3.183  50.448  1.00  0.00     0.268 C 
HETATM   24  C17 UNL     1      26.399   3.246  49.986  1.00  0.00     0.037 C 
ENDBRANCH  22  23
BRANCH  22  25
HETATM   25  C18 UNL     1      23.716   4.916  51.408  1.00  0.00     0.268 C 
HETATM   26  C19 UNL     1      23.739   3.931  52.537  1.00  0.00     0.037 C 
ENDBRANCH  22  25
ENDBRANCH  21  22
ENDBRANCH  20  21
ENDBRANCH  19  20
ENDBRANCH   8  19
BRANCH   7  27
HETATM   27  O1  UNL     1      19.708   3.616  50.811  1.00  0.00    -0.353 OA
HETATM   28  C12 UNL     1      18.398   3.758  51.379  1.00  0.00     0.210 C 
ENDBRANCH   7  27
TORSDOF 10
ENDMDL
MODEL 2
REMARK VINA RESULT:      -6.9      2.175      2.767
REMARK  10 active torsions:
REMARK  status: ('A' for Active; 'I' for Inactive)
REMARK    1  A    between atoms: C2_2  and  C3_4 
REMARK    2  A    between atoms: C4_6  and  C5_7 
REMARK    3  A    between atoms: C6_8  and  C7_9 
REMARK    4  A    between atoms: C11_15  and  O1_16 
REMARK    5  A    between atoms: C13_18  and  O2_19 
REMARK    6  A    between atoms: O2_19  and  C14_20 
REMARK    7  A    between atoms: C14_20  and  C15_21 
REMARK    8  A    between atoms: C15_21  and  N3_22 
REMARK    9  A    between atoms: N3_22  and  C16_23 
REMARK   10  A    between atoms: N3_22  and  C18_25 
ROOT
HETATM    1  C7  UNL     1      23.151  -0.132  53.167  1.00  0.00     0.145 C 
HETATM    2  N1  UNL     1      23.642  -0.841  54.334  1.00  0.00    -0.273 NA
HETATM    3  C8  UNL     1      22.763  -1.365  55.114  1.00  0.00     0.227 C 
HETATM    4  N2  UNL     1      21.372  -1.292  54.856  1.00  0.00    -0.246 NA
HETATM    5  C9  UNL     1      20.840  -0.742  53.834  1.00  0.00     0.048 C 
HETATM    6  C10 UNL     1      19.464  -0.550  53.441  1.00  0.00     0.067 C 
HETATM    7  C11 UNL     1      18.997  -0.058  52.319  1.00  0.00     0.103 C 
HETATM    8  C13 UNL     1      19.946   0.320  51.282  1.00  0.00     0.099 C 
HETATM    9  C20 UNL     1      21.198   0.086  51.582  1.00  0.00     0.026 C 
HETATM   10  C21 UNL     1      21.815  -0.499  52.749  1.00  0.00     0.091 C 
ENDROOT
BRANCH   1  11
HETATM   11  C6  UNL     1      23.384   1.332  53.333  1.00  0.00     0.001 C 
HETATM   12  C5  UNL     1      24.196   2.200  52.755  1.00  0.00     0.001 C 
BRANCH  12  13
HETATM   13  C4  UNL     1      25.157   1.932  51.714  1.00  0.00     0.043 C 
HETATM   14  C3  UNL     1      26.221   1.180  51.913  1.00  0.00     0.134 C 
HETATM   15  F1  UNL     1      27.173   0.873  51.005  1.00  0.00    -0.205 F 
BRANCH  14  16
HETATM   16  C2  UNL     1      26.946   0.388  52.892  1.00  0.00     0.047 A 
HETATM   17  C1  UNL     1      27.798  -0.517  53.328  1.00  0.00     0.156 A 
HETATM   18 CL1  UNL     1      26.964   0.291  54.650  1.00  0.00    -0.178 Cl
ENDBRANCH  14  16
ENDBRANCH  12  13
ENDBRANCH   1  11
BRANCH   8  19
HETATM   19  O2  UNL     1      19.481   0.872  50.111  1.00  0.00    -0.347 OA
BRANCH  19  20
HETATM   20  C14 UNL     1      20.223   1.629  49.189  1.00  0.00     0.206 C 
BRANCH  20  21
HETATM   21  C15 UNL     1      19.911   3.102  49.335  1.00  0.00     0.299 C 
BRANCH  21  22
HETATM   22  N3  UNL     1      21.039   3.918  49.657  1.00  0.00     0.089 N 
BRANCH  22  23
HETATM   23  C16 UNL     1      22.275   3.167  49.751  1.00  0.00     0.268 C 
HETATM   24  C17 UNL     1      23.371   3.772  48.904  1.00  0.00     0.037 C 
ENDBRANCH  22  23
BRANCH  22  25
HETATM   25  C18 UNL     1      20.862   4.653  50.878  1.00  0.00     0.268 C 
HETATM   26  C19 UNL     1      20.822   3.803  52.112  1.00  0.00     0.037 C 
ENDBRANCH  22  25
ENDBRANCH  21  22
ENDBRANCH  20  21
ENDBRANCH  19  20
ENDBRANCH   8  19
BRANCH   7  27
HETATM   27  O1  UNL     1      17.635   0.083  52.102  1.00  0.00    -0.353 OA
HETATM   28  C12 UNL     1      16.827  -0.961  52.663  1.00  0.00     0.210 C 
ENDBRANCH   7  27
TORSDOF 10
ENDMDL
MODEL 3
REMARK VINA RESULT:      -6.8      3.502      6.117
REMARK  10 active torsions:
REMARK  status: ('A' for Active; 'I' for Inactive)
REMARK    1  A    between atoms: C2_2  and  C3_4 
REMARK    2  A    between atoms: C4_6  and  C5_7 
REMARK    3  A    between atoms: C6_8  and  C7_9 
REMARK    4  A    between atoms: C11_15  and  O1_16 
REMARK    5  A    between atoms: C13_18  and  O2_19 
REMARK    6  A    between atoms: O2_19  and  C14_20 
REMARK    7  A    between atoms: C14_20  and  C15_21 
REMARK    8  A    between atoms: C15_21  and  N3_22 
REMARK    9  A    between atoms: N3_22  and  C16_23 
REMARK   10  A    between atoms: N3_22  and  C18_25 
ROOT
HETATM    1  C7  UNL     1      22.266   3.256  51.100  1.00  0.00     0.145 C 
HETATM    2  N1  UNL     1      21.165   4.196  51.017  1.00  0.00    -0.273 NA
HETATM    3  C8  UNL     1      20.126   3.947  51.735  1.00  0.00     0.227 C 
HETATM    4  N2  UNL     1      20.044   2.826  52.595  1.00  0.00    -0.246 NA
HETATM    5  C9  UNL     1      20.972   1.970  52.783  1.00  0.00     0.048 C 
HETATM    6  C10 UNL     1      21.040   0.770  53.583  1.00  0.00     0.067 C 
HETATM    7  C11 UNL     1      22.073  -0.008  53.799  1.00  0.00     0.103 C 
HETATM    8  C13 UNL     1      23.354   0.365  53.218  1.00  0.00     0.099 C 
HETATM    9  C20 UNL     1      23.339   1.490  52.551  1.00  0.00     0.026 C 
HETATM   10  C21 UNL     1      22.287   2.446  52.299  1.00  0.00     0.091 C 
ENDROOT
BRANCH   1  11
HETATM   11  C6  UNL     1      22.377   2.497  49.821  1.00  0.00     0.001 C 
HETATM   12  C5  UNL     1      22.504   2.853  48.554  1.00  0.00     0.001 C 
BRANCH  12  13
HETATM   13  C4  UNL     1      22.578   4.195  48.032  1.00  0.00     0.043 C 
HETATM   14  C3  UNL     1      23.581   5.005  48.307  1.00  0.00     0.134 C 
HETATM   15  F1  UNL     1      23.739   6.272  47.867  1.00  0.00    -0.205 F 
BRANCH  14  16
HETATM   16  C2  UNL     1      24.836   5.134  49.028  1.00  0.00     0.047 A 
HETATM   17  C1  UNL     1      25.815   5.752  49.656  1.00  0.00     0.156 A 
HETATM   18 CL1  UNL     1      26.080   4.015  49.574  1.00  0.00    -0.178 Cl
ENDBRANCH  14  16
ENDBRANCH  12  13
ENDBRANCH   1  11
BRANCH   8  19
HETATM   19  O2  UNL     1      24.443  -0.455  53.403  1.00  0.00    -0.347 OA
BRANCH  19  20
HETATM   20  C14 UNL     1      25.671  -0.099  53.984  1.00  0.00     0.206 C 
BRANCH  20  21
HETATM   21  C15 UNL     1      26.822  -0.713  53.219  1.00  0.00     0.299 C 
BRANCH  21  22
HETATM   22  N3  UNL     1      27.957   0.141  53.067  1.00  0.00     0.089 N 
BRANCH  22  23
HETATM   23  C16 UNL     1      28.943  -0.035  54.115  1.00  0.00     0.268 C 
HETATM   24  C17 UNL     1      30.018  -1.022  53.720  1.00  0.00     0.037 C 
ENDBRANCH  22  23
BRANCH  22  25
HETATM   25  C18 UNL     1      27.603   1.531  53.009  1.00  0.00     0.268 C 
HETATM   26  C19 UNL     1      28.618   2.455  53.610  1.00  0.00     0.037 C 
ENDBRANCH  22  25
ENDBRANCH  21  22
ENDBRANCH  20  21
ENDBRANCH  19  20
ENDBRANCH   8  19
BRANCH   7  27
HETATM   27  O1  UNL     1      21.968  -1.149  54.581  1.00  0.00    -0.353 OA
HETATM   28  C12 UNL     1      20.794  -1.937  54.337  1.00  0.00     0.210 C 
ENDBRANCH   7  27
TORSDOF 10
ENDMDL
MODEL 4
REMARK VINA RESULT:      -6.7      2.993      3.937
REMARK  10 active torsions:
REMARK  status: ('A' for Active; 'I' for Inactive)
REMARK    1  A    between atoms: C2_2  and  C3_4 
REMARK    2  A    between atoms: C4_6  and  C5_7 
REMARK    3  A    between atoms: C6_8  and  C7_9 
REMARK    4  A    between atoms: C11_15  and  O1_16 
REMARK    5  A    between atoms: C13_18  and  O2_19 
REMARK    6  A    between atoms: O2_19  and  C14_20 
REMARK    7  A    between atoms: C14_20  and  C15_21 
REMARK    8  A    between atoms: C15_21  and  N3_22 
REMARK    9  A    between atoms: N3_22  and  C16_23 
REMARK   10  A    between atoms: N3_22  and  C18_25 
ROOT
HETATM    1  C7  UNL     1      23.319  -0.031  53.026  1.00  0.00     0.145 C 
HETATM    2  N1  UNL     1      23.889  -0.658  54.204  1.00  0.00    -0.273 NA
HETATM    3  C8  UNL     1      23.067  -1.150  55.062  1.00  0.00     0.227 C 
HETATM    4  N2  UNL     1      21.663  -1.117  54.880  1.00  0.00    -0.246 NA
HETATM    5  C9  UNL     1      21.062  -0.641  53.860  1.00  0.00     0.048 C 
HETATM    6  C10 UNL     1      19.662  -0.498  53.535  1.00  0.00     0.067 C 
HETATM    7  C11 UNL     1      19.124  -0.084  52.414  1.00  0.00     0.103 C 
HETATM    8  C13 UNL     1      20.005   0.247  51.304  1.00  0.00     0.099 C 
HETATM    9  C20 UNL     1      21.276   0.054  51.545  1.00  0.00     0.026 C 
HETATM   10  C21 UNL     1      21.970  -0.447  52.708  1.00  0.00     0.091 C 
ENDROOT
BRANCH   1  11
HETATM   11  C6  UNL     1      23.529   1.444  53.090  1.00  0.00     0.001 C 
HETATM   12  C5  UNL     1      24.377   2.273  52.507  1.00  0.00     0.001 C 
BRANCH  12  13
HETATM   13  C4  UNL     1      25.417   1.934  51.566  1.00  0.00     0.043 C 
HETATM   14  C3  UNL     1      25.866   2.792  50.671  1.00  0.00     0.134 C 
HETATM   15  F1  UNL     1      26.831   2.568  49.753  1.00  0.00    -0.205 F 
BRANCH  14  16
HETATM   16  C2  UNL     1      25.732   4.142  50.152  1.00  0.00     0.047 A 
HETATM   17  C1  UNL     1      25.942   5.153  49.335  1.00  0.00     0.156 A 
HETATM   18 CL1  UNL     1      24.847   5.583  50.643  1.00  0.00    -0.178 Cl
ENDBRANCH  14  16
ENDBRANCH  12  13
ENDBRANCH   1  11
BRANCH   8  19
HETATM   19  O2  UNL     1      19.463   0.718  50.130  1.00  0.00    -0.347 OA
BRANCH  19  20
HETATM   20  C14 UNL     1      18.996   2.020  49.886  1.00  0.00     0.206 C 
BRANCH  20  21
HETATM   21  C15 UNL     1      19.982   2.791  49.038  1.00  0.00     0.299 C 
BRANCH  21  22
HETATM   22  N3  UNL     1      20.695   3.813  49.737  1.00  0.00     0.089 N 
BRANCH  22  23
HETATM   23  C16 UNL     1      22.112   3.534  49.860  1.00  0.00     0.268 C 
HETATM   24  C17 UNL     1      22.564   2.465  48.890  1.00  0.00     0.037 C 
ENDBRANCH  22  23
BRANCH  22  25
HETATM   25  C18 UNL     1      20.168   4.058  51.050  1.00  0.00     0.268 C 
HETATM   26  C19 UNL     1      21.197   4.063  52.140  1.00  0.00     0.037 C 
ENDBRANCH  22  25
ENDBRANCH  21  22
ENDBRANCH  20  21
ENDBRANCH  19  20
ENDBRANCH   8  19
BRANCH   7  27
HETATM   27  O1  UNL     1      17.749   0.019  52.267  1.00  0.00    -0.353 OA
HETATM   28  C12 UNL     1      17.013  -1.140  52.683  1.00  0.00     0.210 C 
ENDBRANCH   7  27
TORSDOF 10
ENDMDL
MODEL 5
REMARK VINA RESULT:      -6.5      4.598      6.680
REMARK  10 active torsions:
REMARK  status: ('A' for Active; 'I' for Inactive)
REMARK    1  A    between atoms: C2_2  and  C3_4 
REMARK    2  A    between atoms: C4_6  and  C5_7 
REMARK    3  A    between atoms: C6_8  and  C7_9 
REMARK    4  A    between atoms: C11_15  and  O1_16 
REMARK    5  A    between atoms: C13_18  and  O2_19 
REMARK    6  A    between atoms: O2_19  and  C14_20 
REMARK    7  A    between atoms: C14_20  and  C15_21 
REMARK    8  A    between atoms: C15_21  and  N3_22 
REMARK    9  A    between atoms: N3_22  and  C16_23 
REMARK   10  A    between atoms: N3_22  and  C18_25 
ROOT
HETATM    1  C7  UNL     1      25.637   2.903  50.459  1.00  0.00     0.145 C 
HETATM    2  N1  UNL     1      24.337   2.763  51.088  1.00  0.00    -0.273 NA
HETATM    3  C8  UNL     1      23.648   3.837  51.254  1.00  0.00     0.227 C 
HETATM    4  N2  UNL     1      24.102   5.109  50.828  1.00  0.00    -0.246 NA
HETATM    5  C9  UNL     1      25.200   5.334  50.218  1.00  0.00     0.048 C 
HETATM    6  C10 UNL     1      25.821   6.552  49.753  1.00  0.00     0.067 C 
HETATM    7  C11 UNL     1      26.914   6.689  49.042  1.00  0.00     0.103 C 
HETATM    8  C13 UNL     1      27.608   5.488  48.600  1.00  0.00     0.099 C 
HETATM    9  C20 UNL     1      27.025   4.369  48.943  1.00  0.00     0.026 C 
HETATM   10  C21 UNL     1      25.804   4.102  49.666  1.00  0.00     0.091 C 
ENDROOT
BRANCH   1  11
HETATM   11  C6  UNL     1      26.711   2.652  51.463  1.00  0.00     0.001 C 
HETATM   12  C5  UNL     1      27.100   1.585  52.140  1.00  0.00     0.001 C 
BRANCH  12  13
HETATM   13  C4  UNL     1      26.533   0.260  52.074  1.00  0.00     0.043 C 
HETATM   14  C3  UNL     1      27.199  -0.811  52.456  1.00  0.00     0.134 C 
HETATM   15  F1  UNL     1      26.755  -2.087  52.434  1.00  0.00    -0.205 F 
BRANCH  14  16
HETATM   16  C2  UNL     1      28.458  -1.294  52.997  1.00  0.00     0.047 A 
HETATM   17  C1  UNL     1      29.348  -2.182  53.390  1.00  0.00     0.156 A 
HETATM   18 CL1  UNL     1      29.924  -0.535  53.609  1.00  0.00    -0.178 Cl
ENDBRANCH  14  16
ENDBRANCH  12  13
ENDBRANCH   1  11
BRANCH   8  19
HETATM   19  O2  UNL     1      28.776   5.609  47.884  1.00  0.00    -0.347 OA
BRANCH  19  20
HETATM   20  C14 UNL     1      30.067   5.786  48.410  1.00  0.00     0.206 C 
BRANCH  20  21
HETATM   21  C15 UNL     1      30.710   7.029  47.837  1.00  0.00     0.299 C 
BRANCH  21  22
HETATM   22  N3  UNL     1      30.896   8.089  48.778  1.00  0.00     0.089 N 
BRANCH  22  23
HETATM   23  C16 UNL     1      30.800   9.404  48.176  1.00  0.00     0.268 C 
HETATM   24  C17 UNL     1      30.366  10.452  49.175  1.00  0.00     0.037 C 
ENDBRANCH  22  23
BRANCH  22  25
HETATM   25  C18 UNL     1      32.149   8.000  49.474  1.00  0.00     0.268 C 
HETATM   26  C19 UNL     1      33.310   7.605  48.612  1.00  0.00     0.037 C 
ENDBRANCH  22  25
ENDBRANCH  21  22
ENDBRANCH  20  21
ENDBRANCH  19  20
ENDBRANCH   8  19
BRANCH   7  27
HETATM   27  O1  UNL     1      27.397   7.941  48.693  1.00  0.00    -0.353 OA
HETATM   28  C12 UNL     1      26.882   9.024  49.481  1.00  0.00     0.210 C 
ENDBRANCH   7  27
TORSDOF 10
ENDMDL
MODEL 6
REMARK VINA RESULT:      -6.2      7.324     11.163
REMARK  10 active torsions:
REMARK  status: ('A' for Active; 'I' for Inactive)
REMARK    1  A    between atoms: C2_2  and  C3_4 
REMARK    2  A    between atoms: C4_6  and  C5_7 
REMARK    3  A    between atoms: C6_8  and  C7_9 
REMARK    4  A    between atoms: C11_15  and  O1_16 
REMARK    5  A    between atoms: C13_18  and  O2_19 
REMARK    6  A    between atoms: O2_19  and  C14_20 
REMARK    7  A    between atoms: C14_20  and  C15_21 
REMARK    8  A    between atoms: C15_21  and  N3_22 
REMARK    9  A    between atoms: N3_22  and  C16_23 
REMARK   10  A    between atoms: N3_22  and  C18_25 
ROOT
HETATM    1  C7  UNL     1      27.615   9.606  48.822  1.00  0.00     0.145 C 
HETATM    2  N1  UNL     1      27.348  11.030  48.749  1.00  0.00    -0.273 NA
HETATM    3  C8  UNL     1      28.360  11.821  48.826  1.00  0.00     0.227 C 
HETATM    4  N2  UNL     1      29.690  11.350  48.951  1.00  0.00    -0.246 NA
HETATM    5  C9  UNL     1      30.038  10.123  48.970  1.00  0.00     0.048 C 
HETATM    6  C10 UNL     1      31.322   9.480  49.126  1.00  0.00     0.067 C 
HETATM    7  C11 UNL     1      31.611   8.204  49.036  1.00  0.00     0.103 C 
HETATM    8  C13 UNL     1      30.544   7.275  48.693  1.00  0.00     0.099 C 
HETATM    9  C20 UNL     1      29.385   7.840  48.472  1.00  0.00     0.026 C 
HETATM   10  C21 UNL     1      28.970   9.222  48.485  1.00  0.00     0.091 C 
ENDROOT
BRANCH   1  11
HETATM   11  C6  UNL     1      27.107   9.065  50.115  1.00  0.00     0.001 C 
HETATM   12  C5  UNL     1      26.107   8.264  50.442  1.00  0.00     0.001 C 
BRANCH  12  13
HETATM   13  C4  UNL     1      25.161   7.645  49.546  1.00  0.00     0.043 C 
HETATM   14  C3  UNL     1      25.286   6.396  49.142  1.00  0.00     0.134 C 
HETATM   15  F1  UNL     1      24.455   5.732  48.310  1.00  0.00    -0.205 F 
BRANCH  14  16
HETATM   16  C2  UNL     1      26.101   5.197  49.232  1.00  0.00     0.047 A 
HETATM   17  C1  UNL     1      26.421   3.974  49.599  1.00  0.00     0.156 A 
HETATM   18 CL1  UNL     1      27.676   4.712  48.611  1.00  0.00    -0.178 Cl
ENDBRANCH  14  16
ENDBRANCH  12  13
ENDBRANCH   1  11
BRANCH   8  19
HETATM   19  O2  UNL     1      30.817   5.929  48.628  1.00  0.00    -0.347 OA
BRANCH  19  20
HETATM   20  C14 UNL     1      31.039   5.174  47.464  1.00  0.00     0.206 C 
BRANCH  20  21
HETATM   21  C15 UNL     1      32.491   4.766  47.362  1.00  0.00     0.299 C 
BRANCH  21  22
HETATM   22  N3  UNL     1      32.736   3.378  47.599  1.00  0.00     0.089 N 
BRANCH  22  23
HETATM   23  C16 UNL     1      34.140   3.073  47.787  1.00  0.00     0.268 C 
HETATM   24  C17 UNL     1      34.948   4.308  48.116  1.00  0.00     0.037 C 
ENDBRANCH  22  23
BRANCH  22  25
HETATM   25  C18 UNL     1      32.227   2.538  46.551  1.00  0.00     0.268 C 
HETATM   26  C19 UNL     1      32.301   1.069  46.843  1.00  0.00     0.037 C 
ENDBRANCH  22  25
ENDBRANCH  21  22
ENDBRANCH  20  21
ENDBRANCH  19  20
ENDBRANCH   8  19
BRANCH   7  27
HETATM   27  O1  UNL     1      32.902   7.739  49.236  1.00  0.00    -0.353 OA
HETATM   28  C12 UNL     1      33.840   8.115  48.217  1.00  0.00     0.210 C 
ENDBRANCH   7  27
TORSDOF 10
ENDMDL
MODEL 7
REMARK VINA RESULT:      -6.2      4.742      7.113
REMARK  10 active torsions:
REMARK  status: ('A' for Active; 'I' for Inactive)
REMARK    1  A    between atoms: C2_2  and  C3_4 
REMARK    2  A    between atoms: C4_6  and  C5_7 
REMARK    3  A    between atoms: C6_8  and  C7_9 
REMARK    4  A    between atoms: C11_15  and  O1_16 
REMARK    5  A    between atoms: C13_18  and  O2_19 
REMARK    6  A    between atoms: O2_19  and  C14_20 
REMARK    7  A    between atoms: C14_20  and  C15_21 
REMARK    8  A    between atoms: C15_21  and  N3_22 
REMARK    9  A    between atoms: N3_22  and  C16_23 
REMARK   10  A    between atoms: N3_22  and  C18_25 
ROOT
HETATM    1  C7  UNL     1      25.831   2.834  50.351  1.00  0.00     0.145 C 
HETATM    2  N1  UNL     1      24.456   2.613  50.758  1.00  0.00    -0.273 NA
HETATM    3  C8  UNL     1      23.644   3.603  50.640  1.00  0.00     0.227 C 
HETATM    4  N2  UNL     1      24.039   4.857  50.115  1.00  0.00    -0.246 NA
HETATM    5  C9  UNL     1      25.205   5.139  49.678  1.00  0.00     0.048 C 
HETATM    6  C10 UNL     1      25.777   6.356  49.152  1.00  0.00     0.067 C 
HETATM    7  C11 UNL     1      26.965   6.539  48.630  1.00  0.00     0.103 C 
HETATM    8  C13 UNL     1      27.848   5.389  48.499  1.00  0.00     0.099 C 
HETATM    9  C20 UNL     1      27.326   4.258  48.898  1.00  0.00     0.026 C 
HETATM   10  C21 UNL     1      26.024   3.933  49.429  1.00  0.00     0.091 C 
ENDROOT
BRANCH   1  11
HETATM   11  C6  UNL     1      26.715   2.851  51.552  1.00  0.00     0.001 C 
HETATM   12  C5  UNL     1      27.269   1.908  52.295  1.00  0.00     0.001 C 
BRANCH  12  13
HETATM   13  C4  UNL     1      27.152   0.482  52.117  1.00  0.00     0.043 C 
HETATM   14  C3  UNL     1      26.098  -0.196  52.528  1.00  0.00     0.134 C 
HETATM   15  F1  UNL     1      25.898  -1.527  52.406  1.00  0.00    -0.205 F 
BRANCH  14  16
HETATM   16  C2  UNL     1      24.808  -0.096  53.187  1.00  0.00     0.047 A 
HETATM   17  C1  UNL     1      23.578   0.331  53.386  1.00  0.00     0.156 A 
HETATM   18 CL1  UNL     1      24.074  -0.833  54.609  1.00  0.00    -0.178 Cl
ENDBRANCH  14  16
ENDBRANCH  12  13
ENDBRANCH   1  11
BRANCH   8  19
HETATM   19  O2  UNL     1      29.113   5.564  47.987  1.00  0.00    -0.347 OA
BRANCH  19  20
HETATM   20  C14 UNL     1      30.283   5.830  48.718  1.00  0.00     0.206 C 
BRANCH  20  21
HETATM   21  C15 UNL     1      31.401   6.260  47.795  1.00  0.00     0.299 C 
BRANCH  21  22
HETATM   22  N3  UNL     1      32.495   5.344  47.720  1.00  0.00     0.089 N 
BRANCH  22  23
HETATM   23  C16 UNL     1      33.785   5.986  47.873  1.00  0.00     0.268 C 
HETATM   24  C17 UNL     1      34.827   5.038  48.421  1.00  0.00     0.037 C 
ENDBRANCH  22  23
BRANCH  22  25
HETATM   25  C18 UNL     1      32.506   4.592  46.496  1.00  0.00     0.268 C 
HETATM   26  C19 UNL     1      31.954   3.204  46.616  1.00  0.00     0.037 C 
ENDBRANCH  22  25
ENDBRANCH  21  22
ENDBRANCH  20  21
ENDBRANCH  19  20
ENDBRANCH   8  19
BRANCH   7  27
HETATM   27  O1  UNL     1      27.377   7.787  48.187  1.00  0.00    -0.353 OA
HETATM   28  C12 UNL     1      26.825   8.187  46.925  1.00  0.00     0.210 C 
ENDBRANCH   7  27
TORSDOF 10
ENDMDL
MODEL 8
REMARK VINA RESULT:      -6.1      3.362      5.883
REMARK  10 active torsions:
REMARK  status: ('A' for Active; 'I' for Inactive)
REMARK    1  A    between atoms: C2_2  and  C3_4 
REMARK    2  A    between atoms: C4_6  and  C5_7 
REMARK    3  A    between atoms: C6_8  and  C7_9 
REMARK    4  A    between atoms: C11_15  and  O1_16 
REMARK    5  A    between atoms: C13_18  and  O2_19 
REMARK    6  A    between atoms: O2_19  and  C14_20 
REMARK    7  A    between atoms: C14_20  and  C15_21 
REMARK    8  A    between atoms: C15_21  and  N3_22 
REMARK    9  A    between atoms: N3_22  and  C16_23 
REMARK   10  A    between atoms: N3_22  and  C18_25 
ROOT
HETATM    1  C7  UNL     1      21.601   0.628  53.013  1.00  0.00     0.145 C 
HETATM    2  N1  UNL     1      20.917  -0.144  54.033  1.00  0.00    -0.273 NA
HETATM    3  C8  UNL     1      21.631  -0.958  54.728  1.00  0.00     0.227 C 
HETATM    4  N2  UNL     1      23.028  -1.097  54.546  1.00  0.00    -0.246 NA
HETATM    5  C9  UNL     1      23.733  -0.429  53.718  1.00  0.00     0.048 C 
HETATM    6  C10 UNL     1      25.138  -0.470  53.384  1.00  0.00     0.067 C 
HETATM    7  C11 UNL     1      25.809   0.324  52.584  1.00  0.00     0.103 C 
HETATM    8  C13 UNL     1      25.104   1.434  51.960  1.00  0.00     0.099 C 
HETATM    9  C20 UNL     1      23.847   1.540  52.305  1.00  0.00     0.026 C 
HETATM   10  C21 UNL     1      23.028   0.768  53.209  1.00  0.00     0.091 C 
ENDROOT
BRANCH   1  11
HETATM   11  C6  UNL     1      21.192   0.150  51.661  1.00  0.00     0.001 C 
HETATM   12  C5  UNL     1      20.623   0.731  50.619  1.00  0.00     0.001 C 
BRANCH  12  13
HETATM   13  C4  UNL     1      20.214   2.109  50.508  1.00  0.00     0.043 C 
HETATM   14  C3  UNL     1      20.545   2.863  49.478  1.00  0.00     0.134 C 
HETATM   15  F1  UNL     1      20.211   4.157  49.285  1.00  0.00    -0.205 F 
BRANCH  14  16
HETATM   16  C2  UNL     1      21.260   2.893  48.213  1.00  0.00     0.047 A 
HETATM   17  C1  UNL     1      21.525   3.270  46.980  1.00  0.00     0.156 A 
HETATM   18 CL1  UNL     1      22.668   2.064  47.557  1.00  0.00    -0.178 Cl
ENDBRANCH  14  16
ENDBRANCH  12  13
ENDBRANCH   1  11
BRANCH   8  19
HETATM   19  O2  UNL     1      25.780   2.257  51.089  1.00  0.00    -0.347 OA
BRANCH  19  20
HETATM   20  C14 UNL     1      25.231   2.957  50.002  1.00  0.00     0.206 C 
BRANCH  20  21
HETATM   21  C15 UNL     1      25.088   4.426  50.331  1.00  0.00     0.299 C 
BRANCH  21  22
HETATM   22  N3  UNL     1      23.877   5.024  49.864  1.00  0.00     0.089 N 
BRANCH  22  23
HETATM   23  C16 UNL     1      24.091   6.289  49.192  1.00  0.00     0.268 C 
HETATM   24  C17 UNL     1      23.345   6.366  47.879  1.00  0.00     0.037 C 
ENDBRANCH  22  23
BRANCH  22  25
HETATM   25  C18 UNL     1      22.918   5.226  50.913  1.00  0.00     0.268 C 
HETATM   26  C19 UNL     1      23.490   5.159  52.297  1.00  0.00     0.037 C 
ENDBRANCH  22  25
ENDBRANCH  21  22
ENDBRANCH  20  21
ENDBRANCH  19  20
ENDBRANCH   8  19
BRANCH   7  27
HETATM   27  O1  UNL     1      27.162   0.137  52.349  1.00  0.00    -0.353 OA
HETATM   28  C12 UNL     1      27.954  -0.067  53.528  1.00  0.00     0.210 C 
ENDBRANCH   7  27
TORSDOF 10
ENDMDL
MODEL 9
REMARK VINA RESULT:      -6.1      3.751      5.991
REMARK  10 active torsions:
REMARK  status: ('A' for Active; 'I' for Inactive)
REMARK    1  A    between atoms: C2_2  and  C3_4 
REMARK    2  A    between atoms: C4_6  and  C5_7 
REMARK    3  A    between atoms: C6_8  and  C7_9 
REMARK    4  A    between atoms: C11_15  and  O1_16 
REMARK    5  A    between atoms: C13_18  and  O2_19 
REMARK    6  A    between atoms: O2_19  and  C14_20 
REMARK    7  A    between atoms: C14_20  and  C15_21 
REMARK    8  A    between atoms: C15_21  and  N3_22 
REMARK    9  A    between atoms: N3_22  and  C16_23 
REMARK   10  A    between atoms: N3_22  and  C18_25 
ROOT
HETATM    1  C7  UNL     1      24.135   1.778  52.342  1.00  0.00     0.145 C 
HETATM    2  N1  UNL     1      24.870   0.626  52.830  1.00  0.00    -0.273 NA
HETATM    3  C8  UNL     1      26.061   0.455  52.376  1.00  0.00     0.227 C 
HETATM    4  N2  UNL     1      26.664   1.348  51.458  1.00  0.00    -0.246 NA
HETATM    5  C9  UNL     1      26.128   2.417  51.009  1.00  0.00     0.048 C 
HETATM    6  C10 UNL     1      26.581   3.404  50.057  1.00  0.00     0.067 C 
HETATM    7  C11 UNL     1      26.007   4.534  49.720  1.00  0.00     0.103 C 
HETATM    8  C13 UNL     1      24.774   4.912  50.394  1.00  0.00     0.099 C 
HETATM    9  C20 UNL     1      24.381   4.071  51.316  1.00  0.00     0.026 C 
HETATM   10  C21 UNL     1      24.957   2.841  51.805  1.00  0.00     0.091 C 
ENDROOT
BRANCH   1  11
HETATM   11  C6  UNL     1      23.024   1.327  51.455  1.00  0.00     0.001 C 
HETATM   12  C5  UNL     1      21.725   1.155  51.631  1.00  0.00     0.001 C 
BRANCH  12  13
HETATM   13  C4  UNL     1      20.975   1.383  52.842  1.00  0.00     0.043 C 
HETATM   14  C3  UNL     1      21.097   0.611  53.904  1.00  0.00     0.134 C 
HETATM   15  F1  UNL     1      20.440   0.745  55.077  1.00  0.00    -0.205 F 
BRANCH  14  16
HETATM   16  C2  UNL     1      21.772  -0.552  54.452  1.00  0.00     0.047 A 
HETATM   17  C1  UNL     1      22.667  -1.215  55.154  1.00  0.00     0.156 A 
HETATM   18 CL1  UNL     1      21.554  -2.295  54.323  1.00  0.00    -0.178 Cl
ENDBRANCH  14  16
ENDBRANCH  12  13
ENDBRANCH   1  11
BRANCH   8  19
HETATM   19  O2  UNL     1      24.136   6.075  50.030  1.00  0.00    -0.347 OA
BRANCH  19  20
HETATM   20  C14 UNL     1      24.212   7.314  50.690  1.00  0.00     0.206 C 
BRANCH  20  21
HETATM   21  C15 UNL     1      24.168   8.451  49.694  1.00  0.00     0.299 C 
BRANCH  21  22
HETATM   22  N3  UNL     1      24.902   8.215  48.491  1.00  0.00     0.089 N 
BRANCH  22  23
HETATM   23  C16 UNL     1      26.148   8.954  48.433  1.00  0.00     0.268 C 
HETATM   24  C17 UNL     1      25.932  10.441  48.596  1.00  0.00     0.037 C 
ENDBRANCH  22  23
BRANCH  22  25
HETATM   25  C18 UNL     1      24.143   8.516  47.310  1.00  0.00     0.268 C 
HETATM   26  C19 UNL     1      23.487   7.327  46.675  1.00  0.00     0.037 C 
ENDBRANCH  22  25
ENDBRANCH  21  22
ENDBRANCH  20  21
ENDBRANCH  19  20
ENDBRANCH   8  19
BRANCH   7  27
HETATM   27  O1  UNL     1      26.563   5.370  48.763  1.00  0.00    -0.353 OA
HETATM   28  C12 UNL     1      27.960   5.154  48.517  1.00  0.00     0.210 C 
ENDBRANCH   7  27
TORSDOF 10
ENDMDL
