MODEL 1
REMARK VINA RESULT:      -7.6      0.000      0.000
REMARK  4 active torsions:
REMARK  status: ('A' for Active; 'I' for Inactive)
REMARK    1  A    between atoms: C2_2  and  C3_3 
REMARK       I    between atoms: C3_3  and  N1_5 
REMARK    2  A    between atoms: N1_5  and  C4_6 
REMARK    3  A    between atoms: C4_6  and  C5_7 
REMARK    4  A    between atoms: C9_14  and  N4_15 
ROOT
HETATM    1  C5  UNL     1      25.128   2.662  52.645  1.00  0.00     0.071 A 
HETATM    2  C6  UNL     1      24.061   3.524  52.143  1.00  0.00    -0.007 A 
HETATM    3  C7  UNL     1      22.748   3.186  52.052  1.00  0.00     0.059 A 
HETATM    4  S1  UNL     1      22.774   1.493  52.691  1.00  0.00    -0.042 SA
HETATM    5  N2  UNL     1      21.902   0.215  53.025  1.00  0.00    -0.212 NA
HETATM    6  C8  UNL     1      22.643  -0.916  53.571  1.00  0.00     0.243 A 
HETATM    7  N3  UNL     1      23.903  -0.912  53.779  1.00  0.00    -0.223 NA
HETATM    8  C9  UNL     1      24.843   0.114  53.551  1.00  0.00     0.146 A 
HETATM    9  C15 UNL     1      24.539   1.331  53.045  1.00  0.00     0.049 A 
ENDROOT
BRANCH   1  10
HETATM   10  C4  UNL     1      26.224   2.505  51.655  1.00  0.00     0.136 C 
BRANCH  10  11
HETATM   11  N1  UNL     1      26.517   3.621  50.816  1.00  0.00    -0.357 N 
HETATM   12  C3  UNL     1      26.096   4.120  49.570  1.00  0.00     0.240 C 
HETATM   13  O1  UNL     1      25.215   3.449  48.985  1.00  0.00    -0.269 OA
HETATM   14  H4  UNL     1      27.261   4.263  51.235  1.00  0.00     0.162 HD
BRANCH  12  15
HETATM   15  C2  UNL     1      26.625   5.333  48.964  1.00  0.00     0.064 C 
HETATM   16  C1  UNL     1      27.801   5.574  48.437  1.00  0.00     0.017 C 
ENDBRANCH  12  15
ENDBRANCH  10  11
ENDBRANCH   1  10
BRANCH   8  17
HETATM   17  N4  UNL     1      26.252  -0.044  53.844  1.00  0.00    -0.337 N 
HETATM   18  C10 UNL     1      27.069   0.193  54.983  1.00  0.00     0.089 C 
HETATM   19  C11 UNL     1      28.318   0.006  54.673  1.00  0.00    -0.007 C 
HETATM   20  C12 UNL     1      28.510  -0.391  53.254  1.00  0.00     0.054 C 
HETATM   21  C13 UNL     1      27.102  -0.562  52.777  1.00  0.00     0.090 C 
HETATM   22  C14 UNL     1      26.845  -2.039  52.569  1.00  0.00     0.033 C 
ENDBRANCH   8  17
TORSDOF 4
ENDMDL
MODEL 2
REMARK VINA RESULT:      -7.3      1.809      2.243
REMARK  4 active torsions:
REMARK  status: ('A' for Active; 'I' for Inactive)
REMARK    1  A    between atoms: C2_2  and  C3_3 
REMARK       I    between atoms: C3_3  and  N1_5 
REMARK    2  A    between atoms: N1_5  and  C4_6 
REMARK    3  A    between atoms: C4_6  and  C5_7 
REMARK    4  A    between atoms: C9_14  and  N4_15 
ROOT
HETATM    1  C5  UNL     1      22.548   1.745  52.386  1.00  0.00     0.071 A 
HETATM    2  C6  UNL     1      21.090   1.734  52.315  1.00  0.00    -0.007 A 
HETATM    3  C7  UNL     1      20.270   0.894  53.000  1.00  0.00     0.059 A 
HETATM    4  S1  UNL     1      21.471  -0.095  53.924  1.00  0.00    -0.042 SA
HETATM    5  N2  UNL     1      21.662  -1.278  54.960  1.00  0.00    -0.212 NA
HETATM    6  C8  UNL     1      23.046  -1.586  55.301  1.00  0.00     0.243 A 
HETATM    7  N3  UNL     1      24.055  -0.969  54.821  1.00  0.00    -0.223 NA
HETATM    8  C9  UNL     1      24.095   0.097  53.898  1.00  0.00     0.146 A 
HETATM    9  C15 UNL     1      23.003   0.669  53.343  1.00  0.00     0.049 A 
ENDROOT
BRANCH   1  10
HETATM   10  C4  UNL     1      23.169   1.589  51.046  1.00  0.00     0.136 C 
BRANCH  10  11
HETATM   11  N1  UNL     1      24.187   2.518  50.681  1.00  0.00    -0.357 N 
HETATM   12  C3  UNL     1      24.348   3.573  49.764  1.00  0.00     0.240 C 
HETATM   13  O1  UNL     1      23.355   3.823  49.043  1.00  0.00    -0.269 OA
HETATM   14  H4  UNL     1      25.082   2.389  51.250  1.00  0.00     0.162 HD
BRANCH  12  15
HETATM   15  C2  UNL     1      25.572   4.349  49.631  1.00  0.00     0.064 C 
HETATM   16  C1  UNL     1      26.791   3.966  49.333  1.00  0.00     0.017 C 
ENDBRANCH  12  15
ENDBRANCH  10  11
ENDBRANCH   1  10
BRANCH   8  17
HETATM   17  N4  UNL     1      25.338   0.690  53.450  1.00  0.00    -0.337 N 
HETATM   18  C10 UNL     1      26.080   1.848  53.810  1.00  0.00     0.089 C 
HETATM   19  C11 UNL     1      27.080   1.999  52.994  1.00  0.00    -0.007 C 
HETATM   20  C12 UNL     1      27.145   0.938  51.954  1.00  0.00     0.054 C 
HETATM   21  C13 UNL     1      26.060   0.004  52.384  1.00  0.00     0.090 C 
HETATM   22  C14 UNL     1      26.702  -1.262  52.913  1.00  0.00     0.033 C 
ENDBRANCH   8  17
TORSDOF 4
ENDMDL
MODEL 3
REMARK VINA RESULT:      -7.2      2.082      4.611
REMARK  4 active torsions:
REMARK  status: ('A' for Active; 'I' for Inactive)
REMARK    1  A    between atoms: C2_2  and  C3_3 
REMARK       I    between atoms: C3_3  and  N1_5 
REMARK    2  A    between atoms: N1_5  and  C4_6 
REMARK    3  A    between atoms: C4_6  and  C5_7 
REMARK    4  A    between atoms: C9_14  and  N4_15 
ROOT
HETATM    1  C5  UNL     1      24.671   0.753  52.971  1.00  0.00     0.071 A 
HETATM    2  C6  UNL     1      25.503   0.065  53.954  1.00  0.00    -0.007 A 
HETATM    3  C7  UNL     1      25.064  -0.833  54.874  1.00  0.00     0.059 A 
HETATM    4  S1  UNL     1      23.292  -0.878  54.505  1.00  0.00    -0.042 SA
HETATM    5  N2  UNL     1      21.897  -1.513  54.898  1.00  0.00    -0.212 NA
HETATM    6  C8  UNL     1      20.761  -1.054  54.107  1.00  0.00     0.243 A 
HETATM    7  N3  UNL     1      20.848  -0.204  53.159  1.00  0.00    -0.223 NA
HETATM    8  C9  UNL     1      21.984   0.468  52.662  1.00  0.00     0.146 A 
HETATM    9  C15 UNL     1      23.238   0.307  53.141  1.00  0.00     0.049 A 
ENDROOT
BRANCH   1  10
HETATM   10  C4  UNL     1      24.804   2.229  53.068  1.00  0.00     0.136 C 
BRANCH  10  11
HETATM   11  N1  UNL     1      25.085   2.944  51.867  1.00  0.00    -0.357 N 
HETATM   12  C3  UNL     1      26.175   3.119  50.995  1.00  0.00     0.240 C 
HETATM   13  O1  UNL     1      27.218   2.495  51.296  1.00  0.00    -0.269 OA
HETATM   14  H4  UNL     1      24.246   3.509  51.522  1.00  0.00     0.162 HD
BRANCH  12  15
HETATM   15  C2  UNL     1      26.135   3.962  49.810  1.00  0.00     0.064 C 
HETATM   16  C1  UNL     1      27.108   4.404  49.050  1.00  0.00     0.017 C 
ENDBRANCH  12  15
ENDBRANCH  10  11
ENDBRANCH   1  10
BRANCH   8  17
HETATM   17  N4  UNL     1      21.910   1.413  51.567  1.00  0.00    -0.337 N 
HETATM   18  C10 UNL     1      22.187   1.353  50.174  1.00  0.00     0.089 C 
HETATM   19  C11 UNL     1      22.080   2.541  49.655  1.00  0.00    -0.007 C 
HETATM   20  C12 UNL     1      21.709   3.578  50.652  1.00  0.00     0.054 C 
HETATM   21  C13 UNL     1      21.456   2.764  51.881  1.00  0.00     0.090 C 
HETATM   22  C14 UNL     1      19.967   2.768  52.158  1.00  0.00     0.033 C 
ENDBRANCH   8  17
TORSDOF 4
ENDMDL
MODEL 4
REMARK VINA RESULT:      -7.2      2.351      5.300
REMARK  4 active torsions:
REMARK  status: ('A' for Active; 'I' for Inactive)
REMARK    1  A    between atoms: C2_2  and  C3_3 
REMARK       I    between atoms: C3_3  and  N1_5 
REMARK    2  A    between atoms: N1_5  and  C4_6 
REMARK    3  A    between atoms: C4_6  and  C5_7 
REMARK    4  A    between atoms: C9_14  and  N4_15 
ROOT
HETATM    1  C5  UNL     1      24.594   0.709  52.489  1.00  0.00     0.071 A 
HETATM    2  C6  UNL     1      24.474  -0.413  53.416  1.00  0.00    -0.007 A 
HETATM    3  C7  UNL     1      23.343  -0.776  54.076  1.00  0.00     0.059 A 
HETATM    4  S1  UNL     1      22.172   0.470  53.482  1.00  0.00    -0.042 SA
HETATM    5  N2  UNL     1      20.681   0.997  53.561  1.00  0.00    -0.212 NA
HETATM    6  C8  UNL     1      20.392   2.165  52.737  1.00  0.00     0.243 A 
HETATM    7  N3  UNL     1      21.252   2.747  51.994  1.00  0.00    -0.223 NA
HETATM    8  C9  UNL     1      22.613   2.434  51.789  1.00  0.00     0.146 A 
HETATM    9  C15 UNL     1      23.260   1.407  52.383  1.00  0.00     0.049 A 
ENDROOT
BRANCH   1  10
HETATM   10  C4  UNL     1      25.675   1.645  52.892  1.00  0.00     0.136 C 
BRANCH  10  11
HETATM   11  N1  UNL     1      26.963   1.090  53.151  1.00  0.00    -0.357 N 
HETATM   12  C3  UNL     1      28.177   1.511  53.723  1.00  0.00     0.240 C 
HETATM   13  O1  UNL     1      28.198   2.688  54.151  1.00  0.00    -0.269 OA
HETATM   14  H4  UNL     1      27.044   0.076  52.825  1.00  0.00     0.162 HD
BRANCH  12  15
HETATM   15  C2  UNL     1      29.356   0.665  53.831  1.00  0.00     0.064 C 
HETATM   16  C1  UNL     1      29.503  -0.618  53.601  1.00  0.00     0.017 C 
ENDBRANCH  12  15
ENDBRANCH  10  11
ENDBRANCH   1  10
BRANCH   8  17
HETATM   17  N4  UNL     1      23.460   3.203  50.902  1.00  0.00    -0.337 N 
HETATM   18  C10 UNL     1      23.914   3.043  49.564  1.00  0.00     0.089 C 
HETATM   19  C11 UNL     1      24.781   3.970  49.282  1.00  0.00    -0.007 C 
HETATM   20  C12 UNL     1      25.030   4.897  50.417  1.00  0.00     0.054 C 
HETATM   21  C13 UNL     1      24.021   4.445  51.424  1.00  0.00     0.090 C 
HETATM   22  C14 UNL     1      22.945   5.506  51.528  1.00  0.00     0.033 C 
ENDBRANCH   8  17
TORSDOF 4
ENDMDL
MODEL 5
REMARK VINA RESULT:      -7.0      2.506      5.222
REMARK  4 active torsions:
REMARK  status: ('A' for Active; 'I' for Inactive)
REMARK    1  A    between atoms: C2_2  and  C3_3 
REMARK       I    between atoms: C3_3  and  N1_5 
REMARK    2  A    between atoms: N1_5  and  C4_6 
REMARK    3  A    between atoms: C4_6  and  C5_7 
REMARK    4  A    between atoms: C9_14  and  N4_15 
ROOT
HETATM    1  C5  UNL     1      24.289   1.665  52.689  1.00  0.00     0.071 A 
HETATM    2  C6  UNL     1      24.298   0.355  53.335  1.00  0.00    -0.007 A 
HETATM    3  C7  UNL     1      23.199  -0.368  53.673  1.00  0.00     0.059 A 
HETATM    4  S1  UNL     1      21.870   0.727  53.114  1.00  0.00    -0.042 SA
HETATM    5  N2  UNL     1      20.303   0.917  52.996  1.00  0.00    -0.212 NA
HETATM    6  C8  UNL     1      19.874   2.165  52.377  1.00  0.00     0.243 A 
HETATM    7  N3  UNL     1      20.675   3.063  51.948  1.00  0.00    -0.223 NA
HETATM    8  C9  UNL     1      22.086   3.081  51.960  1.00  0.00     0.146 A 
HETATM    9  C15 UNL     1      22.859   2.091  52.459  1.00  0.00     0.049 A 
ENDROOT
BRANCH   1  10
HETATM   10  C4  UNL     1      25.045   2.674  53.474  1.00  0.00     0.136 C 
BRANCH  10  11
HETATM   11  N1  UNL     1      26.388   2.355  53.835  1.00  0.00    -0.357 N 
HETATM   12  C3  UNL     1      27.635   2.242  53.194  1.00  0.00     0.240 C 
HETATM   13  O1  UNL     1      27.638   2.484  51.965  1.00  0.00    -0.269 OA
HETATM   14  H4  UNL     1      26.491   2.136  54.876  1.00  0.00     0.162 HD
BRANCH  12  15
HETATM   15  C2  UNL     1      28.865   1.871  53.877  1.00  0.00     0.064 C 
HETATM   16  C1  UNL     1      29.427   0.697  54.034  1.00  0.00     0.017 C 
ENDBRANCH  12  15
ENDBRANCH  10  11
ENDBRANCH   1  10
BRANCH   8  17
HETATM   17  N4  UNL     1      22.852   4.189  51.428  1.00  0.00    -0.337 N 
HETATM   18  C10 UNL     1      23.585   5.264  52.001  1.00  0.00     0.089 C 
HETATM   19  C11 UNL     1      23.984   6.071  51.063  1.00  0.00    -0.007 C 
HETATM   20  C12 UNL     1      23.562   5.635  49.705  1.00  0.00     0.054 C 
HETATM   21  C13 UNL     1      22.944   4.301  49.976  1.00  0.00     0.090 C 
HETATM   22  C14 UNL     1      23.859   3.230  49.422  1.00  0.00     0.033 C 
ENDBRANCH   8  17
TORSDOF 4
ENDMDL
MODEL 6
REMARK VINA RESULT:      -6.9      3.025      6.783
REMARK  4 active torsions:
REMARK  status: ('A' for Active; 'I' for Inactive)
REMARK    1  A    between atoms: C2_2  and  C3_3 
REMARK       I    between atoms: C3_3  and  N1_5 
REMARK    2  A    between atoms: N1_5  and  C4_6 
REMARK    3  A    between atoms: C4_6  and  C5_7 
REMARK    4  A    between atoms: C9_14  and  N4_15 
ROOT
HETATM    1  C5  UNL     1      22.215   0.377  53.729  1.00  0.00     0.071 A 
HETATM    2  C6  UNL     1      22.103  -0.539  54.860  1.00  0.00    -0.007 A 
HETATM    3  C7  UNL     1      23.111  -1.297  55.367  1.00  0.00     0.059 A 
HETATM    4  S1  UNL     1      24.482  -0.834  54.280  1.00  0.00    -0.042 SA
HETATM    5  N2  UNL     1      26.013  -1.061  53.948  1.00  0.00    -0.212 NA
HETATM    6  C8  UNL     1      26.525  -0.286  52.824  1.00  0.00     0.243 A 
HETATM    7  N3  UNL     1      25.820   0.526  52.134  1.00  0.00    -0.223 NA
HETATM    8  C9  UNL     1      24.457   0.863  52.269  1.00  0.00     0.146 A 
HETATM    9  C15 UNL     1      23.631   0.347  53.208  1.00  0.00     0.049 A 
ENDROOT
BRANCH   1  10
HETATM   10  C4  UNL     1      21.229   0.064  52.664  1.00  0.00     0.136 C 
BRANCH  10  11
HETATM   11  N1  UNL     1      20.040  -0.622  53.050  1.00  0.00    -0.357 N 
HETATM   12  C3  UNL     1      18.677  -0.611  52.702  1.00  0.00     0.240 C 
HETATM   13  O1  UNL     1      18.351   0.198  51.803  1.00  0.00    -0.269 OA
HETATM   14  H4  UNL     1      20.215  -1.346  53.816  1.00  0.00     0.162 HD
BRANCH  12  15
HETATM   15  C2  UNL     1      17.677  -1.468  53.321  1.00  0.00     0.064 C 
HETATM   16  C1  UNL     1      17.732  -2.738  53.646  1.00  0.00     0.017 C 
ENDBRANCH  12  15
ENDBRANCH  10  11
ENDBRANCH   1  10
BRANCH   8  17
HETATM   17  N4  UNL     1      23.802   1.813  51.395  1.00  0.00    -0.337 N 
HETATM   18  C10 UNL     1      22.788   1.725  50.403  1.00  0.00     0.089 C 
HETATM   19  C11 UNL     1      22.655   2.873  49.809  1.00  0.00    -0.007 C 
HETATM   20  C12 UNL     1      23.582   3.910  50.336  1.00  0.00     0.054 C 
HETATM   21  C13 UNL     1      24.220   3.208  51.492  1.00  0.00     0.090 C 
HETATM   22  C14 UNL     1      23.699   3.827  52.772  1.00  0.00     0.033 C 
ENDBRANCH   8  17
TORSDOF 4
ENDMDL
MODEL 7
REMARK VINA RESULT:      -6.7      1.867      4.548
REMARK  4 active torsions:
REMARK  status: ('A' for Active; 'I' for Inactive)
REMARK    1  A    between atoms: C2_2  and  C3_3 
REMARK       I    between atoms: C3_3  and  N1_5 
REMARK    2  A    between atoms: N1_5  and  C4_6 
REMARK    3  A    between atoms: C4_6  and  C5_7 
REMARK    4  A    between atoms: C9_14  and  N4_15 
ROOT
HETATM    1  C5  UNL     1      24.546   1.327  52.064  1.00  0.00     0.071 A 
HETATM    2  C6  UNL     1      25.734   0.573  52.453  1.00  0.00    -0.007 A 
HETATM    3  C7  UNL     1      25.774  -0.416  53.384  1.00  0.00     0.059 A 
HETATM    4  S1  UNL     1      24.045  -0.470  53.917  1.00  0.00    -0.042 SA
HETATM    5  N2  UNL     1      23.001  -1.172  54.878  1.00  0.00    -0.212 NA
HETATM    6  C8  UNL     1      21.635  -0.669  54.782  1.00  0.00     0.243 A 
HETATM    7  N3  UNL     1      21.271   0.266  53.992  1.00  0.00    -0.223 NA
HETATM    8  C9  UNL     1      22.040   1.007  53.070  1.00  0.00     0.146 A 
HETATM    9  C15 UNL     1      23.365   0.834  52.865  1.00  0.00     0.049 A 
ENDROOT
BRANCH   1  10
HETATM   10  C4  UNL     1      24.744   2.790  52.219  1.00  0.00     0.136 C 
BRANCH  10  11
HETATM   11  N1  UNL     1      25.441   3.473  51.179  1.00  0.00    -0.357 N 
HETATM   12  C3  UNL     1      25.202   4.546  50.302  1.00  0.00     0.240 C 
HETATM   13  O1  UNL     1      24.089   5.108  50.420  1.00  0.00    -0.269 OA
HETATM   14  H4  UNL     1      26.414   3.067  51.003  1.00  0.00     0.162 HD
BRANCH  12  15
HETATM   15  C2  UNL     1      26.159   5.006  49.306  1.00  0.00     0.064 C 
HETATM   16  C1  UNL     1      27.292   4.476  48.911  1.00  0.00     0.017 C 
ENDBRANCH  12  15
ENDBRANCH  10  11
ENDBRANCH   1  10
BRANCH   8  17
HETATM   17  N4  UNL     1      21.467   2.046  52.240  1.00  0.00    -0.337 N 
HETATM   18  C10 UNL     1      21.519   3.467  52.239  1.00  0.00     0.089 C 
HETATM   19  C11 UNL     1      20.704   3.934  51.340  1.00  0.00    -0.007 C 
HETATM   20  C12 UNL     1      19.982   2.865  50.601  1.00  0.00     0.054 C 
HETATM   21  C13 UNL     1      20.629   1.623  51.123  1.00  0.00     0.090 C 
HETATM   22  C14 UNL     1      21.481   1.029  50.021  1.00  0.00     0.033 C 
ENDBRANCH   8  17
TORSDOF 4
ENDMDL
MODEL 8
REMARK VINA RESULT:      -6.6      1.906      4.239
REMARK  4 active torsions:
REMARK  status: ('A' for Active; 'I' for Inactive)
REMARK    1  A    between atoms: C2_2  and  C3_3 
REMARK       I    between atoms: C3_3  and  N1_5 
REMARK    2  A    between atoms: N1_5  and  C4_6 
REMARK    3  A    between atoms: C4_6  and  C5_7 
REMARK    4  A    between atoms: C9_14  and  N4_15 
ROOT
HETATM    1  C5  UNL     1      25.243   1.471  51.956  1.00  0.00     0.071 A 
HETATM    2  C6  UNL     1      26.680   1.613  52.174  1.00  0.00    -0.007 A 
HETATM    3  C7  UNL     1      27.393   1.015  53.164  1.00  0.00     0.059 A 
HETATM    4  S1  UNL     1      26.096   0.089  54.023  1.00  0.00    -0.042 SA
HETATM    5  N2  UNL     1      25.774  -0.889  55.226  1.00  0.00    -0.212 NA
HETATM    6  C8  UNL     1      24.375  -1.280  55.350  1.00  0.00     0.243 A 
HETATM    7  N3  UNL     1      23.449  -0.882  54.566  1.00  0.00    -0.223 NA
HETATM    8  C9  UNL     1      23.531  -0.022  53.451  1.00  0.00     0.146 A 
HETATM    9  C15 UNL     1      24.673   0.553  53.011  1.00  0.00     0.049 A 
ENDROOT
BRANCH   1  10
HETATM   10  C4  UNL     1      24.554   2.786  51.939  1.00  0.00     0.136 C 
BRANCH  10  11
HETATM   11  N1  UNL     1      25.160   3.836  51.188  1.00  0.00    -0.357 N 
HETATM   12  C3  UNL     1      25.291   4.201  49.836  1.00  0.00     0.240 C 
HETATM   13  O1  UNL     1      24.737   3.439  49.010  1.00  0.00    -0.269 OA
HETATM   14  H4  UNL     1      25.658   4.549  51.809  1.00  0.00     0.162 HD
BRANCH  12  15
HETATM   15  C2  UNL     1      26.013   5.381  49.383  1.00  0.00     0.064 C 
HETATM   16  C1  UNL     1      25.610   6.394  48.654  1.00  0.00     0.017 C 
ENDBRANCH  12  15
ENDBRANCH  10  11
ENDBRANCH   1  10
BRANCH   8  17
HETATM   17  N4  UNL     1      22.373   0.333  52.658  1.00  0.00    -0.337 N 
HETATM   18  C10 UNL     1      21.930   0.027  51.342  1.00  0.00     0.089 C 
HETATM   19  C11 UNL     1      20.866   0.721  51.065  1.00  0.00    -0.007 C 
HETATM   20  C12 UNL     1      20.442   1.604  52.183  1.00  0.00     0.054 C 
HETATM   21  C13 UNL     1      21.380   1.204  53.278  1.00  0.00     0.090 C 
HETATM   22  C14 UNL     1      20.593   0.444  54.325  1.00  0.00     0.033 C 
ENDBRANCH   8  17
TORSDOF 4
ENDMDL
MODEL 9
REMARK VINA RESULT:      -6.4      2.460      3.857
REMARK  4 active torsions:
REMARK  status: ('A' for Active; 'I' for Inactive)
REMARK    1  A    between atoms: C2_2  and  C3_3 
REMARK       I    between atoms: C3_3  and  N1_5 
REMARK    2  A    between atoms: N1_5  and  C4_6 
REMARK    3  A    between atoms: C4_6  and  C5_7 
REMARK    4  A    between atoms: C9_14  and  N4_15 
ROOT
HETATM    1  C5  UNL     1      22.438   4.052  52.054  1.00  0.00     0.071 A 
HETATM    2  C6  UNL     1      21.832   5.291  51.576  1.00  0.00    -0.007 A 
HETATM    3  C7  UNL     1      21.071   5.419  50.457  1.00  0.00     0.059 A 
HETATM    4  S1  UNL     1      21.070   3.719  49.834  1.00  0.00    -0.042 SA
HETATM    5  N2  UNL     1      20.556   2.752  48.691  1.00  0.00    -0.212 NA
HETATM    6  C8  UNL     1      20.974   1.361  48.821  1.00  0.00     0.243 A 
HETATM    7  N3  UNL     1      21.701   0.919  49.773  1.00  0.00    -0.223 NA
HETATM    8  C9  UNL     1      22.252   1.611  50.872  1.00  0.00     0.146 A 
HETATM    9  C15 UNL     1      22.088   2.932  51.104  1.00  0.00     0.049 A 
ENDROOT
BRANCH   1  10
HETATM   10  C4  UNL     1      23.907   4.187  52.229  1.00  0.00     0.136 C 
BRANCH  10  11
HETATM   11  N1  UNL     1      24.707   4.242  51.050  1.00  0.00    -0.357 N 
HETATM   12  C3  UNL     1      25.278   5.231  50.229  1.00  0.00     0.240 C 
HETATM   13  O1  UNL     1      25.071   6.415  50.580  1.00  0.00    -0.269 OA
HETATM   14  H4  UNL     1      24.945   3.271  50.671  1.00  0.00     0.162 HD
BRANCH  12  15
HETATM   15  C2  UNL     1      26.065   4.940  49.040  1.00  0.00     0.064 C 
HETATM   16  C1  UNL     1      27.366   4.893  48.875  1.00  0.00     0.017 C 
ENDBRANCH  12  15
ENDBRANCH  10  11
ENDBRANCH   1  10
BRANCH   8  17
HETATM   17  N4  UNL     1      23.064   0.954  51.875  1.00  0.00    -0.337 N 
HETATM   18  C10 UNL     1      24.432   1.023  52.256  1.00  0.00     0.089 C 
HETATM   19  C11 UNL     1      24.685   0.110  53.146  1.00  0.00    -0.007 C 
HETATM   20  C12 UNL     1      23.494  -0.712  53.489  1.00  0.00     0.054 C 
HETATM   21  C13 UNL     1      22.403  -0.021  52.736  1.00  0.00     0.090 C 
HETATM   22  C14 UNL     1      21.505   0.681  53.734  1.00  0.00     0.033 C 
ENDBRANCH   8  17
TORSDOF 4
ENDMDL
