MODEL 1
REMARK VINA RESULT:      -8.0      0.000      0.000
REMARK  6 active torsions:
REMARK  status: ('A' for Active; 'I' for Inactive)
REMARK    1  A    between atoms: O1_2  and  C2_3 
REMARK    2  A    between atoms: C6_9  and  N3_10 
REMARK    3  A    between atoms: N3_10  and  N4_11 
REMARK    4  A    between atoms: N4_11  and  C7_12 
REMARK    5  A    between atoms: C7_12  and  C8_13 
REMARK    6  A    between atoms: C15_22  and  O2_23 
ROOT
HETATM    1  C2  UNL     1      25.993   0.226  53.563  1.00  0.00     0.103 A 
HETATM    2  C3  UNL     1      24.756  -0.017  52.997  1.00  0.00     0.072 A 
HETATM    3  C4  UNL     1      23.891   1.008  52.673  1.00  0.00     0.075 A 
HETATM    4  N1  UNL     1      22.666   0.794  52.115  1.00  0.00    -0.241 NA
HETATM    5  C5  UNL     1      21.871   1.863  51.826  1.00  0.00     0.236 A 
HETATM    6  N2  UNL     1      22.276   3.140  52.083  1.00  0.00    -0.222 NA
HETATM    7  C6  UNL     1      23.477   3.370  52.631  1.00  0.00     0.155 A 
HETATM    8  C13 UNL     1      24.299   2.305  52.934  1.00  0.00     0.043 A 
HETATM    9  C14 UNL     1      25.533   2.560  53.499  1.00  0.00     0.057 A 
HETATM   10  C15 UNL     1      26.388   1.525  53.817  1.00  0.00     0.102 A 
ENDROOT
BRANCH   7  11
HETATM   11  N3  UNL     1      23.815   4.732  52.863  1.00  0.00    -0.287 N 
HETATM   12  H6  UNL     1      23.762   5.298  53.723  1.00  0.00     0.188 HD
BRANCH  11  13
HETATM   13  N4  UNL     1      24.296   5.495  51.827  1.00  0.00    -0.331 N 
HETATM   14  H7  UNL     1      24.097   6.497  51.845  1.00  0.00     0.180 HD
BRANCH  13  15
HETATM   15  C7  UNL     1      24.141   4.953  50.515  1.00  0.00     0.175 C 
BRANCH  15  16
HETATM   16  C8  UNL     1      25.355   5.288  49.723  1.00  0.00    -0.033 A 
HETATM   17  C9  UNL     1      26.373   4.454  49.478  1.00  0.00     0.076 A 
HETATM   18 CL1  UNL     1      26.525   2.789  50.021  1.00  0.00    -0.081 Cl
HETATM   19  C10 UNL     1      27.390   5.146  48.661  1.00  0.00     0.135 A 
HETATM   20  F1  UNL     1      28.556   4.590  48.230  1.00  0.00    -0.205 F 
HETATM   21  C11 UNL     1      26.960   6.396  48.427  1.00  0.00     0.022 A 
HETATM   22  C12 UNL     1      25.627   6.602  49.081  1.00  0.00     0.068 A 
ENDBRANCH  15  16
ENDBRANCH  13  15
ENDBRANCH  11  13
ENDBRANCH   7  11
BRANCH  10  23
HETATM   23  O2  UNL     1      27.620   1.778  54.381  1.00  0.00    -0.353 OA
HETATM   24  C16 UNL     1      28.610   2.369  53.555  1.00  0.00     0.210 C 
ENDBRANCH  10  23
BRANCH   1  25
HETATM   25  O1  UNL     1      26.876  -0.782  53.896  1.00  0.00    -0.353 OA
HETATM   26  C1  UNL     1      27.683  -1.507  53.022  1.00  0.00     0.210 C 
ENDBRANCH   1  25
TORSDOF 6
ENDMDL
MODEL 2
REMARK VINA RESULT:      -7.7      3.439      5.800
REMARK  6 active torsions:
REMARK  status: ('A' for Active; 'I' for Inactive)
REMARK    1  A    between atoms: O1_2  and  C2_3 
REMARK    2  A    between atoms: C6_9  and  N3_10 
REMARK    3  A    between atoms: N3_10  and  N4_11 
REMARK    4  A    between atoms: N4_11  and  C7_12 
REMARK    5  A    between atoms: C7_12  and  C8_13 
REMARK    6  A    between atoms: C15_22  and  O2_23 
ROOT
HETATM    1  C2  UNL     1      21.213   0.581  51.969  1.00  0.00     0.103 A 
HETATM    2  C3  UNL     1      21.534   1.171  50.761  1.00  0.00     0.072 A 
HETATM    3  C4  UNL     1      22.692   1.902  50.593  1.00  0.00     0.075 A 
HETATM    4  N1  UNL     1      23.030   2.492  49.412  1.00  0.00    -0.241 NA
HETATM    5  C5  UNL     1      24.194   3.198  49.331  1.00  0.00     0.236 A 
HETATM    6  N2  UNL     1      25.025   3.325  50.405  1.00  0.00    -0.222 NA
HETATM    7  C6  UNL     1      24.708   2.752  51.574  1.00  0.00     0.155 A 
HETATM    8  C13 UNL     1      23.536   2.033  51.682  1.00  0.00     0.043 A 
HETATM    9  C14 UNL     1      23.226   1.449  52.895  1.00  0.00     0.057 A 
HETATM   10  C15 UNL     1      22.065   0.720  53.047  1.00  0.00     0.102 A 
ENDROOT
BRANCH   7  11
HETATM   11  N3  UNL     1      25.634   2.937  52.639  1.00  0.00    -0.287 N 
HETATM   12  H6  UNL     1      25.557   3.493  53.503  1.00  0.00     0.188 HD
BRANCH  11  13
HETATM   13  N4  UNL     1      26.855   2.310  52.590  1.00  0.00    -0.331 N 
HETATM   14  H7  UNL     1      26.995   1.603  51.866  1.00  0.00     0.180 HD
BRANCH  13  15
HETATM   15  C7  UNL     1      27.406   1.896  53.841  1.00  0.00     0.175 C 
BRANCH  15  16
HETATM   16  C8  UNL     1      28.154   0.628  53.627  1.00  0.00    -0.033 A 
HETATM   17  C9  UNL     1      27.602  -0.553  53.322  1.00  0.00     0.076 A 
HETATM   18 CL1  UNL     1      25.891  -0.891  53.102  1.00  0.00    -0.081 Cl
HETATM   19  C10 UNL     1      28.663  -1.572  53.190  1.00  0.00     0.135 A 
HETATM   20  F1  UNL     1      28.453  -2.882  52.885  1.00  0.00    -0.205 F 
HETATM   21  C11 UNL     1      29.844  -0.979  53.420  1.00  0.00     0.022 A 
HETATM   22  C12 UNL     1      29.631   0.474  53.720  1.00  0.00     0.068 A 
ENDBRANCH  15  16
ENDBRANCH  13  15
ENDBRANCH  11  13
ENDBRANCH   7  11
BRANCH  10  23
HETATM   23  O2  UNL     1      21.755   0.137  54.256  1.00  0.00    -0.353 OA
HETATM   24  C16 UNL     1      22.526  -0.983  54.661  1.00  0.00     0.210 C 
ENDBRANCH  10  23
BRANCH   1  25
HETATM   25  O1  UNL     1      20.061  -0.154  52.161  1.00  0.00    -0.353 OA
HETATM   26  C1  UNL     1      18.767   0.210  51.796  1.00  0.00     0.210 C 
ENDBRANCH   1  25
TORSDOF 6
ENDMDL
MODEL 3
REMARK VINA RESULT:      -7.6      4.623      6.652
REMARK  6 active torsions:
REMARK  status: ('A' for Active; 'I' for Inactive)
REMARK    1  A    between atoms: O1_2  and  C2_3 
REMARK    2  A    between atoms: C6_9  and  N3_10 
REMARK    3  A    between atoms: N3_10  and  N4_11 
REMARK    4  A    between atoms: N4_11  and  C7_12 
REMARK    5  A    between atoms: C7_12  and  C8_13 
REMARK    6  A    between atoms: C15_22  and  O2_23 
ROOT
HETATM    1  C2  UNL     1      18.982  -0.453  52.504  1.00  0.00     0.103 A 
HETATM    2  C3  UNL     1      19.538  -1.098  53.593  1.00  0.00     0.072 A 
HETATM    3  C4  UNL     1      20.882  -0.996  53.890  1.00  0.00     0.075 A 
HETATM    4  N1  UNL     1      21.452  -1.623  54.956  1.00  0.00    -0.241 NA
HETATM    5  C5  UNL     1      22.789  -1.471  55.180  1.00  0.00     0.236 A 
HETATM    6  N2  UNL     1      23.564  -0.707  54.358  1.00  0.00    -0.222 NA
HETATM    7  C6  UNL     1      23.021  -0.084  53.304  1.00  0.00     0.155 A 
HETATM    8  C13 UNL     1      21.670  -0.222  53.057  1.00  0.00     0.043 A 
HETATM    9  C14 UNL     1      21.126   0.428  51.966  1.00  0.00     0.057 A 
HETATM   10  C15 UNL     1      19.781   0.317  51.682  1.00  0.00     0.102 A 
ENDROOT
BRANCH   7  11
HETATM   11  N3  UNL     1      23.905   0.692  52.504  1.00  0.00    -0.287 N 
HETATM   12  H6  UNL     1      23.811   1.024  51.533  1.00  0.00     0.188 HD
BRANCH  11  13
HETATM   13  N4  UNL     1      25.103   1.109  53.030  1.00  0.00    -0.331 N 
HETATM   14  H7  UNL     1      25.083   1.881  53.699  1.00  0.00     0.180 HD
BRANCH  13  15
HETATM   15  C7  UNL     1      26.187   1.242  52.110  1.00  0.00     0.175 C 
BRANCH  15  16
HETATM   16  C8  UNL     1      27.406   0.661  52.734  1.00  0.00    -0.033 A 
HETATM   17  C9  UNL     1      27.674  -0.646  52.837  1.00  0.00     0.076 A 
HETATM   18 CL1  UNL     1      26.671  -1.975  52.271  1.00  0.00    -0.081 Cl
HETATM   19  C10 UNL     1      28.972  -0.830  53.516  1.00  0.00     0.135 A 
HETATM   20  F1  UNL     1      29.549  -2.034  53.785  1.00  0.00    -0.205 F 
HETATM   21  C11 UNL     1      29.466   0.382  53.812  1.00  0.00     0.022 A 
HETATM   22  C12 UNL     1      28.516   1.442  53.343  1.00  0.00     0.068 A 
ENDBRANCH  15  16
ENDBRANCH  13  15
ENDBRANCH  11  13
ENDBRANCH   7  11
BRANCH  10  23
HETATM   23  O2  UNL     1      19.237   0.965  50.594  1.00  0.00    -0.353 OA
HETATM   24  C16 UNL     1      20.102   1.271  49.513  1.00  0.00     0.210 C 
ENDBRANCH  10  23
BRANCH   1  25
HETATM   25  O1  UNL     1      17.641  -0.538  52.187  1.00  0.00    -0.353 OA
HETATM   26  C1  UNL     1      16.701  -1.393  52.758  1.00  0.00     0.210 C 
ENDBRANCH   1  25
TORSDOF 6
ENDMDL
MODEL 4
REMARK VINA RESULT:      -7.6      1.602      1.863
REMARK  6 active torsions:
REMARK  status: ('A' for Active; 'I' for Inactive)
REMARK    1  A    between atoms: O1_2  and  C2_3 
REMARK    2  A    between atoms: C6_9  and  N3_10 
REMARK    3  A    between atoms: N3_10  and  N4_11 
REMARK    4  A    between atoms: N4_11  and  C7_12 
REMARK    5  A    between atoms: C7_12  and  C8_13 
REMARK    6  A    between atoms: C15_22  and  O2_23 
ROOT
HETATM    1  C2  UNL     1      27.107  -0.351  53.580  1.00  0.00     0.103 A 
HETATM    2  C3  UNL     1      25.792  -0.759  53.697  1.00  0.00     0.072 A 
HETATM    3  C4  UNL     1      24.740   0.093  53.431  1.00  0.00     0.075 A 
HETATM    4  N1  UNL     1      23.435  -0.285  53.540  1.00  0.00    -0.241 NA
HETATM    5  C5  UNL     1      22.455   0.619  53.259  1.00  0.00     0.236 A 
HETATM    6  N2  UNL     1      22.753   1.893  52.872  1.00  0.00    -0.222 NA
HETATM    7  C6  UNL     1      24.029   2.283  52.760  1.00  0.00     0.155 A 
HETATM    8  C13 UNL     1      25.040   1.386  53.039  1.00  0.00     0.043 A 
HETATM    9  C14 UNL     1      26.350   1.805  52.918  1.00  0.00     0.057 A 
HETATM   10  C15 UNL     1      27.391   0.942  53.187  1.00  0.00     0.102 A 
ENDROOT
BRANCH   7  11
HETATM   11  N3  UNL     1      24.245   3.628  52.350  1.00  0.00    -0.287 N 
HETATM   12  H6  UNL     1      24.818   4.373  52.773  1.00  0.00     0.188 HD
BRANCH  11  13
HETATM   13  N4  UNL     1      23.627   4.097  51.217  1.00  0.00    -0.331 N 
HETATM   14  H7  UNL     1      22.619   4.263  51.261  1.00  0.00     0.180 HD
BRANCH  13  15
HETATM   15  C7  UNL     1      24.001   3.475  49.986  1.00  0.00     0.175 C 
BRANCH  15  16
HETATM   16  C8  UNL     1      25.243   4.127  49.491  1.00  0.00    -0.033 A 
HETATM   17  C9  UNL     1      25.316   5.357  48.968  1.00  0.00     0.076 A 
HETATM   18 CL1  UNL     1      23.987   6.486  48.741  1.00  0.00    -0.081 Cl
HETATM   19  C10 UNL     1      26.714   5.649  48.592  1.00  0.00     0.135 A 
HETATM   20  F1  UNL     1      27.144   6.814  48.031  1.00  0.00    -0.205 F 
HETATM   21  C11 UNL     1      27.463   4.580  48.898  1.00  0.00     0.022 A 
HETATM   22  C12 UNL     1      26.598   3.512  49.498  1.00  0.00     0.068 A 
ENDBRANCH  15  16
ENDBRANCH  13  15
ENDBRANCH  11  13
ENDBRANCH   7  11
BRANCH  10  23
HETATM   23  O2  UNL     1      28.700   1.359  53.066  1.00  0.00    -0.353 OA
HETATM   24  C16 UNL     1      29.106   2.474  53.842  1.00  0.00     0.210 C 
ENDBRANCH  10  23
BRANCH   1  25
HETATM   25  O1  UNL     1      28.176  -1.185  53.840  1.00  0.00    -0.353 OA
HETATM   26  C1  UNL     1      28.711  -2.148  52.987  1.00  0.00     0.210 C 
ENDBRANCH   1  25
TORSDOF 6
ENDMDL
MODEL 5
REMARK VINA RESULT:      -7.5      2.903      4.094
REMARK  6 active torsions:
REMARK  status: ('A' for Active; 'I' for Inactive)
REMARK    1  A    between atoms: O1_2  and  C2_3 
REMARK    2  A    between atoms: C6_9  and  N3_10 
REMARK    3  A    between atoms: N3_10  and  N4_11 
REMARK    4  A    between atoms: N4_11  and  C7_12 
REMARK    5  A    between atoms: C7_12  and  C8_13 
REMARK    6  A    between atoms: C15_22  and  O2_23 
ROOT
HETATM    1  C2  UNL     1      22.867  -0.540  53.381  1.00  0.00     0.103 A 
HETATM    2  C3  UNL     1      23.962  -0.909  54.139  1.00  0.00     0.072 A 
HETATM    3  C4  UNL     1      25.126  -0.168  54.144  1.00  0.00     0.075 A 
HETATM    4  N1  UNL     1      26.218  -0.512  54.882  1.00  0.00    -0.241 NA
HETATM    5  C5  UNL     1      27.330   0.275  54.830  1.00  0.00     0.236 A 
HETATM    6  N2  UNL     1      27.371   1.397  54.055  1.00  0.00    -0.222 NA
HETATM    7  C6  UNL     1      26.307   1.750  53.322  1.00  0.00     0.155 A 
HETATM    8  C13 UNL     1      25.170   0.970  53.358  1.00  0.00     0.043 A 
HETATM    9  C14 UNL     1      24.082   1.349  52.596  1.00  0.00     0.057 A 
HETATM   10  C15 UNL     1      22.925   0.598  52.602  1.00  0.00     0.102 A 
ENDROOT
BRANCH   7  11
HETATM   11  N3  UNL     1      26.440   2.935  52.546  1.00  0.00    -0.287 N 
HETATM   12  H6  UNL     1      26.058   3.880  52.697  1.00  0.00     0.188 HD
BRANCH  11  13
HETATM   13  N4  UNL     1      27.179   2.906  51.389  1.00  0.00    -0.331 N 
HETATM   14  H7  UNL     1      28.004   3.507  51.339  1.00  0.00     0.180 HD
BRANCH  13  15
HETATM   15  C7  UNL     1      26.442   2.925  50.165  1.00  0.00     0.175 C 
BRANCH  15  16
HETATM   16  C8  UNL     1      26.527   4.294  49.588  1.00  0.00    -0.033 A 
HETATM   17  C9  UNL     1      25.646   5.279  49.803  1.00  0.00     0.076 A 
HETATM   18 CL1  UNL     1      24.200   5.202  50.800  1.00  0.00    -0.081 Cl
HETATM   19  C10 UNL     1      26.068   6.485  49.062  1.00  0.00     0.135 A 
HETATM   20  F1  UNL     1      25.400   7.672  49.057  1.00  0.00    -0.205 F 
HETATM   21  C11 UNL     1      27.204   6.200  48.409  1.00  0.00     0.022 A 
HETATM   22  C12 UNL     1      27.602   4.781  48.682  1.00  0.00     0.068 A 
ENDBRANCH  15  16
ENDBRANCH  13  15
ENDBRANCH  11  13
ENDBRANCH   7  11
BRANCH  10  23
HETATM   23  O2  UNL     1      21.838   0.976  51.843  1.00  0.00    -0.353 OA
HETATM   24  C16 UNL     1      21.101   2.109  52.270  1.00  0.00     0.210 C 
ENDBRANCH  10  23
BRANCH   1  25
HETATM   25  O1  UNL     1      21.692  -1.265  53.360  1.00  0.00    -0.353 OA
HETATM   26  C1  UNL     1      20.951  -1.687  54.462  1.00  0.00     0.210 C 
ENDBRANCH   1  25
TORSDOF 6
ENDMDL
MODEL 6
REMARK VINA RESULT:      -7.4      3.752      5.949
REMARK  6 active torsions:
REMARK  status: ('A' for Active; 'I' for Inactive)
REMARK    1  A    between atoms: O1_2  and  C2_3 
REMARK    2  A    between atoms: C6_9  and  N3_10 
REMARK    3  A    between atoms: N3_10  and  N4_11 
REMARK    4  A    between atoms: N4_11  and  C7_12 
REMARK    5  A    between atoms: C7_12  and  C8_13 
REMARK    6  A    between atoms: C15_22  and  O2_23 
ROOT
HETATM    1  C2  UNL     1      27.355   0.031  53.662  1.00  0.00     0.103 A 
HETATM    2  C3  UNL     1      27.635   0.906  52.630  1.00  0.00     0.072 A 
HETATM    3  C4  UNL     1      26.665   1.724  52.087  1.00  0.00     0.075 A 
HETATM    4  N1  UNL     1      26.917   2.594  51.069  1.00  0.00    -0.241 NA
HETATM    5  C5  UNL     1      25.901   3.367  50.589  1.00  0.00     0.236 A 
HETATM    6  N2  UNL     1      24.642   3.287  51.106  1.00  0.00    -0.222 NA
HETATM    7  C6  UNL     1      24.375   2.436  52.107  1.00  0.00     0.155 A 
HETATM    8  C13 UNL     1      25.386   1.643  52.609  1.00  0.00     0.043 A 
HETATM    9  C14 UNL     1      25.094   0.773  53.641  1.00  0.00     0.057 A 
HETATM   10  C15 UNL     1      26.074  -0.039  54.174  1.00  0.00     0.102 A 
ENDROOT
BRANCH   7  11
HETATM   11  N3  UNL     1      23.035   2.421  52.582  1.00  0.00    -0.287 N 
HETATM   12  H6  UNL     1      22.664   2.505  53.540  1.00  0.00     0.188 HD
BRANCH  11  13
HETATM   13  N4  UNL     1      22.002   2.273  51.690  1.00  0.00    -0.331 N 
HETATM   14  H7  UNL     1      21.103   2.694  51.932  1.00  0.00     0.180 HD
BRANCH  13  15
HETATM   15  C7  UNL     1      21.835   0.972  51.124  1.00  0.00     0.175 C 
BRANCH  15  16
HETATM   16  C8  UNL     1      20.482   0.472  51.488  1.00  0.00    -0.033 A 
HETATM   17  C9  UNL     1      20.146  -0.059  52.670  1.00  0.00     0.076 A 
HETATM   18 CL1  UNL     1      21.200  -0.294  54.057  1.00  0.00    -0.081 Cl
HETATM   19  C10 UNL     1      18.719  -0.437  52.651  1.00  0.00     0.135 A 
HETATM   20  F1  UNL     1      18.048  -1.005  53.691  1.00  0.00    -0.205 F 
HETATM   21  C11 UNL     1      18.217  -0.123  51.447  1.00  0.00     0.022 A 
HETATM   22  C12 UNL     1      19.292   0.484  50.596  1.00  0.00     0.068 A 
ENDBRANCH  15  16
ENDBRANCH  13  15
ENDBRANCH  11  13
ENDBRANCH   7  11
BRANCH  10  23
HETATM   23  O2  UNL     1      25.784  -0.908  55.203  1.00  0.00    -0.353 OA
HETATM   24  C16 UNL     1      24.426  -1.265  55.397  1.00  0.00     0.210 C 
ENDBRANCH  10  23
BRANCH   1  25
HETATM   25  O1  UNL     1      28.308  -0.797  54.222  1.00  0.00    -0.353 OA
HETATM   26  C1  UNL     1      29.644  -0.906  53.844  1.00  0.00     0.210 C 
ENDBRANCH   1  25
TORSDOF 6
ENDMDL
MODEL 7
REMARK VINA RESULT:      -7.3      3.598      6.022
REMARK  6 active torsions:
REMARK  status: ('A' for Active; 'I' for Inactive)
REMARK    1  A    between atoms: O1_2  and  C2_3 
REMARK    2  A    between atoms: C6_9  and  N3_10 
REMARK    3  A    between atoms: N3_10  and  N4_11 
REMARK    4  A    between atoms: N4_11  and  C7_12 
REMARK    5  A    between atoms: C7_12  and  C8_13 
REMARK    6  A    between atoms: C15_22  and  O2_23 
ROOT
HETATM    1  C2  UNL     1      20.294   2.789  52.323  1.00  0.00     0.103 A 
HETATM    2  C3  UNL     1      19.874   1.589  52.865  1.00  0.00     0.072 A 
HETATM    3  C4  UNL     1      20.770   0.617  53.262  1.00  0.00     0.075 A 
HETATM    4  N1  UNL     1      20.381  -0.573  53.798  1.00  0.00    -0.241 NA
HETATM    5  C5  UNL     1      21.331  -1.480  54.164  1.00  0.00     0.236 A 
HETATM    6  N2  UNL     1      22.660  -1.220  54.005  1.00  0.00    -0.222 NA
HETATM    7  C6  UNL     1      23.062  -0.055  53.479  1.00  0.00     0.155 A 
HETATM    8  C13 UNL     1      22.120   0.879  53.100  1.00  0.00     0.043 A 
HETATM    9  C14 UNL     1      22.551   2.074  52.560  1.00  0.00     0.057 A 
HETATM   10  C15 UNL     1      21.644   3.036  52.168  1.00  0.00     0.102 A 
ENDROOT
BRANCH   7  11
HETATM   11  N3  UNL     1      24.467   0.129  53.351  1.00  0.00    -0.287 N 
HETATM   12  H6  UNL     1      25.013   0.973  53.126  1.00  0.00     0.188 HD
BRANCH  11  13
HETATM   13  N4  UNL     1      25.309  -0.939  53.541  1.00  0.00    -0.331 N 
HETATM   14  H7  UNL     1      25.531  -1.201  54.504  1.00  0.00     0.180 HD
BRANCH  13  15
HETATM   15  C7  UNL     1      26.465  -0.991  52.705  1.00  0.00     0.175 C 
BRANCH  15  16
HETATM   16  C8  UNL     1      27.467  -0.024  53.229  1.00  0.00    -0.033 A 
HETATM   17  C9  UNL     1      27.636   1.229  52.790  1.00  0.00     0.076 A 
HETATM   18 CL1  UNL     1      26.733   2.028  51.511  1.00  0.00    -0.081 Cl
HETATM   19  C10 UNL     1      28.723   1.875  53.553  1.00  0.00     0.135 A 
HETATM   20  F1  UNL     1      29.157   3.152  53.366  1.00  0.00    -0.205 F 
HETATM   21  C11 UNL     1      29.193   0.989  54.445  1.00  0.00     0.022 A 
HETATM   22  C12 UNL     1      28.439  -0.300  54.322  1.00  0.00     0.068 A 
ENDBRANCH  15  16
ENDBRANCH  13  15
ENDBRANCH  11  13
ENDBRANCH   7  11
BRANCH  10  23
HETATM   23  O2  UNL     1      22.073   4.230  51.629  1.00  0.00    -0.353 OA
HETATM   24  C16 UNL     1      23.270   4.213  50.869  1.00  0.00     0.210 C 
ENDBRANCH  10  23
BRANCH   1  25
HETATM   25  O1  UNL     1      19.417   3.776  51.919  1.00  0.00    -0.353 OA
HETATM   26  C1  UNL     1      18.083   3.609  51.553  1.00  0.00     0.210 C 
ENDBRANCH   1  25
TORSDOF 6
ENDMDL
MODEL 8
REMARK VINA RESULT:      -7.3      3.580      5.331
REMARK  6 active torsions:
REMARK  status: ('A' for Active; 'I' for Inactive)
REMARK    1  A    between atoms: O1_2  and  C2_3 
REMARK    2  A    between atoms: C6_9  and  N3_10 
REMARK    3  A    between atoms: N3_10  and  N4_11 
REMARK    4  A    between atoms: N4_11  and  C7_12 
REMARK    5  A    between atoms: C7_12  and  C8_13 
REMARK    6  A    between atoms: C15_22  and  O2_23 
ROOT
HETATM    1  C2  UNL     1      19.949  -0.011  52.500  1.00  0.00     0.103 A 
HETATM    2  C3  UNL     1      20.284  -0.619  53.696  1.00  0.00     0.072 A 
HETATM    3  C4  UNL     1      21.597  -0.769  54.092  1.00  0.00     0.075 A 
HETATM    4  N1  UNL     1      21.952  -1.364  55.265  1.00  0.00    -0.241 NA
HETATM    5  C5  UNL     1      23.274  -1.473  55.582  1.00  0.00     0.236 A 
HETATM    6  N2  UNL     1      24.246  -0.999  54.750  1.00  0.00    -0.222 NA
HETATM    7  C6  UNL     1      23.916  -0.411  53.592  1.00  0.00     0.155 A 
HETATM    8  C13 UNL     1      22.585  -0.289  53.249  1.00  0.00     0.043 A 
HETATM    9  C14 UNL     1      22.263   0.320  52.052  1.00  0.00     0.057 A 
HETATM   10  C15 UNL     1      20.945   0.463  51.670  1.00  0.00     0.102 A 
ENDROOT
BRANCH   7  11
HETATM   11  N3  UNL     1      24.994   0.053  52.790  1.00  0.00    -0.287 N 
HETATM   12  H6  UNL     1      25.324  -0.261  51.865  1.00  0.00     0.188 HD
BRANCH  11  13
HETATM   13  N4  UNL     1      25.780   1.085  53.243  1.00  0.00    -0.331 N 
HETATM   14  H7  UNL     1      26.271   0.951  54.129  1.00  0.00     0.180 HD
BRANCH  13  15
HETATM   15  C7  UNL     1      25.222   2.396  53.146  1.00  0.00     0.175 C 
BRANCH  15  16
HETATM   16  C8  UNL     1      25.318   2.843  51.730  1.00  0.00    -0.033 A 
HETATM   17  C9  UNL     1      24.341   3.444  51.040  1.00  0.00     0.076 A 
HETATM   18 CL1  UNL     1      22.733   3.847  51.625  1.00  0.00    -0.081 Cl
HETATM   19  C10 UNL     1      24.812   3.733  49.671  1.00  0.00     0.135 A 
HETATM   20  F1  UNL     1      24.072   4.341  48.703  1.00  0.00    -0.205 F 
HETATM   21  C11 UNL     1      26.076   3.296  49.562  1.00  0.00     0.022 A 
HETATM   22  C12 UNL     1      26.515   2.690  50.860  1.00  0.00     0.068 A 
ENDBRANCH  15  16
ENDBRANCH  13  15
ENDBRANCH  11  13
ENDBRANCH   7  11
BRANCH  10  23
HETATM   23  O2  UNL     1      20.622   1.071  50.476  1.00  0.00    -0.353 OA
HETATM   24  C16 UNL     1      21.627   1.130  49.477  1.00  0.00     0.210 C 
ENDBRANCH  10  23
BRANCH   1  25
HETATM   25  O1  UNL     1      18.643   0.151  52.082  1.00  0.00    -0.353 OA
HETATM   26  C1  UNL     1      17.619  -0.790  52.159  1.00  0.00     0.210 C 
ENDBRANCH   1  25
TORSDOF 6
ENDMDL
MODEL 9
REMARK VINA RESULT:      -7.2      4.277      6.863
REMARK  6 active torsions:
REMARK  status: ('A' for Active; 'I' for Inactive)
REMARK    1  A    between atoms: O1_2  and  C2_3 
REMARK    2  A    between atoms: C6_9  and  N3_10 
REMARK    3  A    between atoms: N3_10  and  N4_11 
REMARK    4  A    between atoms: N4_11  and  C7_12 
REMARK    5  A    between atoms: C7_12  and  C8_13 
REMARK    6  A    between atoms: C15_22  and  O2_23 
ROOT
HETATM    1  C2  UNL     1      26.332   1.124  54.026  1.00  0.00     0.103 A 
HETATM    2  C3  UNL     1      25.775   2.366  53.787  1.00  0.00     0.072 A 
HETATM    3  C4  UNL     1      24.566   2.507  53.136  1.00  0.00     0.075 A 
HETATM    4  N1  UNL     1      23.997   3.720  52.889  1.00  0.00    -0.241 NA
HETATM    5  C5  UNL     1      22.799   3.773  52.239  1.00  0.00     0.236 A 
HETATM    6  N2  UNL     1      22.160   2.638  51.834  1.00  0.00    -0.222 NA
HETATM    7  C6  UNL     1      22.705   1.436  52.069  1.00  0.00     0.155 A 
HETATM    8  C13 UNL     1      23.916   1.357  52.724  1.00  0.00     0.043 A 
HETATM    9  C14 UNL     1      24.463   0.110  52.957  1.00  0.00     0.057 A 
HETATM   10  C15 UNL     1      25.672  -0.015  53.609  1.00  0.00     0.102 A 
ENDROOT
BRANCH   7  11
HETATM   11  N3  UNL     1      21.968   0.309  51.611  1.00  0.00    -0.287 N 
HETATM   12  H6  UNL     1      22.256  -0.673  51.486  1.00  0.00     0.188 HD
BRANCH  11  13
HETATM   13  N4  UNL     1      20.650   0.461  51.255  1.00  0.00    -0.331 N 
HETATM   14  H7  UNL     1      20.451   0.912  50.360  1.00  0.00     0.180 HD
BRANCH  13  15
HETATM   15  C7  UNL     1      19.765   0.919  52.279  1.00  0.00     0.175 C 
BRANCH  15  16
HETATM   16  C8  UNL     1      18.816  -0.180  52.603  1.00  0.00    -0.033 A 
HETATM   17  C9  UNL     1      19.083  -1.224  53.396  1.00  0.00     0.076 A 
HETATM   18 CL1  UNL     1      20.592  -1.550  54.237  1.00  0.00    -0.081 Cl
HETATM   19  C10 UNL     1      17.896  -2.099  53.474  1.00  0.00     0.135 A 
HETATM   20  F1  UNL     1      17.821  -3.251  54.196  1.00  0.00    -0.205 F 
HETATM   21  C11 UNL     1      16.927  -1.560  52.718  1.00  0.00     0.022 A 
HETATM   22  C12 UNL     1      17.422  -0.290  52.094  1.00  0.00     0.068 A 
ENDBRANCH  15  16
ENDBRANCH  13  15
ENDBRANCH  11  13
ENDBRANCH   7  11
BRANCH  10  23
HETATM   23  O2  UNL     1      26.219  -1.259  53.843  1.00  0.00    -0.353 OA
HETATM   24  C16 UNL     1      26.888  -1.894  52.766  1.00  0.00     0.210 C 
ENDBRANCH  10  23
BRANCH   1  25
HETATM   25  O1  UNL     1      27.539   0.957  54.674  1.00  0.00    -0.353 OA
HETATM   26  C1  UNL     1      28.810   1.159  54.139  1.00  0.00     0.210 C 
ENDBRANCH   1  25
TORSDOF 6
ENDMDL
