MODEL 1
REMARK VINA RESULT:      -8.5      0.000      0.000
REMARK  4 active torsions:
REMARK  status: ('A' for Active; 'I' for Inactive)
REMARK    1  A    between atoms: C2_2  and  O1_3 
REMARK    2  A    between atoms: O1_3  and  C3_4 
REMARK    3  A    between atoms: N2_11  and  C9_12 
REMARK    4  A    between atoms: C9_12  and  C10_13 
ROOT
HETATM    1  C10 UNL     1      28.094   0.417  54.014  1.00  0.00     0.112 C 
HETATM    2  C11 UNL     1      29.203  -0.507  53.937  1.00  0.00     0.089 C 
HETATM    3  N3  UNL     1      30.085  -1.235  53.857  1.00  0.00    -0.192 NA
ENDROOT
BRANCH   1   4
HETATM    4  C9  UNL     1      27.644   1.243  53.121  1.00  0.00     0.130 C 
BRANCH   4   5
HETATM    5  N2  UNL     1      27.245   2.103  52.178  1.00  0.00    -0.243 NA
HETATM    6  C8  UNL     1      26.342   2.808  51.777  1.00  0.00     0.128 C 
HETATM    7  N1  UNL     1      25.443   2.481  52.796  1.00  0.00    -0.350 N 
HETATM    8  C12 UNL     1      26.884   3.463  50.549  1.00  0.00     0.072 C 
HETATM    9  C7  UNL     1      24.857   1.166  52.777  1.00  0.00     0.097 C 
HETATM   10  H10 UNL     1      25.228   3.193  53.531  1.00  0.00     0.166 HD
HETATM   11  C6  UNL     1      23.877   0.306  52.883  1.00  0.00    -0.038 C 
HETATM   12  C5  UNL     1      23.021  -0.873  52.930  1.00  0.00     0.070 C 
HETATM   13  C22 UNL     1      22.921   1.358  53.165  1.00  0.00     0.024 C 
HETATM   14  C4  UNL     1      21.580  -0.603  52.645  1.00  0.00     0.015 C 
HETATM   15  C3  UNL     1      21.443   0.382  51.736  1.00  0.00     0.076 C 
HETATM   16  C21 UNL     1      22.236   1.577  52.010  1.00  0.00     0.008 C 
HETATM   17  C18 UNL     1      22.671   2.903  51.609  1.00  0.00    -0.023 A 
HETATM   18  C17 UNL     1      23.145   2.379  50.440  1.00  0.00     0.015 A 
HETATM   19  C19 UNL     1      22.571   3.956  52.453  1.00  0.00     0.015 A 
HETATM   20  C16 UNL     1      23.904   3.143  49.597  1.00  0.00     0.037 A 
HETATM   21  C15 UNL     1      23.812   4.197  50.440  1.00  0.00     0.069 A 
HETATM   22  O2  UNL     1      24.469   5.367  50.103  1.00  0.00    -0.346 OA
HETATM   23  C20 UNL     1      23.335   4.709  51.603  1.00  0.00     0.037 A 
HETATM   24  C14 UNL     1      25.536   5.344  49.143  1.00  0.00     0.227 C 
HETATM   25  C13 UNL     1      26.548   4.361  49.601  1.00  0.00     0.039 C 
HETATM   26 CL1  UNL     1      27.756   4.678  48.341  1.00  0.00    -0.086 Cl
BRANCH  15  27
HETATM   27  O1  UNL     1      20.771   0.700  50.545  1.00  0.00    -0.351 OA
BRANCH  27  28
HETATM   28  C2  UNL     1      19.490   1.258  50.675  1.00  0.00     0.171 C 
HETATM   29  C1  UNL     1      18.407   0.237  50.946  1.00  0.00     0.034 C 
ENDBRANCH  27  28
ENDBRANCH  15  27
ENDBRANCH   4   5
ENDBRANCH   1   4
TORSDOF 4
ENDMDL
MODEL 2
REMARK VINA RESULT:      -8.4      1.735      2.156
REMARK  4 active torsions:
REMARK  status: ('A' for Active; 'I' for Inactive)
REMARK    1  A    between atoms: C2_2  and  O1_3 
REMARK    2  A    between atoms: O1_3  and  C3_4 
REMARK    3  A    between atoms: N2_11  and  C9_12 
REMARK    4  A    between atoms: C9_12  and  C10_13 
ROOT
HETATM    1  C10 UNL     1      26.544  -0.466  52.616  1.00  0.00     0.112 C 
HETATM    2  C11 UNL     1      25.953  -0.793  53.895  1.00  0.00     0.089 C 
HETATM    3  N3  UNL     1      25.479  -1.034  54.910  1.00  0.00    -0.192 NA
ENDROOT
BRANCH   1   4
HETATM    4  C9  UNL     1      26.478   0.635  51.934  1.00  0.00     0.130 C 
BRANCH   4   5
HETATM    5  N2  UNL     1      26.421   1.804  51.288  1.00  0.00    -0.243 NA
HETATM    6  C8  UNL     1      25.806   2.840  51.135  1.00  0.00     0.128 C 
HETATM    7  N1  UNL     1      24.792   2.539  52.047  1.00  0.00    -0.350 N 
HETATM    8  C12 UNL     1      26.596   3.609  50.127  1.00  0.00     0.072 C 
HETATM    9  C7  UNL     1      23.830   1.534  51.674  1.00  0.00     0.097 C 
HETATM   10  H10 UNL     1      24.764   3.045  52.962  1.00  0.00     0.166 HD
HETATM   11  C6  UNL     1      22.627   1.031  51.562  1.00  0.00    -0.038 C 
HETATM   12  C5  UNL     1      21.448   0.216  51.300  1.00  0.00     0.070 C 
HETATM   13  C22 UNL     1      22.028   2.206  52.164  1.00  0.00     0.024 C 
HETATM   14  C4  UNL     1      20.180   0.992  51.151  1.00  0.00     0.015 C 
HETATM   15  C3  UNL     1      20.408   2.184  50.566  1.00  0.00     0.076 C 
HETATM   16  C21 UNL     1      21.515   2.943  51.142  1.00  0.00     0.008 C 
HETATM   17  C18 UNL     1      22.361   4.122  51.122  1.00  0.00    -0.023 A 
HETATM   18  C17 UNL     1      22.718   3.826  49.837  1.00  0.00     0.015 A 
HETATM   19  C19 UNL     1      22.542   4.872  52.234  1.00  0.00     0.015 A 
HETATM   20  C16 UNL     1      23.725   4.519  49.222  1.00  0.00     0.037 A 
HETATM   21  C15 UNL     1      23.913   5.267  50.333  1.00  0.00     0.069 A 
HETATM   22  O2  UNL     1      24.919   6.218  50.323  1.00  0.00    -0.346 OA
HETATM   23  C20 UNL     1      23.550   5.555  51.609  1.00  0.00     0.037 A 
HETATM   24  C14 UNL     1      25.981   6.132  49.360  1.00  0.00     0.227 C 
HETATM   25  C13 UNL     1      26.611   4.795  49.487  1.00  0.00     0.039 C 
HETATM   26 CL1  UNL     1      27.931   5.058  48.330  1.00  0.00    -0.086 Cl
BRANCH  15  27
HETATM   27  O1  UNL     1      19.939   3.017  49.537  1.00  0.00    -0.351 OA
BRANCH  27  28
HETATM   28  C2  UNL     1      18.858   3.855  49.850  1.00  0.00     0.171 C 
HETATM   29  C1  UNL     1      19.130   5.320  49.590  1.00  0.00     0.034 C 
ENDBRANCH  27  28
ENDBRANCH  15  27
ENDBRANCH   4   5
ENDBRANCH   1   4
TORSDOF 4
ENDMDL
MODEL 3
REMARK VINA RESULT:      -8.1      2.726      5.272
REMARK  4 active torsions:
REMARK  status: ('A' for Active; 'I' for Inactive)
REMARK    1  A    between atoms: C2_2  and  O1_3 
REMARK    2  A    between atoms: O1_3  and  C3_4 
REMARK    3  A    between atoms: N2_11  and  C9_12 
REMARK    4  A    between atoms: C9_12  and  C10_13 
ROOT
HETATM    1  C10 UNL     1      27.479   2.111  52.777  1.00  0.00     0.112 C 
HETATM    2  C11 UNL     1      28.461   2.014  53.833  1.00  0.00     0.089 C 
HETATM    3  N3  UNL     1      29.226   1.932  54.683  1.00  0.00    -0.192 NA
ENDROOT
BRANCH   1   4
HETATM    4  C9  UNL     1      26.224   1.785  52.784  1.00  0.00     0.130 C 
BRANCH   4   5
HETATM    5  N2  UNL     1      24.920   1.494  52.842  1.00  0.00    -0.243 NA
HETATM    6  C8  UNL     1      23.887   1.378  52.216  1.00  0.00     0.128 C 
HETATM    7  N1  UNL     1      24.432   1.721  50.976  1.00  0.00    -0.350 N 
HETATM    8  C12 UNL     1      22.870   0.964  53.229  1.00  0.00     0.072 C 
HETATM    9  C7  UNL     1      24.789   3.099  50.758  1.00  0.00     0.097 C 
HETATM   10  H10 UNL     1      24.564   0.975  50.256  1.00  0.00     0.166 HD
HETATM   11  C6  UNL     1      24.854   4.209  50.069  1.00  0.00    -0.038 C 
HETATM   12  C5  UNL     1      25.080   5.561  49.573  1.00  0.00     0.070 C 
HETATM   13  C22 UNL     1      24.155   3.611  48.949  1.00  0.00     0.024 C 
HETATM   14  C4  UNL     1      24.108   6.007  48.529  1.00  0.00     0.015 C 
HETATM   15  C3  UNL     1      22.885   5.490  48.754  1.00  0.00     0.076 C 
HETATM   16  C21 UNL     1      22.870   4.053  49.016  1.00  0.00     0.008 C 
HETATM   17  C18 UNL     1      22.121   2.855  49.350  1.00  0.00    -0.023 A 
HETATM   18  C17 UNL     1      21.681   3.464  50.490  1.00  0.00     0.015 A 
HETATM   19  C19 UNL     1      22.224   1.735  48.596  1.00  0.00     0.015 A 
HETATM   20  C16 UNL     1      21.001   2.750  51.438  1.00  0.00     0.037 A 
HETATM   21  C15 UNL     1      21.106   1.626  50.691  1.00  0.00     0.069 A 
HETATM   22  O2  UNL     1      20.577   0.451  51.195  1.00  0.00    -0.346 OA
HETATM   23  C20 UNL     1      21.546   1.030  49.554  1.00  0.00     0.037 A 
HETATM   24  C14 UNL     1      20.315   0.323  52.601  1.00  0.00     0.227 C 
HETATM   25  C13 UNL     1      21.572   0.615  53.333  1.00  0.00     0.039 C 
HETATM   26 CL1  UNL     1      20.980   0.226  54.960  1.00  0.00    -0.086 Cl
BRANCH  15  27
HETATM   27  O1  UNL     1      21.530   5.852  48.834  1.00  0.00    -0.351 OA
BRANCH  27  28
HETATM   28  C2  UNL     1      21.250   7.124  49.355  1.00  0.00     0.171 C 
HETATM   29  C1  UNL     1      21.538   7.252  50.834  1.00  0.00     0.034 C 
ENDBRANCH  27  28
ENDBRANCH  15  27
ENDBRANCH   4   5
ENDBRANCH   1   4
TORSDOF 4
ENDMDL
MODEL 4
REMARK VINA RESULT:      -7.9      3.180      4.880
REMARK  4 active torsions:
REMARK  status: ('A' for Active; 'I' for Inactive)
REMARK    1  A    between atoms: C2_2  and  O1_3 
REMARK    2  A    between atoms: O1_3  and  C3_4 
REMARK    3  A    between atoms: N2_11  and  C9_12 
REMARK    4  A    between atoms: C9_12  and  C10_13 
ROOT
HETATM    1  C10 UNL     1      25.995   5.725  49.125  1.00  0.00     0.112 C 
HETATM    2  C11 UNL     1      27.301   5.181  48.825  1.00  0.00     0.089 C 
HETATM    3  N3  UNL     1      28.327   4.733  48.583  1.00  0.00    -0.192 NA
ENDROOT
BRANCH   1   4
HETATM    4  C9  UNL     1      24.823   5.189  48.976  1.00  0.00     0.130 C 
BRANCH   4   5
HETATM    5  N2  UNL     1      23.624   4.641  48.755  1.00  0.00    -0.243 NA
HETATM    6  C8  UNL     1      22.641   4.137  49.256  1.00  0.00     0.128 C 
HETATM    7  N1  UNL     1      23.092   4.227  50.576  1.00  0.00    -0.350 N 
HETATM    8  C12 UNL     1      21.738   3.829  48.106  1.00  0.00     0.072 C 
HETATM    9  C7  UNL     1      24.153   3.344  50.985  1.00  0.00     0.097 C 
HETATM   10  H10 UNL     1      22.651   4.927  51.216  1.00  0.00     0.166 HD
HETATM   11  C6  UNL     1      24.754   2.515  51.799  1.00  0.00    -0.038 C 
HETATM   12  C5  UNL     1      25.654   1.582  52.467  1.00  0.00     0.070 C 
HETATM   13  C22 UNL     1      23.681   2.612  52.768  1.00  0.00     0.024 C 
HETATM   14  C4  UNL     1      24.988   0.678  53.452  1.00  0.00     0.015 C 
HETATM   15  C3  UNL     1      23.744   0.355  53.048  1.00  0.00     0.076 C 
HETATM   16  C21 UNL     1      22.927   1.488  52.623  1.00  0.00     0.008 C 
HETATM   17  C18 UNL     1      21.678   1.991  52.081  1.00  0.00    -0.023 A 
HETATM   18  C17 UNL     1      21.855   1.203  50.980  1.00  0.00     0.015 A 
HETATM   19  C19 UNL     1      20.990   2.973  52.709  1.00  0.00     0.015 A 
HETATM   20  C16 UNL     1      21.035   1.339  49.894  1.00  0.00     0.037 A 
HETATM   21  C15 UNL     1      20.347   2.326  50.513  1.00  0.00     0.069 A 
HETATM   22  O2  UNL     1      19.311   2.935  49.828  1.00  0.00    -0.346 OA
HETATM   23  C20 UNL     1      20.178   3.103  51.613  1.00  0.00     0.037 A 
HETATM   24  C14 UNL     1      19.236   2.836  48.398  1.00  0.00     0.227 C 
HETATM   25  C13 UNL     1      20.516   3.330  47.834  1.00  0.00     0.039 C 
HETATM   26 CL1  UNL     1      20.059   3.236  46.122  1.00  0.00    -0.086 Cl
BRANCH  15  27
HETATM   27  O1  UNL     1      22.891  -0.748  52.875  1.00  0.00    -0.351 OA
BRANCH  27  28
HETATM   28  C2  UNL     1      22.292  -1.267  54.032  1.00  0.00     0.171 C 
HETATM   29  C1  UNL     1      20.789  -1.109  54.063  1.00  0.00     0.034 C 
ENDBRANCH  27  28
ENDBRANCH  15  27
ENDBRANCH   4   5
ENDBRANCH   1   4
TORSDOF 4
ENDMDL
MODEL 5
REMARK VINA RESULT:      -7.8      3.053      5.448
REMARK  4 active torsions:
REMARK  status: ('A' for Active; 'I' for Inactive)
REMARK    1  A    between atoms: C2_2  and  O1_3 
REMARK    2  A    between atoms: O1_3  and  C3_4 
REMARK    3  A    between atoms: N2_11  and  C9_12 
REMARK    4  A    between atoms: C9_12  and  C10_13 
ROOT
HETATM    1  C10 UNL     1      20.011  -1.665  54.025  1.00  0.00     0.112 C 
HETATM    2  C11 UNL     1      18.749  -1.265  53.444  1.00  0.00     0.089 C 
HETATM    3  N3  UNL     1      17.757  -0.934  52.974  1.00  0.00    -0.192 NA
ENDROOT
BRANCH   1   4
HETATM    4  C9  UNL     1      21.208  -1.233  53.776  1.00  0.00     0.130 C 
BRANCH   4   5
HETATM    5  N2  UNL     1      22.466  -0.847  53.540  1.00  0.00    -0.243 NA
HETATM    6  C8  UNL     1      23.215   0.092  53.366  1.00  0.00     0.128 C 
HETATM    7  N1  UNL     1      22.231   1.079  53.475  1.00  0.00    -0.350 N 
HETATM    8  C12 UNL     1      24.565  -0.521  53.184  1.00  0.00     0.072 C 
HETATM    9  C7  UNL     1      21.290   1.211  52.393  1.00  0.00     0.097 C 
HETATM   10  H10 UNL     1      22.209   1.682  54.329  1.00  0.00     0.166 HD
HETATM   11  C6  UNL     1      20.569   1.875  51.527  1.00  0.00    -0.038 C 
HETATM   12  C5  UNL     1      19.667   2.312  50.468  1.00  0.00     0.070 C 
HETATM   13  C22 UNL     1      21.079   3.145  52.004  1.00  0.00     0.024 C 
HETATM   14  C4  UNL     1      20.004   3.643  49.879  1.00  0.00     0.015 C 
HETATM   15  C3  UNL     1      21.337   3.836  49.851  1.00  0.00     0.076 C 
HETATM   16  C21 UNL     1      22.022   3.543  51.107  1.00  0.00     0.008 C 
HETATM   17  C18 UNL     1      23.261   3.445  51.857  1.00  0.00    -0.023 A 
HETATM   18  C17 UNL     1      23.730   2.550  50.939  1.00  0.00     0.015 A 
HETATM   19  C19 UNL     1      23.408   4.074  53.046  1.00  0.00     0.015 A 
HETATM   20  C16 UNL     1      24.895   1.870  51.168  1.00  0.00     0.037 A 
HETATM   21  C15 UNL     1      25.044   2.493  52.360  1.00  0.00     0.069 A 
HETATM   22  O2  UNL     1      26.136   2.160  53.143  1.00  0.00    -0.346 OA
HETATM   23  C20 UNL     1      24.571   3.385  53.266  1.00  0.00     0.037 A 
HETATM   24  C14 UNL     1      26.837   0.927  52.915  1.00  0.00     0.227 C 
HETATM   25  C13 UNL     1      25.856  -0.182  52.996  1.00  0.00     0.039 C 
HETATM   26 CL1  UNL     1      27.014  -1.518  52.843  1.00  0.00    -0.086 Cl
BRANCH  15  27
HETATM   27  O1  UNL     1      22.376   4.242  48.997  1.00  0.00    -0.351 OA
BRANCH  27  28
HETATM   28  C2  UNL     1      22.305   3.803  47.667  1.00  0.00     0.171 C 
HETATM   29  C1  UNL     1      22.465   2.308  47.511  1.00  0.00     0.034 C 
ENDBRANCH  27  28
ENDBRANCH  15  27
ENDBRANCH   4   5
ENDBRANCH   1   4
TORSDOF 4
ENDMDL
MODEL 6
REMARK VINA RESULT:      -7.5      6.355     10.557
REMARK  4 active torsions:
REMARK  status: ('A' for Active; 'I' for Inactive)
REMARK    1  A    between atoms: C2_2  and  O1_3 
REMARK    2  A    between atoms: O1_3  and  C3_4 
REMARK    3  A    between atoms: N2_11  and  C9_12 
REMARK    4  A    between atoms: C9_12  and  C10_13 
ROOT
HETATM    1  C10 UNL     1      26.295   4.899  49.014  1.00  0.00     0.112 C 
HETATM    2  C11 UNL     1      25.519   5.820  49.813  1.00  0.00     0.089 C 
HETATM    3  N3  UNL     1      24.919   6.560  50.450  1.00  0.00    -0.192 NA
ENDROOT
BRANCH   1   4
HETATM    4  C9  UNL     1      27.547   4.951  48.678  1.00  0.00     0.130 C 
BRANCH   4   5
HETATM    5  N2  UNL     1      28.820   4.978  48.271  1.00  0.00    -0.243 NA
HETATM    6  C8  UNL     1      29.842   5.630  48.206  1.00  0.00     0.128 C 
HETATM    7  N1  UNL     1      29.326   6.766  48.836  1.00  0.00    -0.350 N 
HETATM    8  C12 UNL     1      30.828   4.733  47.532  1.00  0.00     0.072 C 
HETATM    9  C7  UNL     1      28.383   7.570  48.102  1.00  0.00     0.097 C 
HETATM   10  H10 UNL     1      29.635   6.992  49.809  1.00  0.00     0.166 HD
HETATM   11  C6  UNL     1      27.870   8.693  47.672  1.00  0.00    -0.038 C 
HETATM   12  C5  UNL     1      27.082   9.745  47.040  1.00  0.00     0.070 C 
HETATM   13  C22 UNL     1      28.876   9.474  48.365  1.00  0.00     0.024 C 
HETATM   14  C4  UNL     1      27.826  11.019  46.807  1.00  0.00     0.015 C 
HETATM   15  C3  UNL     1      29.119  10.779  46.516  1.00  0.00     0.076 C 
HETATM   16  C21 UNL     1      29.786   9.851  47.426  1.00  0.00     0.008 C 
HETATM   17  C18 UNL     1      30.974   9.103  47.792  1.00  0.00    -0.023 A 
HETATM   18  C17 UNL     1      30.958   8.503  46.565  1.00  0.00     0.015 A 
HETATM   19  C19 UNL     1      31.489   9.178  49.042  1.00  0.00     0.015 A 
HETATM   20  C16 UNL     1      31.797   7.457  46.296  1.00  0.00     0.037 A 
HETATM   21  C15 UNL     1      32.311   7.524  47.545  1.00  0.00     0.069 A 
HETATM   22  O2  UNL     1      33.280   6.604  47.908  1.00  0.00    -0.346 OA
HETATM   23  C20 UNL     1      32.321   8.127  48.761  1.00  0.00     0.037 A 
HETATM   24  C14 UNL     1      33.430   5.385  47.164  1.00  0.00     0.227 C 
HETATM   25  C13 UNL     1      32.119   4.692  47.147  1.00  0.00     0.039 C 
HETATM   26 CL1  UNL     1      32.659   3.211  46.332  1.00  0.00    -0.086 Cl
BRANCH  15  27
HETATM   27  O1  UNL     1      30.126  11.118  45.597  1.00  0.00    -0.351 OA
BRANCH  27  28
HETATM   28  C2  UNL     1      30.989  12.160  45.967  1.00  0.00     0.171 C 
HETATM   29  C1  UNL     1      32.449  11.858  45.715  1.00  0.00     0.034 C 
ENDBRANCH  27  28
ENDBRANCH  15  27
ENDBRANCH   4   5
ENDBRANCH   1   4
TORSDOF 4
ENDMDL
MODEL 7
REMARK VINA RESULT:      -7.5      2.479      3.491
REMARK  4 active torsions:
REMARK  status: ('A' for Active; 'I' for Inactive)
REMARK    1  A    between atoms: C2_2  and  O1_3 
REMARK    2  A    between atoms: O1_3  and  C3_4 
REMARK    3  A    between atoms: N2_11  and  C9_12 
REMARK    4  A    between atoms: C9_12  and  C10_13 
ROOT
HETATM    1  C10 UNL     1      26.392   2.035  52.458  1.00  0.00     0.112 C 
HETATM    2  C11 UNL     1      26.571   1.051  53.502  1.00  0.00     0.089 C 
HETATM    3  N3  UNL     1      26.694   0.265  54.327  1.00  0.00    -0.192 NA
ENDROOT
BRANCH   1   4
HETATM    4  C9  UNL     1      25.384   2.220  51.662  1.00  0.00     0.130 C 
BRANCH   4   5
HETATM    5  N2  UNL     1      24.387   2.394  50.789  1.00  0.00    -0.243 NA
HETATM    6  C8  UNL     1      23.191   2.541  50.645  1.00  0.00     0.128 C 
HETATM    7  N1  UNL     1      22.874   2.471  52.004  1.00  0.00    -0.350 N 
HETATM    8  C12 UNL     1      22.997   2.686  49.171  1.00  0.00     0.072 C 
HETATM    9  C7  UNL     1      22.966   1.187  52.649  1.00  0.00     0.097 C 
HETATM   10  H10 UNL     1      22.586   3.343  52.504  1.00  0.00     0.166 HD
HETATM   11  C6  UNL     1      22.556   0.228  53.439  1.00  0.00    -0.038 C 
HETATM   12  C5  UNL     1      22.378  -0.990  54.220  1.00  0.00     0.070 C 
HETATM   13  C22 UNL     1      21.357   0.963  53.788  1.00  0.00     0.024 C 
HETATM   14  C4  UNL     1      20.957  -1.313  54.546  1.00  0.00     0.015 C 
HETATM   15  C3  UNL     1      20.134  -0.941  53.547  1.00  0.00     0.076 C 
HETATM   16  C21 UNL     1      20.345   0.419  53.059  1.00  0.00     0.008 C 
HETATM   17  C18 UNL     1      19.999   1.476  52.126  1.00  0.00    -0.023 A 
HETATM   18  C17 UNL     1      20.296   0.638  51.089  1.00  0.00     0.015 A 
HETATM   19  C19 UNL     1      19.685   2.718  52.562  1.00  0.00     0.015 A 
HETATM   20  C16 UNL     1      20.349   1.115  49.808  1.00  0.00     0.037 A 
HETATM   21  C15 UNL     1      20.041   2.360  50.239  1.00  0.00     0.069 A 
HETATM   22  O2  UNL     1      19.971   3.380  49.307  1.00  0.00    -0.346 OA
HETATM   23  C20 UNL     1      19.744   3.184  51.276  1.00  0.00     0.037 A 
HETATM   24  C14 UNL     1      20.604   3.231  48.027  1.00  0.00     0.227 C 
HETATM   25  C13 UNL     1      22.034   2.910  48.254  1.00  0.00     0.039 C 
HETATM   26 CL1  UNL     1      22.546   2.951  46.556  1.00  0.00    -0.086 Cl
BRANCH  15  27
HETATM   27  O1  UNL     1      19.078  -1.415  52.752  1.00  0.00    -0.351 OA
BRANCH  27  28
HETATM   28  C2  UNL     1      17.790  -1.335  53.304  1.00  0.00     0.171 C 
HETATM   29  C1  UNL     1      16.810  -0.562  52.451  1.00  0.00     0.034 C 
ENDBRANCH  27  28
ENDBRANCH  15  27
ENDBRANCH   4   5
ENDBRANCH   1   4
TORSDOF 4
ENDMDL
MODEL 8
REMARK VINA RESULT:      -7.4      3.680      6.297
REMARK  4 active torsions:
REMARK  status: ('A' for Active; 'I' for Inactive)
REMARK    1  A    between atoms: C2_2  and  O1_3 
REMARK    2  A    between atoms: O1_3  and  C3_4 
REMARK    3  A    between atoms: N2_11  and  C9_12 
REMARK    4  A    between atoms: C9_12  and  C10_13 
ROOT
HETATM    1  C10 UNL     1      20.715  -1.644  54.271  1.00  0.00     0.112 C 
HETATM    2  C11 UNL     1      21.983  -1.453  54.937  1.00  0.00     0.089 C 
HETATM    3  N3  UNL     1      22.992  -1.285  55.455  1.00  0.00    -0.192 NA
ENDROOT
BRANCH   1   4
HETATM    4  C9  UNL     1      20.110  -0.882  53.413  1.00  0.00     0.130 C 
BRANCH   4   5
HETATM    5  N2  UNL     1      19.500  -0.043  52.570  1.00  0.00    -0.243 NA
HETATM    6  C8  UNL     1      19.607   0.626  51.562  1.00  0.00     0.128 C 
HETATM    7  N1  UNL     1      20.939   0.289  51.309  1.00  0.00    -0.350 N 
HETATM    8  C12 UNL     1      18.268   1.261  51.379  1.00  0.00     0.072 C 
HETATM    9  C7  UNL     1      21.948   0.844  52.174  1.00  0.00     0.097 C 
HETATM   10  H10 UNL     1      21.159  -0.350  50.511  1.00  0.00     0.166 HD
HETATM   11  C6  UNL     1      23.095   1.414  52.440  1.00  0.00    -0.038 C 
HETATM   12  C5  UNL     1      24.269   2.027  53.051  1.00  0.00     0.070 C 
HETATM   13  C22 UNL     1      23.446   1.472  51.036  1.00  0.00     0.024 C 
HETATM   14  C4  UNL     1      25.020   2.953  52.151  1.00  0.00     0.015 C 
HETATM   15  C3  UNL     1      24.185   3.606  51.321  1.00  0.00     0.076 C 
HETATM   16  C21 UNL     1      23.219   2.752  50.634  1.00  0.00     0.008 C 
HETATM   17  C18 UNL     1      22.090   2.624  49.731  1.00  0.00    -0.023 A 
HETATM   18  C17 UNL     1      21.370   3.460  50.535  1.00  0.00     0.015 A 
HETATM   19  C19 UNL     1      22.130   1.773  48.679  1.00  0.00     0.015 A 
HETATM   20  C16 UNL     1      20.030   3.641  50.322  1.00  0.00     0.037 A 
HETATM   21  C15 UNL     1      20.064   2.787  49.273  1.00  0.00     0.069 A 
HETATM   22  O2  UNL     1      18.882   2.520  48.605  1.00  0.00    -0.346 OA
HETATM   23  C20 UNL     1      20.789   1.960  48.478  1.00  0.00     0.037 A 
HETATM   24  C14 UNL     1      17.620   2.787  49.238  1.00  0.00     0.227 C 
HETATM   25  C13 UNL     1      17.592   2.064  50.533  1.00  0.00     0.039 C 
HETATM   26 CL1  UNL     1      15.915   2.448  50.968  1.00  0.00    -0.086 Cl
BRANCH  15  27
HETATM   27  O1  UNL     1      23.884   4.892  50.844  1.00  0.00    -0.351 OA
BRANCH  27  28
HETATM   28  C2  UNL     1      24.958   5.644  50.344  1.00  0.00     0.171 C 
HETATM   29  C1  UNL     1      25.641   5.012  49.153  1.00  0.00     0.034 C 
ENDBRANCH  27  28
ENDBRANCH  15  27
ENDBRANCH   4   5
ENDBRANCH   1   4
TORSDOF 4
ENDMDL
MODEL 9
REMARK VINA RESULT:      -7.3      3.344      5.981
REMARK  4 active torsions:
REMARK  status: ('A' for Active; 'I' for Inactive)
REMARK    1  A    between atoms: C2_2  and  O1_3 
REMARK    2  A    between atoms: O1_3  and  C3_4 
REMARK    3  A    between atoms: N2_11  and  C9_12 
REMARK    4  A    between atoms: C9_12  and  C10_13 
ROOT
HETATM    1  C10 UNL     1      18.056   1.559  51.095  1.00  0.00     0.112 C 
HETATM    2  C11 UNL     1      18.164   0.297  51.792  1.00  0.00     0.089 C 
HETATM    3  N3  UNL     1      18.267  -0.699  52.349  1.00  0.00    -0.192 NA
ENDROOT
BRANCH   1   4
HETATM    4  C9  UNL     1      18.913   2.530  51.008  1.00  0.00     0.130 C 
BRANCH   4   5
HETATM    5  N2  UNL     1      19.747   3.567  50.888  1.00  0.00    -0.243 NA
HETATM    6  C8  UNL     1      20.887   3.922  50.669  1.00  0.00     0.128 C 
HETATM    7  N1  UNL     1      21.407   2.635  50.506  1.00  0.00    -0.350 N 
HETATM    8  C12 UNL     1      20.845   5.413  50.733  1.00  0.00     0.072 C 
HETATM    9  C7  UNL     1      21.544   1.813  51.681  1.00  0.00     0.097 C 
HETATM   10  H10 UNL     1      21.674   2.312  49.548  1.00  0.00     0.166 HD
HETATM   11  C6  UNL     1      22.163   0.976  52.473  1.00  0.00    -0.038 C 
HETATM   12  C5  UNL     1      22.579   0.074  53.541  1.00  0.00     0.070 C 
HETATM   13  C22 UNL     1      23.318   0.929  51.599  1.00  0.00     0.024 C 
HETATM   14  C4  UNL     1      24.059  -0.060  53.695  1.00  0.00     0.015 C 
HETATM   15  C3  UNL     1      24.682   1.100  53.413  1.00  0.00     0.076 C 
HETATM   16  C21 UNL     1      24.262   1.730  52.164  1.00  0.00     0.008 C 
HETATM   17  C18 UNL     1      24.355   2.843  51.237  1.00  0.00    -0.023 A 
HETATM   18  C17 UNL     1      23.996   3.693  52.243  1.00  0.00     0.015 A 
HETATM   19  C19 UNL     1      24.600   2.637  49.922  1.00  0.00     0.015 A 
HETATM   20  C16 UNL     1      23.706   5.002  51.972  1.00  0.00     0.037 A 
HETATM   21  C15 UNL     1      23.944   4.801  50.655  1.00  0.00     0.069 A 
HETATM   22  O2  UNL     1      23.769   5.863  49.785  1.00  0.00    -0.346 OA
HETATM   23  C20 UNL     1      24.304   3.948  49.662  1.00  0.00     0.037 A 
HETATM   24  C14 UNL     1      22.973   6.992  50.177  1.00  0.00     0.227 C 
HETATM   25  C13 UNL     1      21.633   6.495  50.575  1.00  0.00     0.039 C 
HETATM   26 CL1  UNL     1      20.874   8.078  50.832  1.00  0.00    -0.086 Cl
BRANCH  15  27
HETATM   27  O1  UNL     1      25.652   1.983  53.916  1.00  0.00    -0.351 OA
BRANCH  27  28
HETATM   28  C2  UNL     1      26.984   1.545  53.870  1.00  0.00     0.171 C 
HETATM   29  C1  UNL     1      27.770   2.108  52.707  1.00  0.00     0.034 C 
ENDBRANCH  27  28
ENDBRANCH  15  27
ENDBRANCH   4   5
ENDBRANCH   1   4
TORSDOF 4
ENDMDL
