MODEL 1
REMARK VINA RESULT:      -7.7      0.000      0.000
REMARK  4 active torsions:
REMARK  status: ('A' for Active; 'I' for Inactive)
REMARK    1  A    between atoms: C3_3  and  C4_4 
REMARK    2  A    between atoms: C13_13  and  C14_14 
REMARK    3  A    between atoms: C13_13  and  C15_16 
REMARK    4  A    between atoms: C14_14  and  N1_15 
ROOT
HETATM    1  C4  UNL     1      23.494   1.423  52.144  1.00  0.00    -0.022 C 
HETATM    2  C5  UNL     1      22.650   0.796  52.939  1.00  0.00    -0.037 A 
HETATM    3  C6  UNL     1      21.215   0.991  53.260  1.00  0.00     0.067 A 
HETATM    4  C7  UNL     1      20.778  -0.041  54.236  1.00  0.00    -0.022 A 
HETATM    5  C8  UNL     1      21.381  -1.064  54.803  1.00  0.00    -0.003 A 
HETATM    6  C9  UNL     1      22.769  -1.229  54.404  1.00  0.00     0.007 A 
HETATM    7  C10 UNL     1      23.267  -0.357  53.557  1.00  0.00    -0.046 A 
HETATM    8  C11 UNL     1      24.654  -0.501  53.001  1.00  0.00     0.078 C 
HETATM    9  C12 UNL     1      24.835   0.835  52.394  1.00  0.00    -0.038 C 
HETATM   10  C13 UNL     1      26.053   1.351  52.224  1.00  0.00    -0.033 C 
ENDROOT
BRANCH   1  11
HETATM   11  C3  UNL     1      23.386   2.543  51.250  1.00  0.00     0.008 C 
HETATM   12  C2  UNL     1      23.358   3.849  51.342  1.00  0.00    -0.030 C 
HETATM   13  C1  UNL     1      23.426   4.832  52.426  1.00  0.00     0.036 C 
ENDBRANCH   1  11
BRANCH  10  14
HETATM   14  C14 UNL     1      26.883   2.498  51.812  1.00  0.00     0.302 C 
BRANCH  14  15
HETATM   15  N1  UNL     1      27.910   2.816  52.799  1.00  0.00     0.082 N 
HETATM   16  H15 UNL     1      28.057   3.857  52.723  1.00  0.00     0.313 HD
HETATM   17  H16 UNL     1      27.599   2.551  53.768  1.00  0.00     0.313 HD
ENDBRANCH  14  15
ENDBRANCH  10  14
BRANCH  10  18
HETATM   18  C15 UNL     1      27.185   0.488  52.493  1.00  0.00     0.027 A 
HETATM   19  O1  UNL     1      27.945  -0.149  53.255  1.00  0.00     0.000 OA
HETATM   20  O2  UNL     1      27.821  -0.091  53.555  1.00  0.00     0.000 OA
HETATM   21  S1  UNL     1      29.200  -1.087  53.483  1.00  0.00    -0.102 SA
HETATM   22  C16 UNL     1      28.934  -2.829  53.304  1.00  0.00     0.102 C 
ENDBRANCH  10  18
TORSDOF 4
ENDMDL
MODEL 2
REMARK VINA RESULT:      -7.7      1.800      1.918
REMARK  4 active torsions:
REMARK  status: ('A' for Active; 'I' for Inactive)
REMARK    1  A    between atoms: C3_3  and  C4_4 
REMARK    2  A    between atoms: C13_13  and  C14_14 
REMARK    3  A    between atoms: C13_13  and  C15_16 
REMARK    4  A    between atoms: C14_14  and  N1_15 
ROOT
HETATM    1  C4  UNL     1      22.702   1.110  51.524  1.00  0.00    -0.022 C 
HETATM    2  C5  UNL     1      22.099   0.380  52.442  1.00  0.00    -0.037 A 
HETATM    3  C6  UNL     1      20.692  -0.036  52.652  1.00  0.00     0.067 A 
HETATM    4  C7  UNL     1      20.598  -0.879  53.873  1.00  0.00    -0.022 A 
HETATM    5  C8  UNL     1      21.488  -1.334  54.729  1.00  0.00    -0.003 A 
HETATM    6  C9  UNL     1      22.853  -0.932  54.435  1.00  0.00     0.007 A 
HETATM    7  C10 UNL     1      23.050  -0.166  53.386  1.00  0.00    -0.046 A 
HETATM    8  C11 UNL     1      24.430   0.214  52.935  1.00  0.00     0.078 C 
HETATM    9  C12 UNL     1      24.106   1.289  51.972  1.00  0.00    -0.038 C 
HETATM   10  C13 UNL     1      24.989   2.248  51.694  1.00  0.00    -0.033 C 
ENDROOT
BRANCH   1  11
HETATM   11  C3  UNL     1      22.261   1.796  50.340  1.00  0.00     0.008 C 
HETATM   12  C2  UNL     1      21.695   2.940  50.045  1.00  0.00    -0.030 C 
HETATM   13  C1  UNL     1      21.226   4.109  50.793  1.00  0.00     0.036 C 
ENDBRANCH   1  11
BRANCH  10  14
HETATM   14  C14 UNL     1      25.292   3.509  50.991  1.00  0.00     0.302 C 
BRANCH  14  15
HETATM   15  N1  UNL     1      26.705   3.615  50.638  1.00  0.00     0.082 N 
HETATM   16  H15 UNL     1      27.108   2.657  50.810  1.00  0.00     0.313 HD
HETATM   17  H16 UNL     1      26.824   3.896  49.631  1.00  0.00     0.313 HD
ENDBRANCH  14  15
ENDBRANCH  10  14
BRANCH  10  18
HETATM   18  C15 UNL     1      26.326   2.101  52.234  1.00  0.00     0.027 A 
HETATM   19  O1  UNL     1      27.182   2.220  53.138  1.00  0.00     0.000 OA
HETATM   20  O2  UNL     1      27.014   2.356  53.387  1.00  0.00     0.000 OA
HETATM   21  S1  UNL     1      28.664   2.040  53.665  1.00  0.00    -0.102 SA
HETATM   22  C16 UNL     1      29.085   0.451  54.328  1.00  0.00     0.102 C 
ENDBRANCH  10  18
TORSDOF 4
ENDMDL
MODEL 3
REMARK VINA RESULT:      -7.6      3.242      4.929
REMARK  4 active torsions:
REMARK  status: ('A' for Active; 'I' for Inactive)
REMARK    1  A    between atoms: C3_3  and  C4_4 
REMARK    2  A    between atoms: C13_13  and  C14_14 
REMARK    3  A    between atoms: C13_13  and  C15_16 
REMARK    4  A    between atoms: C14_14  and  N1_15 
ROOT
HETATM    1  C4  UNL     1      24.269   0.479  53.455  1.00  0.00    -0.022 C 
HETATM    2  C5  UNL     1      23.082  -0.067  53.639  1.00  0.00    -0.037 A 
HETATM    3  C6  UNL     1      22.611  -1.249  54.400  1.00  0.00     0.067 A 
HETATM    4  C7  UNL     1      21.139  -1.383  54.253  1.00  0.00    -0.022 A 
HETATM    5  C8  UNL     1      20.221  -0.663  53.642  1.00  0.00    -0.003 A 
HETATM    6  C9  UNL     1      20.745   0.509  52.960  1.00  0.00     0.007 A 
HETATM    7  C10 UNL     1      22.041   0.714  53.009  1.00  0.00    -0.046 A 
HETATM    8  C11 UNL     1      22.666   1.950  52.430  1.00  0.00     0.078 C 
HETATM    9  C12 UNL     1      24.092   1.558  52.450  1.00  0.00    -0.038 C 
HETATM   10  C13 UNL     1      24.964   2.101  51.600  1.00  0.00    -0.033 C 
ENDROOT
BRANCH   1  11
HETATM   11  C3  UNL     1      25.595   0.175  53.917  1.00  0.00     0.008 C 
HETATM   12  C2  UNL     1      26.569  -0.635  53.582  1.00  0.00    -0.030 C 
HETATM   13  C1  UNL     1      26.790  -1.649  52.548  1.00  0.00     0.036 C 
ENDBRANCH   1  11
BRANCH  10  14
HETATM   14  C14 UNL     1      26.338   2.139  51.064  1.00  0.00     0.302 C 
BRANCH  14  15
HETATM   15  N1  UNL     1      26.773   3.499  50.762  1.00  0.00     0.082 N 
HETATM   16  H15 UNL     1      25.906   4.004  50.441  1.00  0.00     0.313 HD
HETATM   17  H16 UNL     1      27.185   3.963  51.612  1.00  0.00     0.313 HD
ENDBRANCH  14  15
ENDBRANCH  10  14
BRANCH  10  18
HETATM   18  C15 UNL     1      24.500   3.205  50.784  1.00  0.00     0.027 A 
HETATM   19  O1  UNL     1      24.012   3.691  49.740  1.00  0.00     0.000 OA
HETATM   20  O2  UNL     1      23.960   3.428  49.548  1.00  0.00     0.000 OA
HETATM   21  S1  UNL     1      23.529   4.941  48.895  1.00  0.00    -0.102 SA
HETATM   22  C16 UNL     1      21.879   5.512  49.192  1.00  0.00     0.102 C 
ENDBRANCH  10  18
TORSDOF 4
ENDMDL
MODEL 4
REMARK VINA RESULT:      -7.5      4.437      6.834
REMARK  4 active torsions:
REMARK  status: ('A' for Active; 'I' for Inactive)
REMARK    1  A    between atoms: C3_3  and  C4_4 
REMARK    2  A    between atoms: C13_13  and  C14_14 
REMARK    3  A    between atoms: C13_13  and  C15_16 
REMARK    4  A    between atoms: C14_14  and  N1_15 
ROOT
HETATM    1  C4  UNL     1      24.187   0.755  52.527  1.00  0.00    -0.022 C 
HETATM    2  C5  UNL     1      24.654   1.654  51.683  1.00  0.00    -0.037 A 
HETATM    3  C6  UNL     1      26.001   2.223  51.440  1.00  0.00     0.067 A 
HETATM    4  C7  UNL     1      25.933   3.213  50.334  1.00  0.00    -0.022 A 
HETATM    5  C8  UNL     1      24.963   3.623  49.546  1.00  0.00    -0.003 A 
HETATM    6  C9  UNL     1      23.682   2.987  49.802  1.00  0.00     0.007 A 
HETATM    7  C10 UNL     1      23.622   2.107  50.775  1.00  0.00    -0.046 A 
HETATM    8  C11 UNL     1      22.376   1.317  51.050  1.00  0.00     0.078 C 
HETATM    9  C12 UNL     1      22.711   0.748  52.373  1.00  0.00    -0.038 C 
HETATM   10  C13 UNL     1      21.751   0.396  53.229  1.00  0.00    -0.033 C 
ENDROOT
BRANCH   1  11
HETATM   11  C3  UNL     1      24.779  -0.058  53.554  1.00  0.00     0.008 C 
HETATM   12  C2  UNL     1      25.827  -0.833  53.684  1.00  0.00    -0.030 C 
HETATM   13  C1  UNL     1      26.936  -1.260  52.827  1.00  0.00     0.036 C 
ENDBRANCH   1  11
BRANCH  10  14
HETATM   14  C14 UNL     1      21.386  -0.101  54.570  1.00  0.00     0.302 C 
BRANCH  14  15
HETATM   15  N1  UNL     1      20.705  -1.391  54.511  1.00  0.00     0.082 N 
HETATM   16  H15 UNL     1      21.029  -1.915  55.365  1.00  0.00     0.313 HD
HETATM   17  H16 UNL     1      19.661  -1.269  54.519  1.00  0.00     0.313 HD
ENDBRANCH  14  15
ENDBRANCH  10  14
BRANCH  10  18
HETATM   18  C15 UNL     1      20.384   0.430  52.751  1.00  0.00     0.027 A 
HETATM   19  O1  UNL     1      19.426  -0.017  52.083  1.00  0.00     0.000 OA
HETATM   20  O2  UNL     1      19.549  -0.288  51.941  1.00  0.00     0.000 OA
HETATM   21  S1  UNL     1      17.924   0.081  51.589  1.00  0.00    -0.102 SA
HETATM   22  C16 UNL     1      16.688  -0.595  52.662  1.00  0.00     0.102 C 
ENDBRANCH  10  18
TORSDOF 4
ENDMDL
MODEL 5
REMARK VINA RESULT:      -7.3      2.310      4.157
REMARK  4 active torsions:
REMARK  status: ('A' for Active; 'I' for Inactive)
REMARK    1  A    between atoms: C3_3  and  C4_4 
REMARK    2  A    between atoms: C13_13  and  C14_14 
REMARK    3  A    between atoms: C13_13  and  C15_16 
REMARK    4  A    between atoms: C14_14  and  N1_15 
ROOT
HETATM    1  C4  UNL     1      22.149   0.493  52.463  1.00  0.00    -0.022 C 
HETATM    2  C5  UNL     1      21.779   0.871  51.255  1.00  0.00    -0.037 A 
HETATM    3  C6  UNL     1      20.532   0.702  50.471  1.00  0.00     0.067 A 
HETATM    4  C7  UNL     1      20.683   1.357  49.146  1.00  0.00    -0.022 A 
HETATM    5  C8  UNL     1      21.648   2.057  48.587  1.00  0.00    -0.003 A 
HETATM    6  C9  UNL     1      22.819   2.229  49.430  1.00  0.00     0.007 A 
HETATM    7  C10 UNL     1      22.802   1.672  50.619  1.00  0.00    -0.046 A 
HETATM    8  C11 UNL     1      23.915   1.881  51.604  1.00  0.00     0.078 C 
HETATM    9  C12 UNL     1      23.588   0.834  52.596  1.00  0.00    -0.038 C 
HETATM   10  C13 UNL     1      24.535   0.306  53.372  1.00  0.00    -0.033 C 
ENDROOT
BRANCH   1  11
HETATM   11  C3  UNL     1      21.507  -0.225  53.529  1.00  0.00     0.008 C 
HETATM   12  C2  UNL     1      20.309  -0.686  53.795  1.00  0.00    -0.030 C 
HETATM   13  C1  UNL     1      19.009  -0.697  53.121  1.00  0.00     0.036 C 
ENDBRANCH   1  11
BRANCH  10  14
HETATM   14  C14 UNL     1      24.910  -0.690  54.393  1.00  0.00     0.302 C 
BRANCH  14  15
HETATM   15  N1  UNL     1      26.310  -1.090  54.284  1.00  0.00     0.082 N 
HETATM   16  H15 UNL     1      26.355  -1.718  53.439  1.00  0.00     0.313 HD
HETATM   17  H16 UNL     1      26.934  -0.252  54.162  1.00  0.00     0.313 HD
ENDBRANCH  14  15
ENDBRANCH  10  14
BRANCH  10  18
HETATM   18  C15 UNL     1      25.849   0.915  53.328  1.00  0.00     0.027 A 
HETATM   19  O1  UNL     1      26.716   1.724  53.725  1.00  0.00     0.000 OA
HETATM   20  O2  UNL     1      26.567   1.883  53.973  1.00  0.00     0.000 OA
HETATM   21  S1  UNL     1      28.165   2.355  53.620  1.00  0.00    -0.102 SA
HETATM   22  C16 UNL     1      29.468   1.498  54.461  1.00  0.00     0.102 C 
ENDBRANCH  10  18
TORSDOF 4
ENDMDL
MODEL 6
REMARK VINA RESULT:      -7.3      3.827      5.932
REMARK  4 active torsions:
REMARK  status: ('A' for Active; 'I' for Inactive)
REMARK    1  A    between atoms: C3_3  and  C4_4 
REMARK    2  A    between atoms: C13_13  and  C14_14 
REMARK    3  A    between atoms: C13_13  and  C15_16 
REMARK    4  A    between atoms: C14_14  and  N1_15 
ROOT
HETATM    1  C4  UNL     1      23.741   0.852  52.411  1.00  0.00    -0.022 C 
HETATM    2  C5  UNL     1      24.968   0.469  52.708  1.00  0.00    -0.037 A 
HETATM    3  C6  UNL     1      25.536  -0.768  53.296  1.00  0.00     0.067 A 
HETATM    4  C7  UNL     1      27.014  -0.641  53.392  1.00  0.00    -0.022 A 
HETATM    5  C8  UNL     1      27.867   0.294  53.033  1.00  0.00    -0.003 A 
HETATM    6  C9  UNL     1      27.248   1.455  52.415  1.00  0.00     0.007 A 
HETATM    7  C10 UNL     1      25.940   1.458  52.298  1.00  0.00    -0.046 A 
HETATM    8  C11 UNL     1      25.216   2.559  51.579  1.00  0.00     0.078 C 
HETATM    9  C12 UNL     1      23.825   2.274  51.995  1.00  0.00    -0.038 C 
HETATM   10  C13 UNL     1      22.908   3.241  52.024  1.00  0.00    -0.033 C 
ENDROOT
BRANCH   1  11
HETATM   11  C3  UNL     1      22.446   0.238  52.518  1.00  0.00     0.008 C 
HETATM   12  C2  UNL     1      21.771  -0.435  53.417  1.00  0.00    -0.030 C 
HETATM   13  C1  UNL     1      22.009  -0.900  54.786  1.00  0.00     0.036 C 
ENDBRANCH   1  11
BRANCH  10  14
HETATM   14  C14 UNL     1      21.531   3.656  52.355  1.00  0.00     0.302 C 
BRANCH  14  15
HETATM   15  N1  UNL     1      21.004   4.626  51.400  1.00  0.00     0.082 N 
HETATM   16  H15 UNL     1      20.504   5.347  51.983  1.00  0.00     0.313 HD
HETATM   17  H16 UNL     1      21.778   5.067  50.841  1.00  0.00     0.313 HD
ENDBRANCH  14  15
ENDBRANCH  10  14
BRANCH  10  18
HETATM   18  C15 UNL     1      23.278   4.528  51.470  1.00  0.00     0.027 A 
HETATM   19  O1  UNL     1      23.723   5.693  51.561  1.00  0.00     0.000 OA
HETATM   20  O2  UNL     1      23.798   5.724  51.880  1.00  0.00     0.000 OA
HETATM   21  S1  UNL     1      24.100   7.081  50.896  1.00  0.00    -0.102 SA
HETATM   22  C16 UNL     1      25.696   7.191  50.134  1.00  0.00     0.102 C 
ENDBRANCH  10  18
TORSDOF 4
ENDMDL
MODEL 7
REMARK VINA RESULT:      -7.0      5.669      7.333
REMARK  4 active torsions:
REMARK  status: ('A' for Active; 'I' for Inactive)
REMARK    1  A    between atoms: C3_3  and  C4_4 
REMARK    2  A    between atoms: C13_13  and  C14_14 
REMARK    3  A    between atoms: C13_13  and  C15_16 
REMARK    4  A    between atoms: C14_14  and  N1_15 
ROOT
HETATM    1  C4  UNL     1      26.265   6.493  48.507  1.00  0.00    -0.022 C 
HETATM    2  C5  UNL     1      25.677   5.455  49.070  1.00  0.00    -0.037 A 
HETATM    3  C6  UNL     1      24.292   5.193  49.529  1.00  0.00     0.067 A 
HETATM    4  C7  UNL     1      24.202   3.819  50.087  1.00  0.00    -0.022 A 
HETATM    5  C8  UNL     1      25.065   2.831  50.202  1.00  0.00    -0.003 A 
HETATM    6  C9  UNL     1      26.388   3.137  49.685  1.00  0.00     0.007 A 
HETATM    7  C10 UNL     1      26.585   4.336  49.185  1.00  0.00    -0.046 A 
HETATM    8  C11 UNL     1      27.881   4.713  48.529  1.00  0.00     0.078 C 
HETATM    9  C12 UNL     1      27.715   6.180  48.442  1.00  0.00    -0.038 C 
HETATM   10  C13 UNL     1      28.775   6.988  48.396  1.00  0.00    -0.033 C 
ENDROOT
BRANCH   1  11
HETATM   11  C3  UNL     1      25.819   7.794  48.092  1.00  0.00     0.008 C 
HETATM   12  C2  UNL     1      24.953   8.290  47.243  1.00  0.00    -0.030 C 
HETATM   13  C1  UNL     1      23.991   7.748  46.280  1.00  0.00     0.036 C 
ENDBRANCH   1  11
BRANCH  10  14
HETATM   14  C14 UNL     1      29.303   8.365  48.379  1.00  0.00     0.302 C 
BRANCH  14  15
HETATM   15  N1  UNL     1      30.199   8.623  49.503  1.00  0.00     0.082 N 
HETATM   16  H15 UNL     1      30.248   9.673  49.584  1.00  0.00     0.313 HD
HETATM   17  H16 UNL     1      29.828   8.195  50.389  1.00  0.00     0.313 HD
ENDBRANCH  14  15
ENDBRANCH  10  14
BRANCH  10  18
HETATM   18  C15 UNL     1      30.078   6.370  48.259  1.00  0.00     0.027 A 
HETATM   19  O1  UNL     1      31.036   5.685  48.681  1.00  0.00     0.000 OA
HETATM   20  O2  UNL     1      30.942   5.597  48.984  1.00  0.00     0.000 OA
HETATM   21  S1  UNL     1      32.469   5.043  48.472  1.00  0.00    -0.102 SA
HETATM   22  C16 UNL     1      32.528   3.484  47.634  1.00  0.00     0.102 C 
ENDBRANCH  10  18
TORSDOF 4
ENDMDL
MODEL 8
REMARK VINA RESULT:      -6.9      3.764      5.459
REMARK  4 active torsions:
REMARK  status: ('A' for Active; 'I' for Inactive)
REMARK    1  A    between atoms: C3_3  and  C4_4 
REMARK    2  A    between atoms: C13_13  and  C14_14 
REMARK    3  A    between atoms: C13_13  and  C15_16 
REMARK    4  A    between atoms: C14_14  and  N1_15 
ROOT
HETATM    1  C4  UNL     1      24.011   1.692  51.870  1.00  0.00    -0.022 C 
HETATM    2  C5  UNL     1      24.856   0.821  52.387  1.00  0.00    -0.037 A 
HETATM    3  C6  UNL     1      24.688  -0.380  53.240  1.00  0.00     0.067 A 
HETATM    4  C7  UNL     1      26.016  -0.988  53.512  1.00  0.00    -0.022 A 
HETATM    5  C8  UNL     1      27.240  -0.700  53.123  1.00  0.00    -0.003 A 
HETATM    6  C9  UNL     1      27.327   0.456  52.247  1.00  0.00     0.007 A 
HETATM    7  C10 UNL     1      26.211   1.085  51.955  1.00  0.00    -0.046 A 
HETATM    8  C11 UNL     1      26.179   2.222  50.976  1.00  0.00     0.078 C 
HETATM    9  C12 UNL     1      24.828   2.761  51.242  1.00  0.00    -0.038 C 
HETATM   10  C13 UNL     1      24.538   4.037  50.989  1.00  0.00    -0.033 C 
ENDROOT
BRANCH   1  11
HETATM   11  C3  UNL     1      22.582   1.841  51.900  1.00  0.00     0.008 C 
HETATM   12  C2  UNL     1      21.564   1.517  51.142  1.00  0.00    -0.030 C 
HETATM   13  C1  UNL     1      21.377   0.827  49.864  1.00  0.00     0.036 C 
ENDBRANCH   1  11
BRANCH  10  14
HETATM   14  C14 UNL     1      23.561   5.140  51.060  1.00  0.00     0.302 C 
BRANCH  14  15
HETATM   15  N1  UNL     1      24.129   6.340  51.667  1.00  0.00     0.082 N 
HETATM   16  H15 UNL     1      24.804   6.721  50.953  1.00  0.00     0.313 HD
HETATM   17  H16 UNL     1      23.380   7.044  51.888  1.00  0.00     0.313 HD
ENDBRANCH  14  15
ENDBRANCH  10  14
BRANCH  10  18
HETATM   18  C15 UNL     1      25.535   4.821  50.288  1.00  0.00     0.027 A 
HETATM   19  O1  UNL     1      25.978   5.416  49.281  1.00  0.00     0.000 OA
HETATM   20  O2  UNL     1      25.743   5.373  49.055  1.00  0.00     0.000 OA
HETATM   21  S1  UNL     1      27.109   6.266  48.569  1.00  0.00    -0.102 SA
HETATM   22  C16 UNL     1      27.064   8.019  48.819  1.00  0.00     0.102 C 
ENDBRANCH  10  18
TORSDOF 4
ENDMDL
MODEL 9
REMARK VINA RESULT:      -6.8      2.950      5.228
REMARK  4 active torsions:
REMARK  status: ('A' for Active; 'I' for Inactive)
REMARK    1  A    between atoms: C3_3  and  C4_4 
REMARK    2  A    between atoms: C13_13  and  C14_14 
REMARK    3  A    between atoms: C13_13  and  C15_16 
REMARK    4  A    between atoms: C14_14  and  N1_15 
ROOT
HETATM    1  C4  UNL     1      25.504   3.878  49.557  1.00  0.00    -0.022 C 
HETATM    2  C5  UNL     1      24.387   4.498  49.230  1.00  0.00    -0.037 A 
HETATM    3  C6  UNL     1      24.091   5.705  48.421  1.00  0.00     0.067 A 
HETATM    4  C7  UNL     1      22.623   5.933  48.385  1.00  0.00    -0.022 A 
HETATM    5  C8  UNL     1      21.593   5.276  48.874  1.00  0.00    -0.003 A 
HETATM    6  C9  UNL     1      21.951   4.076  49.611  1.00  0.00     0.007 A 
HETATM    7  C10 UNL     1      23.228   3.788  49.723  1.00  0.00    -0.046 A 
HETATM    8  C11 UNL     1      23.696   2.517  50.369  1.00  0.00     0.078 C 
HETATM    9  C12 UNL     1      25.135   2.817  50.528  1.00  0.00    -0.038 C 
HETATM   10  C13 UNL     1      25.858   2.222  51.478  1.00  0.00    -0.033 C 
ENDROOT
BRANCH   1  11
HETATM   11  C3  UNL     1      26.894   4.095  49.265  1.00  0.00     0.008 C 
HETATM   12  C2  UNL     1      27.637   5.060  48.783  1.00  0.00    -0.030 C 
HETATM   13  C1  UNL     1      27.411   6.423  48.296  1.00  0.00     0.036 C 
ENDBRANCH   1  11
BRANCH  10  14
HETATM   14  C14 UNL     1      27.150   2.098  52.179  1.00  0.00     0.302 C 
BRANCH  14  15
HETATM   15  N1  UNL     1      27.057   2.508  53.577  1.00  0.00     0.082 N 
HETATM   16  H15 UNL     1      27.987   2.950  53.801  1.00  0.00     0.313 HD
HETATM   17  H16 UNL     1      26.272   3.193  53.721  1.00  0.00     0.313 HD
ENDBRANCH  14  15
ENDBRANCH  10  14
BRANCH  10  18
HETATM   18  C15 UNL     1      25.227   1.153  52.225  1.00  0.00     0.027 A 
HETATM   19  O1  UNL     1      24.546   0.710  53.176  1.00  0.00     0.000 OA
HETATM   20  O2  UNL     1      24.466   0.980  53.347  1.00  0.00     0.000 OA
HETATM   21  S1  UNL     1      23.887  -0.503  53.952  1.00  0.00    -0.102 SA
HETATM   22  C16 UNL     1      22.305  -1.052  53.374  1.00  0.00     0.102 C 
ENDBRANCH  10  18
TORSDOF 4
ENDMDL
