MODEL 1
REMARK VINA RESULT:      -8.7      0.000      0.000
REMARK  2 active torsions:
REMARK  status: ('A' for Active; 'I' for Inactive)
REMARK    1  A    between atoms: N1_1  and  C1_2 
REMARK    2  A    between atoms: N2_8  and  C6_9 
ROOT
HETATM    1  C6  UNL     1      25.853   1.566  51.940  1.00  0.00     0.238 C 
HETATM    2  N3  UNL     1      24.787   1.717  52.879  1.00  0.00    -0.273 NA
HETATM    3  C7  UNL     1      23.605   2.225  52.698  1.00  0.00     0.111 C 
HETATM    4  C8  UNL     1      23.340   2.136  51.264  1.00  0.00     0.126 C 
HETATM    5  C9  UNL     1      24.573   2.615  50.648  1.00  0.00     0.068 C 
HETATM    6  C10 UNL     1      26.019   2.608  50.949  1.00  0.00    -0.037 C 
HETATM    7  C11 UNL     1      26.442   3.559  50.009  1.00  0.00    -0.015 C 
HETATM    8  C12 UNL     1      25.905   4.682  49.060  1.00  0.00     0.068 C 
HETATM    9  C13 UNL     1      24.580   5.183  49.579  1.00  0.00    -0.031 A 
HETATM   10  C14 UNL     1      23.735   4.140  49.311  1.00  0.00     0.038 A 
HETATM   11  C15 UNL     1      22.952   4.513  50.360  1.00  0.00     0.029 A 
HETATM   12  C16 UNL     1      22.699   5.372  51.383  1.00  0.00     0.031 A 
HETATM   13  C17 UNL     1      23.741   6.327  51.365  1.00  0.00     0.026 A 
HETATM   14  C18 UNL     1      24.788   6.268  50.411  1.00  0.00     0.040 A 
HETATM   15 CL1  UNL     1      26.076   7.439  50.396  1.00  0.00    -0.084 Cl
HETATM   16  N4  UNL     1      22.363   3.160  50.689  1.00  0.00    -0.380 N 
HETATM   17  H18 UNL     1      21.386   3.372  50.398  1.00  0.00     0.160 HD
ENDROOT
BRANCH   1  18
HETATM   18  N2  UNL     1      27.075   1.286  52.677  1.00  0.00    -0.341 N 
HETATM   19  C1  UNL     1      27.513  -0.086  52.738  1.00  0.00     0.095 A 
HETATM   20  C2  UNL     1      28.591  -0.584  53.315  1.00  0.00     0.048 A 
HETATM   21 BR1  UNL     1      28.989  -2.426  53.267  1.00  0.00    -0.048 Br
HETATM   22  C3  UNL     1      29.457   0.362  54.000  1.00  0.00     0.020 A 
HETATM   23  C4  UNL     1      29.058   1.600  53.959  1.00  0.00    -0.006 A 
HETATM   24  C5  UNL     1      27.889   2.276  53.357  1.00  0.00     0.154 A 
BRANCH  19  25
HETATM   25  N1  UNL     1      26.707  -1.093  52.089  1.00  0.00    -0.288 NA
HETATM   26  H1  UNL     1      25.696  -0.911  51.926  1.00  0.00     0.125 HD
HETATM   27  H2  UNL     1      25.797  -1.440  51.713  1.00  0.00     0.125 HD
ENDBRANCH  19  25
ENDBRANCH   1  18
TORSDOF 2
ENDMDL
MODEL 2
REMARK VINA RESULT:      -8.4      3.502      6.452
REMARK  2 active torsions:
REMARK  status: ('A' for Active; 'I' for Inactive)
REMARK    1  A    between atoms: N1_1  and  C1_2 
REMARK    2  A    between atoms: N2_8  and  C6_9 
ROOT
HETATM    1  C6  UNL     1      25.302   3.047  51.740  1.00  0.00     0.238 C 
HETATM    2  N3  UNL     1      24.435   2.071  51.161  1.00  0.00    -0.273 NA
HETATM    3  C7  UNL     1      24.004   0.956  51.670  1.00  0.00     0.111 C 
HETATM    4  C8  UNL     1      24.114   1.103  53.120  1.00  0.00     0.126 C 
HETATM    5  C9  UNL     1      25.445   1.668  53.316  1.00  0.00     0.068 C 
HETATM    6  C10 UNL     1      26.368   2.568  52.593  1.00  0.00    -0.037 C 
HETATM    7  C11 UNL     1      27.536   2.314  53.325  1.00  0.00    -0.015 C 
HETATM    8  C12 UNL     1      28.160   1.306  54.349  1.00  0.00     0.068 C 
HETATM    9  C13 UNL     1      27.454  -0.022  54.235  1.00  0.00    -0.031 A 
HETATM   10  C14 UNL     1      26.228   0.238  54.784  1.00  0.00     0.038 A 
HETATM   11  C15 UNL     1      25.679  -0.736  54.007  1.00  0.00     0.029 A 
HETATM   12  C16 UNL     1      25.834  -1.714  53.075  1.00  0.00     0.031 A 
HETATM   13  C17 UNL     1      27.208  -1.730  52.742  1.00  0.00     0.026 A 
HETATM   14  C18 UNL     1      28.128  -0.830  53.338  1.00  0.00     0.040 A 
HETATM   15 CL1  UNL     1      29.818  -0.843  52.919  1.00  0.00    -0.084 Cl
HETATM   16  N4  UNL     1      24.273  -0.187  53.923  1.00  0.00    -0.380 N 
HETATM   17  H18 UNL     1      23.812  -0.931  54.486  1.00  0.00     0.160 HD
ENDROOT
BRANCH   1  18
HETATM   18  N2  UNL     1      25.776   3.922  50.679  1.00  0.00    -0.341 N 
HETATM   19  C1  UNL     1      25.177   5.230  50.581  1.00  0.00     0.095 A 
HETATM   20  C2  UNL     1      25.454   6.203  49.732  1.00  0.00     0.048 A 
HETATM   21 BR1  UNL     1      24.551   7.858  49.782  1.00  0.00    -0.048 Br
HETATM   22  C3  UNL     1      26.489   5.932  48.748  1.00  0.00     0.020 A 
HETATM   23  C4  UNL     1      27.022   4.748  48.824  1.00  0.00    -0.006 A 
HETATM   24  C5  UNL     1      26.804   3.586  49.712  1.00  0.00     0.154 A 
BRANCH  19  25
HETATM   25  N1  UNL     1      24.135   5.579  51.517  1.00  0.00    -0.288 NA
HETATM   26  H1  UNL     1      23.367   4.903  51.701  1.00  0.00     0.125 HD
HETATM   27  H2  UNL     1      23.253   5.365  52.032  1.00  0.00     0.125 HD
ENDBRANCH  19  25
ENDBRANCH   1  18
TORSDOF 2
ENDMDL
MODEL 3
REMARK VINA RESULT:      -8.2      4.046      5.807
REMARK  2 active torsions:
REMARK  status: ('A' for Active; 'I' for Inactive)
REMARK    1  A    between atoms: N1_1  and  C1_2 
REMARK    2  A    between atoms: N2_8  and  C6_9 
ROOT
HETATM    1  C6  UNL     1      24.472   3.541  50.356  1.00  0.00     0.238 C 
HETATM    2  N3  UNL     1      24.299   3.942  51.716  1.00  0.00    -0.273 NA
HETATM    3  C7  UNL     1      23.720   3.304  52.689  1.00  0.00     0.111 C 
HETATM    4  C8  UNL     1      23.739   1.892  52.315  1.00  0.00     0.126 C 
HETATM    5  C9  UNL     1      23.305   1.891  50.921  1.00  0.00     0.068 C 
HETATM    6  C10 UNL     1      23.403   2.780  49.746  1.00  0.00    -0.037 C 
HETATM    7  C11 UNL     1      22.442   2.168  48.929  1.00  0.00    -0.015 C 
HETATM    8  C12 UNL     1      21.255   1.148  48.968  1.00  0.00     0.068 C 
HETATM    9  C13 UNL     1      20.702   1.079  50.370  1.00  0.00    -0.031 A 
HETATM   10  C14 UNL     1      21.686   0.416  51.052  1.00  0.00     0.038 A 
HETATM   11  C15 UNL     1      21.311   1.049  52.198  1.00  0.00     0.029 A 
HETATM   12  C16 UNL     1      20.479   1.915  52.837  1.00  0.00     0.031 A 
HETATM   13  C17 UNL     1      19.583   2.399  51.857  1.00  0.00     0.026 A 
HETATM   14  C18 UNL     1      19.663   1.982  50.504  1.00  0.00     0.040 A 
HETATM   15 CL1  UNL     1      18.566   2.588  49.296  1.00  0.00    -0.084 Cl
HETATM   16  N4  UNL     1      22.641   1.015  52.916  1.00  0.00    -0.380 N 
HETATM   17  H18 UNL     1      22.364   0.348  53.664  1.00  0.00     0.160 HD
ENDROOT
BRANCH   1  18
HETATM   18  N2  UNL     1      24.847   4.713  49.580  1.00  0.00    -0.341 N 
HETATM   19  C1  UNL     1      26.248   4.894  49.288  1.00  0.00     0.095 A 
HETATM   20  C2  UNL     1      26.828   5.850  48.587  1.00  0.00     0.048 A 
HETATM   21 BR1  UNL     1      28.693   5.896  48.312  1.00  0.00    -0.048 Br
HETATM   22  C3  UNL     1      25.955   6.875  48.039  1.00  0.00     0.020 A 
HETATM   23  C4  UNL     1      24.692   6.723  48.311  1.00  0.00    -0.006 A 
HETATM   24  C5  UNL     1      23.927   5.714  49.075  1.00  0.00     0.154 A 
BRANCH  19  25
HETATM   25  N1  UNL     1      27.186   3.924  49.801  1.00  0.00    -0.288 NA
HETATM   26  H1  UNL     1      27.374   3.058  49.256  1.00  0.00     0.125 HD
HETATM   27  H2  UNL     1      27.705   3.021  49.730  1.00  0.00     0.125 HD
ENDBRANCH  19  25
ENDBRANCH   1  18
TORSDOF 2
ENDMDL
MODEL 4
REMARK VINA RESULT:      -8.0      1.870      2.454
REMARK  2 active torsions:
REMARK  status: ('A' for Active; 'I' for Inactive)
REMARK    1  A    between atoms: N1_1  and  C1_2 
REMARK    2  A    between atoms: N2_8  and  C6_9 
ROOT
HETATM    1  C6  UNL     1      24.859   0.770  52.328  1.00  0.00     0.238 C 
HETATM    2  N3  UNL     1      23.999   0.484  53.432  1.00  0.00    -0.273 NA
HETATM    3  C7  UNL     1      22.701   0.430  53.463  1.00  0.00     0.111 C 
HETATM    4  C8  UNL     1      22.271   0.186  52.089  1.00  0.00     0.126 C 
HETATM    5  C9  UNL     1      23.063   1.124  51.300  1.00  0.00     0.068 C 
HETATM    6  C10 UNL     1      24.401   1.748  51.364  1.00  0.00    -0.037 C 
HETATM    7  C11 UNL     1      24.219   2.754  50.404  1.00  0.00    -0.015 C 
HETATM    8  C12 UNL     1      23.107   3.506  49.598  1.00  0.00     0.068 C 
HETATM    9  C13 UNL     1      21.799   3.410  50.343  1.00  0.00    -0.031 A 
HETATM   10  C14 UNL     1      21.449   2.097  50.175  1.00  0.00     0.038 A 
HETATM   11  C15 UNL     1      20.763   2.136  51.350  1.00  0.00     0.029 A 
HETATM   12  C16 UNL     1      20.337   2.839  52.433  1.00  0.00     0.031 A 
HETATM   13  C17 UNL     1      20.853   4.147  52.283  1.00  0.00     0.026 A 
HETATM   14  C18 UNL     1      21.654   4.507  51.171  1.00  0.00     0.040 A 
HETATM   15 CL1  UNL     1      22.298   6.115  50.993  1.00  0.00    -0.084 Cl
HETATM   16  N4  UNL     1      20.871   0.673  51.719  1.00  0.00    -0.380 N 
HETATM   17  H18 UNL     1      19.865   0.437  51.597  1.00  0.00     0.160 HD
ENDROOT
BRANCH   1  18
HETATM   18  N2  UNL     1      26.185   1.065  52.847  1.00  0.00    -0.341 N 
HETATM   19  C1  UNL     1      27.116  -0.031  52.950  1.00  0.00     0.095 A 
HETATM   20  C2  UNL     1      28.371  -0.012  53.360  1.00  0.00     0.048 A 
HETATM   21 BR1  UNL     1      29.429  -1.572  53.407  1.00  0.00    -0.048 Br
HETATM   22  C3  UNL     1      28.898   1.275  53.782  1.00  0.00     0.020 A 
HETATM   23  C4  UNL     1      28.057   2.264  53.703  1.00  0.00    -0.006 A 
HETATM   24  C5  UNL     1      26.647   2.374  53.271  1.00  0.00     0.154 A 
BRANCH  19  25
HETATM   25  N1  UNL     1      26.672  -1.347  52.558  1.00  0.00    -0.288 NA
HETATM   26  H1  UNL     1      26.395  -1.519  51.570  1.00  0.00     0.125 HD
HETATM   27  H2  UNL     1      26.324  -2.025  51.844  1.00  0.00     0.125 HD
ENDBRANCH  19  25
ENDBRANCH   1  18
TORSDOF 2
ENDMDL
MODEL 5
REMARK VINA RESULT:      -8.0      4.189      6.976
REMARK  2 active torsions:
REMARK  status: ('A' for Active; 'I' for Inactive)
REMARK    1  A    between atoms: N1_1  and  C1_2 
REMARK    2  A    between atoms: N2_8  and  C6_9 
ROOT
HETATM    1  C6  UNL     1      21.699   0.192  53.006  1.00  0.00     0.238 C 
HETATM    2  N3  UNL     1      22.173  -1.153  52.928  1.00  0.00    -0.273 NA
HETATM    3  C7  UNL     1      23.291  -1.651  53.363  1.00  0.00     0.111 C 
HETATM    4  C8  UNL     1      23.760  -0.745  54.409  1.00  0.00     0.126 C 
HETATM    5  C9  UNL     1      23.591   0.582  53.826  1.00  0.00     0.068 C 
HETATM    6  C10 UNL     1      22.677   1.251  52.877  1.00  0.00    -0.037 C 
HETATM    7  C11 UNL     1      23.425   2.413  52.638  1.00  0.00    -0.015 C 
HETATM    8  C12 UNL     1      24.858   3.019  52.812  1.00  0.00     0.068 C 
HETATM    9  C13 UNL     1      25.864   1.899  52.912  1.00  0.00    -0.031 A 
HETATM   10  C14 UNL     1      25.612   1.374  54.151  1.00  0.00     0.038 A 
HETATM   11  C15 UNL     1      26.067   0.164  53.723  1.00  0.00     0.029 A 
HETATM   12  C16 UNL     1      26.601  -0.602  52.735  1.00  0.00     0.031 A 
HETATM   13  C17 UNL     1      26.750   0.246  51.613  1.00  0.00     0.026 A 
HETATM   14  C18 UNL     1      26.362   1.609  51.655  1.00  0.00     0.040 A 
HETATM   15 CL1  UNL     1      26.536   2.650  50.270  1.00  0.00    -0.084 Cl
HETATM   16  N4  UNL     1      25.267  -0.717  54.657  1.00  0.00    -0.380 N 
HETATM   17  H18 UNL     1      26.069  -1.061  55.224  1.00  0.00     0.160 HD
ENDROOT
BRANCH   1  18
HETATM   18  N2  UNL     1      20.584   0.337  52.083  1.00  0.00    -0.341 N 
HETATM   19  C1  UNL     1      19.316  -0.220  52.482  1.00  0.00     0.095 A 
HETATM   20  C2  UNL     1      18.163  -0.194  51.839  1.00  0.00     0.048 A 
HETATM   21 BR1  UNL     1      16.605  -0.982  52.550  1.00  0.00    -0.048 Br
HETATM   22  C3  UNL     1      18.155   0.470  50.546  1.00  0.00     0.020 A 
HETATM   23  C4  UNL     1      19.301   0.963  50.175  1.00  0.00    -0.006 A 
HETATM   24  C5  UNL     1      20.645   0.998  50.793  1.00  0.00     0.154 A 
BRANCH  19  25
HETATM   25  N1  UNL     1      19.236  -0.904  53.751  1.00  0.00    -0.288 NA
HETATM   26  H1  UNL     1      20.084  -0.969  54.350  1.00  0.00     0.125 HD
HETATM   27  H2  UNL     1      19.664  -1.243  54.641  1.00  0.00     0.125 HD
ENDBRANCH  19  25
ENDBRANCH   1  18
TORSDOF 2
ENDMDL
MODEL 6
REMARK VINA RESULT:      -7.7      2.441      3.659
REMARK  2 active torsions:
REMARK  status: ('A' for Active; 'I' for Inactive)
REMARK    1  A    between atoms: N1_1  and  C1_2 
REMARK    2  A    between atoms: N2_8  and  C6_9 
ROOT
HETATM    1  C6  UNL     1      25.419   2.971  51.705  1.00  0.00     0.238 C 
HETATM    2  N3  UNL     1      26.076   3.134  50.447  1.00  0.00    -0.273 NA
HETATM    3  C7  UNL     1      25.843   4.005  49.510  1.00  0.00     0.111 C 
HETATM    4  C8  UNL     1      25.162   5.124  50.158  1.00  0.00     0.126 C 
HETATM    5  C9  UNL     1      24.151   4.485  50.993  1.00  0.00     0.068 C 
HETATM    6  C10 UNL     1      23.995   3.225  51.749  1.00  0.00    -0.037 C 
HETATM    7  C11 UNL     1      22.613   3.280  51.981  1.00  0.00    -0.015 C 
HETATM    8  C12 UNL     1      21.309   4.010  51.514  1.00  0.00     0.068 C 
HETATM    9  C13 UNL     1      21.511   4.548  50.119  1.00  0.00    -0.031 A 
HETATM   10  C14 UNL     1      22.379   5.588  50.316  1.00  0.00     0.038 A 
HETATM   11  C15 UNL     1      22.858   5.421  49.053  1.00  0.00     0.029 A 
HETATM   12  C16 UNL     1      22.816   4.762  47.864  1.00  0.00     0.031 A 
HETATM   13  C17 UNL     1      21.810   3.777  47.992  1.00  0.00     0.026 A 
HETATM   14  C18 UNL     1      21.076   3.616  49.195  1.00  0.00     0.040 A 
HETATM   15 CL1  UNL     1      19.845   2.395  49.355  1.00  0.00    -0.084 Cl
HETATM   16  N4  UNL     1      24.250   5.969  49.269  1.00  0.00    -0.380 N 
HETATM   17  H18 UNL     1      24.141   6.825  48.688  1.00  0.00     0.160 HD
ENDROOT
BRANCH   1  18
HETATM   18  N2  UNL     1      25.778   1.668  52.241  1.00  0.00    -0.341 N 
HETATM   19  C1  UNL     1      27.140   1.483  52.677  1.00  0.00     0.095 A 
HETATM   20  C2  UNL     1      27.696   0.414  53.218  1.00  0.00     0.048 A 
HETATM   21 BR1  UNL     1      29.509   0.384  53.734  1.00  0.00    -0.048 Br
HETATM   22  C3  UNL     1      26.838  -0.747  53.392  1.00  0.00     0.020 A 
HETATM   23  C4  UNL     1      25.612  -0.589  52.987  1.00  0.00    -0.006 A 
HETATM   24  C5  UNL     1      24.877   0.538  52.372  1.00  0.00     0.154 A 
BRANCH  19  25
HETATM   25  N1  UNL     1      28.062   2.584  52.534  1.00  0.00    -0.288 NA
HETATM   26  H1  UNL     1      29.037   2.397  52.225  1.00  0.00     0.125 HD
HETATM   27  H2  UNL     1      29.004   2.971  52.302  1.00  0.00     0.125 HD
ENDBRANCH  19  25
ENDBRANCH   1  18
TORSDOF 2
ENDMDL
MODEL 7
REMARK VINA RESULT:      -7.5      5.106      6.683
REMARK  2 active torsions:
REMARK  status: ('A' for Active; 'I' for Inactive)
REMARK    1  A    between atoms: N1_1  and  C1_2 
REMARK    2  A    between atoms: N2_8  and  C6_9 
ROOT
HETATM    1  C6  UNL     1      25.973   7.441  49.913  1.00  0.00     0.238 C 
HETATM    2  N3  UNL     1      25.033   8.394  49.415  1.00  0.00    -0.273 NA
HETATM    3  C7  UNL     1      23.760   8.491  49.661  1.00  0.00     0.111 C 
HETATM    4  C8  UNL     1      23.540   7.806  50.933  1.00  0.00     0.126 C 
HETATM    5  C9  UNL     1      24.284   6.559  50.794  1.00  0.00     0.068 C 
HETATM    6  C10 UNL     1      25.506   6.086  50.110  1.00  0.00    -0.037 C 
HETATM    7  C11 UNL     1      25.304   4.704  50.236  1.00  0.00    -0.015 C 
HETATM    8  C12 UNL     1      24.206   3.641  50.576  1.00  0.00     0.068 C 
HETATM    9  C13 UNL     1      22.842   4.230  50.313  1.00  0.00    -0.031 A 
HETATM   10  C14 UNL     1      22.701   5.136  51.328  1.00  0.00     0.038 A 
HETATM   11  C15 UNL     1      21.878   5.882  50.540  1.00  0.00     0.029 A 
HETATM   12  C16 UNL     1      21.230   6.051  49.357  1.00  0.00     0.031 A 
HETATM   13  C17 UNL     1      21.573   4.940  48.555  1.00  0.00     0.026 A 
HETATM   14  C18 UNL     1      22.447   3.926  49.023  1.00  0.00     0.040 A 
HETATM   15 CL1  UNL     1      22.879   2.563  48.029  1.00  0.00    -0.084 Cl
HETATM   16  N4  UNL     1      22.141   7.235  51.162  1.00  0.00    -0.380 N 
HETATM   17  H18 UNL     1      21.200   7.365  51.585  1.00  0.00     0.160 HD
ENDROOT
BRANCH   1  18
HETATM   18  N2  UNL     1      27.172   7.512  49.092  1.00  0.00    -0.341 N 
HETATM   19  C1  UNL     1      28.129   8.543  49.405  1.00  0.00     0.095 A 
HETATM   20  C2  UNL     1      29.292   8.792  48.831  1.00  0.00     0.048 A 
HETATM   21 BR1  UNL     1      30.410  10.197  49.407  1.00  0.00    -0.048 Br
HETATM   22  C3  UNL     1      29.669   7.929  47.723  1.00  0.00     0.020 A 
HETATM   23  C4  UNL     1      28.801   7.005  47.429  1.00  0.00    -0.006 A 
HETATM   24  C5  UNL     1      27.482   6.629  47.983  1.00  0.00     0.154 A 
BRANCH  19  25
HETATM   25  N1  UNL     1      27.832   9.450  50.488  1.00  0.00    -0.288 NA
HETATM   26  H1  UNL     1      28.494  10.223  50.703  1.00  0.00     0.125 HD
HETATM   27  H2  UNL     1      28.061  10.274  51.086  1.00  0.00     0.125 HD
ENDBRANCH  19  25
ENDBRANCH   1  18
TORSDOF 2
ENDMDL
MODEL 8
REMARK VINA RESULT:      -7.4      6.759      8.360
REMARK  2 active torsions:
REMARK  status: ('A' for Active; 'I' for Inactive)
REMARK    1  A    between atoms: N1_1  and  C1_2 
REMARK    2  A    between atoms: N2_8  and  C6_9 
ROOT
HETATM    1  C6  UNL     1      31.449   7.126  47.958  1.00  0.00     0.238 C 
HETATM    2  N3  UNL     1      31.990   8.426  47.719  1.00  0.00    -0.273 NA
HETATM    3  C7  UNL     1      31.557   9.579  48.133  1.00  0.00     0.111 C 
HETATM    4  C8  UNL     1      30.740   9.306  49.314  1.00  0.00     0.126 C 
HETATM    5  C9  UNL     1      29.904   8.180  48.910  1.00  0.00     0.068 C 
HETATM    6  C10 UNL     1      30.008   7.005  48.020  1.00  0.00    -0.037 C 
HETATM    7  C11 UNL     1      28.654   6.645  47.976  1.00  0.00    -0.015 C 
HETATM    8  C12 UNL     1      27.220   7.185  48.297  1.00  0.00     0.068 C 
HETATM    9  C13 UNL     1      27.242   8.694  48.291  1.00  0.00    -0.031 A 
HETATM   10  C14 UNL     1      27.934   8.993  49.433  1.00  0.00     0.038 A 
HETATM   11  C15 UNL     1      28.354  10.157  48.866  1.00  0.00     0.029 A 
HETATM   12  C16 UNL     1      28.349  11.012  47.808  1.00  0.00     0.031 A 
HETATM   13  C17 UNL     1      27.532  10.415  46.821  1.00  0.00     0.026 A 
HETATM   14  C18 UNL     1      26.911   9.157  47.030  1.00  0.00     0.040 A 
HETATM   15 CL1  UNL     1      25.914   8.417  45.810  1.00  0.00    -0.084 Cl
HETATM   16  N4  UNL     1      29.646  10.324  49.633  1.00  0.00    -0.380 N 
HETATM   17  H18 UNL     1      29.360  11.158  50.185  1.00  0.00     0.160 HD
ENDROOT
BRANCH   1  18
HETATM   18  N2  UNL     1      32.054   6.200  47.012  1.00  0.00    -0.341 N 
HETATM   19  C1  UNL     1      32.391   4.885  47.496  1.00  0.00     0.095 A 
HETATM   20  C2  UNL     1      32.917   3.871  46.833  1.00  0.00     0.048 A 
HETATM   21 BR1  UNL     1      33.273   2.214  47.660  1.00  0.00    -0.048 Br
HETATM   22  C3  UNL     1      33.215   4.097  45.428  1.00  0.00     0.020 A 
HETATM   23  C4  UNL     1      32.925   5.288  44.991  1.00  0.00    -0.006 A 
HETATM   24  C5  UNL     1      32.345   6.493  45.621  1.00  0.00     0.154 A 
BRANCH  19  25
HETATM   25  N1  UNL     1      32.134   4.576  48.883  1.00  0.00    -0.288 NA
HETATM   26  H1  UNL     1      32.376   5.275  49.614  1.00  0.00     0.125 HD
HETATM   27  H2  UNL     1      32.152   4.822  49.897  1.00  0.00     0.125 HD
ENDBRANCH  19  25
ENDBRANCH   1  18
TORSDOF 2
ENDMDL
MODEL 9
REMARK VINA RESULT:      -7.4      3.969      6.401
REMARK  2 active torsions:
REMARK  status: ('A' for Active; 'I' for Inactive)
REMARK    1  A    between atoms: N1_1  and  C1_2 
REMARK    2  A    between atoms: N2_8  and  C6_9 
ROOT
HETATM    1  C6  UNL     1      21.008   1.828  52.014  1.00  0.00     0.238 C 
HETATM    2  N3  UNL     1      22.139   1.030  51.661  1.00  0.00    -0.273 NA
HETATM    3  C7  UNL     1      23.397   1.356  51.646  1.00  0.00     0.111 C 
HETATM    4  C8  UNL     1      23.531   2.497  52.548  1.00  0.00     0.126 C 
HETATM    5  C9  UNL     1      22.422   3.371  52.178  1.00  0.00     0.068 C 
HETATM    6  C10 UNL     1      21.047   3.230  51.658  1.00  0.00    -0.037 C 
HETATM    7  C11 UNL     1      20.818   4.562  51.284  1.00  0.00    -0.015 C 
HETATM    8  C12 UNL     1      21.558   5.916  51.018  1.00  0.00     0.068 C 
HETATM    9  C13 UNL     1      23.000   5.637  50.671  1.00  0.00    -0.031 A 
HETATM   10  C14 UNL     1      23.529   5.241  51.870  1.00  0.00     0.038 A 
HETATM   11  C15 UNL     1      24.452   4.490  51.207  1.00  0.00     0.029 A 
HETATM   12  C16 UNL     1      24.986   4.062  50.033  1.00  0.00     0.031 A 
HETATM   13  C17 UNL     1      24.225   4.669  49.007  1.00  0.00     0.026 A 
HETATM   14  C18 UNL     1      23.135   5.528  49.299  1.00  0.00     0.040 A 
HETATM   15 CL1  UNL     1      22.191   6.266  48.036  1.00  0.00    -0.084 Cl
HETATM   16  N4  UNL     1      24.696   3.446  52.274  1.00  0.00    -0.380 N 
HETATM   17  H18 UNL     1      25.672   3.726  52.504  1.00  0.00     0.160 HD
ENDROOT
BRANCH   1  18
HETATM   18  N2  UNL     1      19.809   1.156  51.539  1.00  0.00    -0.341 N 
HETATM   19  C1  UNL     1      19.275   0.096  52.357  1.00  0.00     0.095 A 
HETATM   20  C2  UNL     1      18.195  -0.636  52.158  1.00  0.00     0.048 A 
HETATM   21 BR1  UNL     1      17.660  -1.978  53.370  1.00  0.00    -0.048 Br
HETATM   22  C3  UNL     1      17.437  -0.361  50.947  1.00  0.00     0.020 A 
HETATM   23  C4  UNL     1      17.924   0.585  50.199  1.00  0.00    -0.006 A 
HETATM   24  C5  UNL     1      19.107   1.466  50.307  1.00  0.00     0.154 A 
BRANCH  19  25
HETATM   25  N1  UNL     1      19.970  -0.247  53.575  1.00  0.00    -0.288 NA
HETATM   26  H1  UNL     1      20.930   0.118  53.735  1.00  0.00     0.125 HD
HETATM   27  H2  UNL     1      20.802  -0.200  54.203  1.00  0.00     0.125 HD
ENDBRANCH  19  25
ENDBRANCH   1  18
TORSDOF 2
ENDMDL
