MODEL 1
REMARK VINA RESULT:      -7.4      0.000      0.000
REMARK  12 active torsions:
REMARK  status: ('A' for Active; 'I' for Inactive)
REMARK    1  A    between atoms: C2_2  and  C3_3 
REMARK    2  A    between atoms: C3_3  and  N1_4 
REMARK    3  A    between atoms: N1_4  and  C5_6 
REMARK    4  A    between atoms: C5_6  and  C6_7 
REMARK    5  A    between atoms: C6_7  and  O1_8 
REMARK    6  A    between atoms: O1_8  and  C7_9 
REMARK    7  A    between atoms: C10_12  and  N2_13 
REMARK    8  A    between atoms: C10_12  and  N4_16 
REMARK    9  A    between atoms: N2_13  and  C11_14 
REMARK   10  A    between atoms: C11_14  and  N3_15 
REMARK   11  A    between atoms: N4_16  and  C12_17 
REMARK   12  A    between atoms: C20_27  and  O2_28 
ROOT
HETATM    1  C7  UNL     1      23.309   0.462  52.724  1.00  0.00     0.075 C 
HETATM    2  C8  UNL     1      23.630   1.734  52.423  1.00  0.00     0.046 C 
HETATM    3  C9  UNL     1      22.715   2.751  51.887  1.00  0.00    -0.009 C 
HETATM    4  C10 UNL     1      22.884   4.025  51.649  1.00  0.00     0.145 C 
HETATM    5  C18 UNL     1      21.355   2.197  51.546  1.00  0.00     0.045 C 
HETATM    6  C19 UNL     1      21.013   1.279  52.709  1.00  0.00     0.043 C 
HETATM    7  C20 UNL     1      21.907   0.043  52.495  1.00  0.00     0.177 C 
ENDROOT
BRANCH   4   8
HETATM    8  N2  UNL     1      21.738   4.731  51.114  1.00  0.00    -0.169 NA
BRANCH   8   9
HETATM    9  C11 UNL     1      21.758   6.007  51.311  1.00  0.00     0.095 C 
BRANCH   9  10
HETATM   10  N3  UNL     1      21.650   7.266  51.145  1.00  0.00    -0.241 NA
HETATM   11  H16 UNL     1      21.010   7.838  51.735  1.00  0.00     0.199 HD
ENDBRANCH   9  10
ENDBRANCH   8   9
ENDBRANCH   4   8
BRANCH   4  12
HETATM   12  N4  UNL     1      23.988   4.955  51.778  1.00  0.00    -0.340 N 
HETATM   13  H17 UNL     1      23.934   5.669  52.563  1.00  0.00     0.167 HD
BRANCH  12  14
HETATM   14  C12 UNL     1      25.066   4.809  50.809  1.00  0.00     0.035 A 
HETATM   15  C13 UNL     1      25.755   3.638  50.594  1.00  0.00     0.032 A 
HETATM   16  C14 UNL     1      26.742   3.594  49.640  1.00  0.00     0.046 A 
HETATM   17  C15 UNL     1      26.993   4.754  48.929  1.00  0.00     0.138 A 
HETATM   18  F1  UNL     1      27.968   4.696  47.989  1.00  0.00    -0.204 F 
HETATM   19  C16 UNL     1      26.327   5.951  49.110  1.00  0.00     0.074 A 
HETATM   20 CL1  UNL     1      26.768   7.325  48.122  1.00  0.00    -0.081 Cl
HETATM   21  C17 UNL     1      25.326   5.963  50.093  1.00  0.00     0.056 A 
ENDBRANCH  12  14
ENDBRANCH   4  12
BRANCH   1  22
HETATM   22  O1  UNL     1      24.309  -0.416  53.241  1.00  0.00    -0.351 OA
BRANCH  22  23
HETATM   23  C6  UNL     1      25.636  -0.020  53.186  1.00  0.00     0.195 C 
BRANCH  23  24
HETATM   24  C5  UNL     1      26.358   0.318  54.418  1.00  0.00     0.143 C 
BRANCH  24  25
HETATM   25  N1  UNL     1      27.640   0.877  54.394  1.00  0.00    -0.415 N 
HETATM   26  C4  UNL     1      27.900   1.628  53.159  1.00  0.00     0.143 C 
BRANCH  25  27
HETATM   27  C3  UNL     1      28.771   0.129  54.805  1.00  0.00     0.116 C 
BRANCH  27  28
HETATM   28  C2  UNL     1      29.561  -0.307  53.572  1.00  0.00     0.015 C 
HETATM   29  C1  UNL     1      29.376  -1.787  53.384  1.00  0.00     0.006 C 
ENDBRANCH  27  28
ENDBRANCH  25  27
ENDBRANCH  24  25
ENDBRANCH  23  24
ENDBRANCH  22  23
ENDBRANCH   1  22
BRANCH   7  30
HETATM   30  O2  UNL     1      21.574  -0.951  53.370  1.00  0.00    -0.384 OA
HETATM   31  C21 UNL     1      21.142  -0.541  54.605  1.00  0.00     0.202 C 
ENDBRANCH   7  30
TORSDOF 12
ENDMDL
MODEL 2
REMARK VINA RESULT:      -7.3      3.562      6.158
REMARK  12 active torsions:
REMARK  status: ('A' for Active; 'I' for Inactive)
REMARK    1  A    between atoms: C2_2  and  C3_3 
REMARK    2  A    between atoms: C3_3  and  N1_4 
REMARK    3  A    between atoms: N1_4  and  C5_6 
REMARK    4  A    between atoms: C5_6  and  C6_7 
REMARK    5  A    between atoms: C6_7  and  O1_8 
REMARK    6  A    between atoms: O1_8  and  C7_9 
REMARK    7  A    between atoms: C10_12  and  N2_13 
REMARK    8  A    between atoms: C10_12  and  N4_16 
REMARK    9  A    between atoms: N2_13  and  C11_14 
REMARK   10  A    between atoms: C11_14  and  N3_15 
REMARK   11  A    between atoms: N4_16  and  C12_17 
REMARK   12  A    between atoms: C20_27  and  O2_28 
ROOT
HETATM    1  C7  UNL     1      20.582   1.104  49.978  1.00  0.00     0.075 C 
HETATM    2  C8  UNL     1      21.541   0.626  50.792  1.00  0.00     0.046 C 
HETATM    3  C9  UNL     1      21.393   0.344  52.226  1.00  0.00    -0.009 C 
HETATM    4  C10 UNL     1      22.210  -0.202  53.088  1.00  0.00     0.145 C 
HETATM    5  C18 UNL     1      20.063   0.789  52.779  1.00  0.00     0.045 C 
HETATM    6  C19 UNL     1      19.051   0.367  51.725  1.00  0.00     0.043 C 
HETATM    7  C20 UNL     1      19.255   1.374  50.577  1.00  0.00     0.177 C 
ENDROOT
BRANCH   4   8
HETATM    8  N2  UNL     1      21.717  -0.326  54.444  1.00  0.00    -0.169 NA
BRANCH   8   9
HETATM    9  C11 UNL     1      22.263  -1.278  55.125  1.00  0.00     0.095 C 
BRANCH   9  10
HETATM   10  N3  UNL     1      23.077  -1.956  55.834  1.00  0.00    -0.241 NA
HETATM   11  H16 UNL     1      23.310  -2.943  55.598  1.00  0.00     0.199 HD
ENDBRANCH   9  10
ENDBRANCH   8   9
ENDBRANCH   4   8
BRANCH   4  12
HETATM   12  N4  UNL     1      23.559  -0.729  53.030  1.00  0.00    -0.340 N 
HETATM   13  H17 UNL     1      23.666  -1.780  52.918  1.00  0.00     0.167 HD
BRANCH  12  14
HETATM   14  C12 UNL     1      24.635   0.248  53.132  1.00  0.00     0.035 A 
HETATM   15  C13 UNL     1      24.436   1.609  53.193  1.00  0.00     0.032 A 
HETATM   16  C14 UNL     1      25.515   2.450  53.311  1.00  0.00     0.046 A 
HETATM   17  C15 UNL     1      26.771   1.871  53.367  1.00  0.00     0.138 A 
HETATM   18  F1  UNL     1      27.828   2.712  53.486  1.00  0.00    -0.204 F 
HETATM   19  C16 UNL     1      27.018   0.512  53.311  1.00  0.00     0.074 A 
HETATM   20 CL1  UNL     1      28.670  -0.054  53.398  1.00  0.00    -0.081 Cl
HETATM   21  C17 UNL     1      25.894  -0.319  53.188  1.00  0.00     0.056 A 
ENDBRANCH  12  14
ENDBRANCH   4  12
BRANCH   1  22
HETATM   22  O1  UNL     1      20.873   1.328  48.598  1.00  0.00    -0.351 OA
BRANCH  22  23
HETATM   23  C6  UNL     1      22.173   1.641  48.234  1.00  0.00     0.195 C 
BRANCH  23  24
HETATM   24  C5  UNL     1      22.559   3.037  48.004  1.00  0.00     0.143 C 
BRANCH  24  25
HETATM   25  N1  UNL     1      23.018   3.858  49.040  1.00  0.00    -0.415 N 
HETATM   26  C4  UNL     1      23.273   5.234  48.593  1.00  0.00     0.143 C 
BRANCH  25  27
HETATM   27  C3  UNL     1      24.008   3.406  49.946  1.00  0.00     0.116 C 
BRANCH  27  28
HETATM   28  C2  UNL     1      25.324   4.125  49.654  1.00  0.00     0.015 C 
HETATM   29  C1  UNL     1      26.442   3.121  49.712  1.00  0.00     0.006 C 
ENDBRANCH  27  28
ENDBRANCH  25  27
ENDBRANCH  24  25
ENDBRANCH  23  24
ENDBRANCH  22  23
ENDBRANCH   1  22
BRANCH   7  30
HETATM   30  O2  UNL     1      18.282   1.228  49.629  1.00  0.00    -0.384 OA
HETATM   31  C21 UNL     1      17.208   0.455  49.989  1.00  0.00     0.202 C 
ENDBRANCH   7  30
TORSDOF 12
ENDMDL
MODEL 3
REMARK VINA RESULT:      -7.3      3.056      6.363
REMARK  12 active torsions:
REMARK  status: ('A' for Active; 'I' for Inactive)
REMARK    1  A    between atoms: C2_2  and  C3_3 
REMARK    2  A    between atoms: C3_3  and  N1_4 
REMARK    3  A    between atoms: N1_4  and  C5_6 
REMARK    4  A    between atoms: C5_6  and  C6_7 
REMARK    5  A    between atoms: C6_7  and  O1_8 
REMARK    6  A    between atoms: O1_8  and  C7_9 
REMARK    7  A    between atoms: C10_12  and  N2_13 
REMARK    8  A    between atoms: C10_12  and  N4_16 
REMARK    9  A    between atoms: N2_13  and  C11_14 
REMARK   10  A    between atoms: C11_14  and  N3_15 
REMARK   11  A    between atoms: N4_16  and  C12_17 
REMARK   12  A    between atoms: C20_27  and  O2_28 
ROOT
HETATM    1  C7  UNL     1      26.606   1.525  52.155  1.00  0.00     0.075 C 
HETATM    2  C8  UNL     1      25.274   1.407  52.306  1.00  0.00     0.046 C 
HETATM    3  C9  UNL     1      24.585   0.400  53.124  1.00  0.00    -0.009 C 
HETATM    4  C10 UNL     1      23.322   0.246  53.421  1.00  0.00     0.145 C 
HETATM    5  C18 UNL     1      25.521  -0.635  53.695  1.00  0.00     0.045 C 
HETATM    6  C19 UNL     1      26.726   0.162  54.171  1.00  0.00     0.043 C 
HETATM    7  C20 UNL     1      27.460   0.553  52.874  1.00  0.00     0.177 C 
ENDROOT
BRANCH   4   8
HETATM    8  N2  UNL     1      22.999  -0.880  54.274  1.00  0.00    -0.169 NA
BRANCH   8   9
HETATM    9  C11 UNL     1      21.754  -1.223  54.257  1.00  0.00     0.095 C 
BRANCH   9  10
HETATM   10  N3  UNL     1      20.576  -1.546  54.619  1.00  0.00    -0.241 NA
HETATM   11  H16 UNL     1      20.403  -2.375  55.225  1.00  0.00     0.199 HD
ENDBRANCH   9  10
ENDBRANCH   8   9
ENDBRANCH   4   8
BRANCH   4  12
HETATM   12  N4  UNL     1      22.097   0.943  53.084  1.00  0.00    -0.340 N 
HETATM   13  H17 UNL     1      21.416   1.141  53.876  1.00  0.00     0.167 HD
BRANCH  12  14
HETATM   14  C12 UNL     1      21.927   1.303  51.683  1.00  0.00     0.035 A 
HETATM   15  C13 UNL     1      21.534   0.420  50.703  1.00  0.00     0.032 A 
HETATM   16  C14 UNL     1      21.380   0.861  49.412  1.00  0.00     0.046 A 
HETATM   17  C15 UNL     1      21.631   2.199  49.161  1.00  0.00     0.138 A 
HETATM   18  F1  UNL     1      21.473   2.621  47.882  1.00  0.00    -0.204 F 
HETATM   19  C16 UNL     1      22.026   3.120  50.111  1.00  0.00     0.074 A 
HETATM   20 CL1  UNL     1      22.299   4.778  49.624  1.00  0.00    -0.081 Cl
HETATM   21  C17 UNL     1      22.176   2.637  51.420  1.00  0.00     0.056 A 
ENDBRANCH  12  14
ENDBRANCH   4  12
BRANCH   1  22
HETATM   22  O1  UNL     1      27.134   2.560  51.324  1.00  0.00    -0.351 OA
BRANCH  22  23
HETATM   23  C6  UNL     1      26.416   2.947  50.204  1.00  0.00     0.195 C 
BRANCH  23  24
HETATM   24  C5  UNL     1      25.884   4.310  50.101  1.00  0.00     0.143 C 
BRANCH  24  25
HETATM   25  N1  UNL     1      26.228   5.160  49.045  1.00  0.00    -0.415 N 
HETATM   26  C4  UNL     1      27.625   4.990  48.622  1.00  0.00     0.143 C 
BRANCH  25  27
HETATM   27  C3  UNL     1      25.839   6.522  49.048  1.00  0.00     0.116 C 
BRANCH  27  28
HETATM   28  C2  UNL     1      25.284   6.884  50.425  1.00  0.00     0.015 C 
HETATM   29  C1  UNL     1      24.360   8.061  50.275  1.00  0.00     0.006 C 
ENDBRANCH  27  28
ENDBRANCH  25  27
ENDBRANCH  24  25
ENDBRANCH  23  24
ENDBRANCH  22  23
ENDBRANCH   1  22
BRANCH   7  30
HETATM   30  O2  UNL     1      28.669   1.121  53.157  1.00  0.00    -0.384 OA
HETATM   31  C21 UNL     1      29.095   1.007  54.455  1.00  0.00     0.202 C 
ENDBRANCH   7  30
TORSDOF 12
ENDMDL
MODEL 4
REMARK VINA RESULT:      -7.2      3.168      6.312
REMARK  12 active torsions:
REMARK  status: ('A' for Active; 'I' for Inactive)
REMARK    1  A    between atoms: C2_2  and  C3_3 
REMARK    2  A    between atoms: C3_3  and  N1_4 
REMARK    3  A    between atoms: N1_4  and  C5_6 
REMARK    4  A    between atoms: C5_6  and  C6_7 
REMARK    5  A    between atoms: C6_7  and  O1_8 
REMARK    6  A    between atoms: O1_8  and  C7_9 
REMARK    7  A    between atoms: C10_12  and  N2_13 
REMARK    8  A    between atoms: C10_12  and  N4_16 
REMARK    9  A    between atoms: N2_13  and  C11_14 
REMARK   10  A    between atoms: C11_14  and  N3_15 
REMARK   11  A    between atoms: N4_16  and  C12_17 
REMARK   12  A    between atoms: C20_27  and  O2_28 
ROOT
HETATM    1  C7  UNL     1      26.589   1.624  52.337  1.00  0.00     0.075 C 
HETATM    2  C8  UNL     1      25.335   1.150  52.218  1.00  0.00     0.046 C 
HETATM    3  C9  UNL     1      24.651   0.270  53.176  1.00  0.00    -0.009 C 
HETATM    4  C10 UNL     1      23.422  -0.173  53.216  1.00  0.00     0.145 C 
HETATM    5  C18 UNL     1      25.553  -0.202  54.288  1.00  0.00     0.045 C 
HETATM    6  C19 UNL     1      26.344   1.033  54.689  1.00  0.00     0.043 C 
HETATM    7  C20 UNL     1      27.354   1.227  53.541  1.00  0.00     0.177 C 
ENDROOT
BRANCH   4   8
HETATM    8  N2  UNL     1      23.091  -1.034  54.333  1.00  0.00    -0.169 NA
BRANCH   8   9
HETATM    9  C11 UNL     1      21.825  -1.148  54.562  1.00  0.00     0.095 C 
BRANCH   9  10
HETATM   10  N3  UNL     1      20.640  -1.610  54.649  1.00  0.00    -0.241 NA
HETATM   11  H16 UNL     1      19.955  -1.222  55.330  1.00  0.00     0.199 HD
ENDBRANCH   9  10
ENDBRANCH   8   9
ENDBRANCH   4   8
BRANCH   4  12
HETATM   12  N4  UNL     1      22.251  -0.025  52.376  1.00  0.00    -0.340 N 
HETATM   13  H17 UNL     1      21.610  -0.868  52.283  1.00  0.00     0.167 HD
BRANCH  12  14
HETATM   14  C12 UNL     1      22.074   1.275  51.744  1.00  0.00     0.035 A 
HETATM   15  C13 UNL     1      21.713   2.418  52.421  1.00  0.00     0.032 A 
HETATM   16  C14 UNL     1      21.593   3.604  51.740  1.00  0.00     0.046 A 
HETATM   17  C15 UNL     1      21.850   3.586  50.380  1.00  0.00     0.138 A 
HETATM   18  F1  UNL     1      21.730   4.764  49.720  1.00  0.00    -0.204 F 
HETATM   19  C16 UNL     1      22.215   2.465  49.660  1.00  0.00     0.074 A 
HETATM   20 CL1  UNL     1      22.507   2.618  47.942  1.00  0.00    -0.081 Cl
HETATM   21  C17 UNL     1      22.327   1.270  50.385  1.00  0.00     0.056 A 
ENDBRANCH  12  14
ENDBRANCH   4  12
BRANCH   1  22
HETATM   22  O1  UNL     1      27.122   2.475  51.321  1.00  0.00    -0.351 OA
BRANCH  22  23
HETATM   23  C6  UNL     1      26.244   3.125  50.469  1.00  0.00     0.195 C 
BRANCH  23  24
HETATM   24  C5  UNL     1      26.757   3.960  49.377  1.00  0.00     0.143 C 
BRANCH  24  25
HETATM   25  N1  UNL     1      26.394   5.304  49.240  1.00  0.00    -0.415 N 
HETATM   26  C4  UNL     1      24.960   5.470  48.966  1.00  0.00     0.143 C 
BRANCH  25  27
HETATM   27  C3  UNL     1      27.184   6.200  48.479  1.00  0.00     0.116 C 
BRANCH  27  28
HETATM   28  C2  UNL     1      28.547   5.565  48.210  1.00  0.00     0.015 C 
HETATM   29  C1  UNL     1      29.540   6.661  47.936  1.00  0.00     0.006 C 
ENDBRANCH  27  28
ENDBRANCH  25  27
ENDBRANCH  24  25
ENDBRANCH  23  24
ENDBRANCH  22  23
ENDBRANCH   1  22
BRANCH   7  30
HETATM   30  O2  UNL     1      28.259   2.200  53.854  1.00  0.00    -0.384 OA
HETATM   31  C21 UNL     1      29.365   1.786  54.552  1.00  0.00     0.202 C 
ENDBRANCH   7  30
TORSDOF 12
ENDMDL
MODEL 5
REMARK VINA RESULT:      -7.2      3.652      6.237
REMARK  12 active torsions:
REMARK  status: ('A' for Active; 'I' for Inactive)
REMARK    1  A    between atoms: C2_2  and  C3_3 
REMARK    2  A    between atoms: C3_3  and  N1_4 
REMARK    3  A    between atoms: N1_4  and  C5_6 
REMARK    4  A    between atoms: C5_6  and  C6_7 
REMARK    5  A    between atoms: C6_7  and  O1_8 
REMARK    6  A    between atoms: O1_8  and  C7_9 
REMARK    7  A    between atoms: C10_12  and  N2_13 
REMARK    8  A    between atoms: C10_12  and  N4_16 
REMARK    9  A    between atoms: N2_13  and  C11_14 
REMARK   10  A    between atoms: C11_14  and  N3_15 
REMARK   11  A    between atoms: N4_16  and  C12_17 
REMARK   12  A    between atoms: C20_27  and  O2_28 
ROOT
HETATM    1  C7  UNL     1      22.234   3.285  50.533  1.00  0.00     0.075 C 
HETATM    2  C8  UNL     1      22.650   2.577  51.599  1.00  0.00     0.046 C 
HETATM    3  C9  UNL     1      22.350   1.164  51.866  1.00  0.00    -0.009 C 
HETATM    4  C10 UNL     1      22.769   0.354  52.802  1.00  0.00     0.145 C 
HETATM    5  C18 UNL     1      21.372   0.574  50.882  1.00  0.00     0.045 C 
HETATM    6  C19 UNL     1      21.825   1.103  49.529  1.00  0.00     0.043 C 
HETATM    7  C20 UNL     1      21.395   2.582  49.536  1.00  0.00     0.177 C 
ENDROOT
BRANCH   4   8
HETATM    8  N2  UNL     1      22.257  -1.000  52.751  1.00  0.00    -0.169 NA
BRANCH   8   9
HETATM    9  C11 UNL     1      21.893  -1.476  53.894  1.00  0.00     0.095 C 
BRANCH   9  10
HETATM   10  N3  UNL     1      21.306  -1.639  55.014  1.00  0.00    -0.241 NA
HETATM   11  H16 UNL     1      21.717  -1.279  55.900  1.00  0.00     0.199 HD
ENDBRANCH   9  10
ENDBRANCH   8   9
ENDBRANCH   4   8
BRANCH   4  12
HETATM   12  N4  UNL     1      23.651   0.477  53.945  1.00  0.00    -0.340 N 
HETATM   13  H17 UNL     1      23.210   0.408  54.910  1.00  0.00     0.167 HD
BRANCH  12  14
HETATM   14  C12 UNL     1      25.062   0.682  53.649  1.00  0.00     0.035 A 
HETATM   15  C13 UNL     1      25.663   1.918  53.577  1.00  0.00     0.032 A 
HETATM   16  C14 UNL     1      27.007   2.009  53.314  1.00  0.00     0.046 A 
HETATM   17  C15 UNL     1      27.702   0.825  53.134  1.00  0.00     0.138 A 
HETATM   18  F1  UNL     1      29.029   0.929  52.877  1.00  0.00    -0.204 F 
HETATM   19  C16 UNL     1      27.142  -0.436  53.198  1.00  0.00     0.074 A 
HETATM   20 CL1  UNL     1      28.167  -1.832  52.948  1.00  0.00    -0.081 Cl
HETATM   21  C17 UNL     1      25.767  -0.494  53.467  1.00  0.00     0.056 A 
ENDBRANCH  12  14
ENDBRANCH   4  12
BRANCH   1  22
HETATM   22  O1  UNL     1      22.607   4.658  50.407  1.00  0.00    -0.351 OA
BRANCH  22  23
HETATM   23  C6  UNL     1      23.542   5.178  51.288  1.00  0.00     0.195 C 
BRANCH  23  24
HETATM   24  C5  UNL     1      24.319   6.367  50.925  1.00  0.00     0.143 C 
BRANCH  24  25
HETATM   25  N1  UNL     1      25.501   6.281  50.182  1.00  0.00    -0.415 N 
HETATM   26  C4  UNL     1      26.143   7.590  49.997  1.00  0.00     0.143 C 
BRANCH  25  27
HETATM   27  C3  UNL     1      25.570   5.490  49.009  1.00  0.00     0.116 C 
BRANCH  27  28
HETATM   28  C2  UNL     1      26.824   4.618  49.064  1.00  0.00     0.015 C 
HETATM   29  C1  UNL     1      26.507   3.372  49.845  1.00  0.00     0.006 C 
ENDBRANCH  27  28
ENDBRANCH  25  27
ENDBRANCH  24  25
ENDBRANCH  23  24
ENDBRANCH  22  23
ENDBRANCH   1  22
BRANCH   7  30
HETATM   30  O2  UNL     1      21.577   3.143  48.304  1.00  0.00    -0.384 OA
HETATM   31  C21 UNL     1      22.362   2.432  47.433  1.00  0.00     0.202 C 
ENDBRANCH   7  30
TORSDOF 12
ENDMDL
MODEL 6
REMARK VINA RESULT:      -6.9      2.426      2.924
REMARK  12 active torsions:
REMARK  status: ('A' for Active; 'I' for Inactive)
REMARK    1  A    between atoms: C2_2  and  C3_3 
REMARK    2  A    between atoms: C3_3  and  N1_4 
REMARK    3  A    between atoms: N1_4  and  C5_6 
REMARK    4  A    between atoms: C5_6  and  C6_7 
REMARK    5  A    between atoms: C6_7  and  O1_8 
REMARK    6  A    between atoms: O1_8  and  C7_9 
REMARK    7  A    between atoms: C10_12  and  N2_13 
REMARK    8  A    between atoms: C10_12  and  N4_16 
REMARK    9  A    between atoms: N2_13  and  C11_14 
REMARK   10  A    between atoms: C11_14  and  N3_15 
REMARK   11  A    between atoms: N4_16  and  C12_17 
REMARK   12  A    between atoms: C20_27  and  O2_28 
ROOT
HETATM    1  C7  UNL     1      23.511   0.657  52.544  1.00  0.00     0.075 C 
HETATM    2  C8  UNL     1      23.472   1.341  51.386  1.00  0.00     0.046 C 
HETATM    3  C9  UNL     1      22.329   1.413  50.465  1.00  0.00    -0.009 C 
HETATM    4  C10 UNL     1      22.140   2.110  49.376  1.00  0.00     0.145 C 
HETATM    5  C18 UNL     1      21.196   0.500  50.861  1.00  0.00     0.045 C 
HETATM    6  C19 UNL     1      21.081   0.667  52.368  1.00  0.00     0.043 C 
HETATM    7  C20 UNL     1      22.296  -0.095  52.930  1.00  0.00     0.177 C 
ENDROOT
BRANCH   4   8
HETATM    8  N2  UNL     1      20.864   1.928  48.715  1.00  0.00    -0.169 NA
BRANCH   8   9
HETATM    9  C11 UNL     1      20.741   2.575  47.605  1.00  0.00     0.095 C 
BRANCH   9  10
HETATM   10  N3  UNL     1      20.374   3.417  46.721  1.00  0.00    -0.241 NA
HETATM   11  H16 UNL     1      20.033   4.365  46.983  1.00  0.00     0.199 HD
ENDBRANCH   9  10
ENDBRANCH   8   9
ENDBRANCH   4   8
BRANCH   4  12
HETATM   12  N4  UNL     1      22.930   3.056  48.614  1.00  0.00    -0.340 N 
HETATM   13  H17 UNL     1      23.130   2.817  47.598  1.00  0.00     0.167 HD
BRANCH  12  14
HETATM   14  C12 UNL     1      23.369   4.247  49.328  1.00  0.00     0.035 A 
HETATM   15  C13 UNL     1      24.687   4.547  49.590  1.00  0.00     0.032 A 
HETATM   16  C14 UNL     1      25.003   5.708  50.250  1.00  0.00     0.046 A 
HETATM   17  C15 UNL     1      23.957   6.534  50.624  1.00  0.00     0.138 A 
HETATM   18  F1  UNL     1      24.284   7.678  51.273  1.00  0.00    -0.204 F 
HETATM   19  C16 UNL     1      22.622   6.275  50.382  1.00  0.00     0.074 A 
HETATM   20 CL1  UNL     1      21.423   7.430  50.920  1.00  0.00    -0.081 Cl
HETATM   21  C17 UNL     1      22.333   5.080  49.706  1.00  0.00     0.056 A 
ENDBRANCH  12  14
ENDBRANCH   4  12
BRANCH   1  22
HETATM   22  O1  UNL     1      24.697   0.681  53.339  1.00  0.00    -0.351 OA
BRANCH  22  23
HETATM   23  C6  UNL     1      25.864   0.152  52.812  1.00  0.00     0.195 C 
BRANCH  23  24
HETATM   24  C5  UNL     1      27.080   0.969  52.741  1.00  0.00     0.143 C 
BRANCH  24  25
HETATM   25  N1  UNL     1      27.864   1.228  53.870  1.00  0.00    -0.415 N 
HETATM   26  C4  UNL     1      28.715   2.414  53.700  1.00  0.00     0.143 C 
BRANCH  25  27
HETATM   27  C3  UNL     1      28.544   0.184  54.543  1.00  0.00     0.116 C 
BRANCH  27  28
HETATM   28  C2  UNL     1      29.687  -0.322  53.663  1.00  0.00     0.015 C 
HETATM   29  C1  UNL     1      29.447  -1.774  53.354  1.00  0.00     0.006 C 
ENDBRANCH  27  28
ENDBRANCH  25  27
ENDBRANCH  24  25
ENDBRANCH  23  24
ENDBRANCH  22  23
ENDBRANCH   1  22
BRANCH   7  30
HETATM   30  O2  UNL     1      22.222  -0.186  54.291  1.00  0.00    -0.384 OA
HETATM   31  C21 UNL     1      21.918  -1.425  54.792  1.00  0.00     0.202 C 
ENDBRANCH   7  30
TORSDOF 12
ENDMDL
MODEL 7
REMARK VINA RESULT:      -6.8      1.527      1.906
REMARK  12 active torsions:
REMARK  status: ('A' for Active; 'I' for Inactive)
REMARK    1  A    between atoms: C2_2  and  C3_3 
REMARK    2  A    between atoms: C3_3  and  N1_4 
REMARK    3  A    between atoms: N1_4  and  C5_6 
REMARK    4  A    between atoms: C5_6  and  C6_7 
REMARK    5  A    between atoms: C6_7  and  O1_8 
REMARK    6  A    between atoms: O1_8  and  C7_9 
REMARK    7  A    between atoms: C10_12  and  N2_13 
REMARK    8  A    between atoms: C10_12  and  N4_16 
REMARK    9  A    between atoms: N2_13  and  C11_14 
REMARK   10  A    between atoms: C11_14  and  N3_15 
REMARK   11  A    between atoms: N4_16  and  C12_17 
REMARK   12  A    between atoms: C20_27  and  O2_28 
ROOT
HETATM    1  C7  UNL     1      23.281   0.496  52.702  1.00  0.00     0.075 C 
HETATM    2  C8  UNL     1      22.934   1.768  52.434  1.00  0.00     0.046 C 
HETATM    3  C9  UNL     1      21.562   2.272  52.277  1.00  0.00    -0.009 C 
HETATM    4  C10 UNL     1      21.101   3.484  52.112  1.00  0.00     0.145 C 
HETATM    5  C18 UNL     1      20.527   1.177  52.298  1.00  0.00     0.045 C 
HETATM    6  C19 UNL     1      20.967   0.257  53.426  1.00  0.00     0.043 C 
HETATM    7  C20 UNL     1      22.188  -0.490  52.854  1.00  0.00     0.177 C 
ENDROOT
BRANCH   4   8
HETATM    8  N2  UNL     1      19.663   3.609  51.997  1.00  0.00    -0.169 NA
BRANCH   8   9
HETATM    9  C11 UNL     1      19.266   4.270  50.961  1.00  0.00     0.095 C 
BRANCH   9  10
HETATM   10  N3  UNL     1      19.174   5.140  50.034  1.00  0.00    -0.241 NA
HETATM   11  H16 UNL     1      19.414   6.140  50.202  1.00  0.00     0.199 HD
ENDBRANCH   9  10
ENDBRANCH   8   9
ENDBRANCH   4   8
BRANCH   4  12
HETATM   12  N4  UNL     1      21.696   4.800  51.995  1.00  0.00    -0.340 N 
HETATM   13  H17 UNL     1      21.342   5.555  52.655  1.00  0.00     0.167 HD
BRANCH  12  14
HETATM   14  C12 UNL     1      22.726   4.951  50.977  1.00  0.00     0.035 A 
HETATM   15  C13 UNL     1      22.805   4.178  49.840  1.00  0.00     0.032 A 
HETATM   16  C14 UNL     1      23.801   4.412  48.926  1.00  0.00     0.046 A 
HETATM   17  C15 UNL     1      24.691   5.437  49.200  1.00  0.00     0.138 A 
HETATM   18  F1  UNL     1      25.669   5.659  48.288  1.00  0.00    -0.204 F 
HETATM   19  C16 UNL     1      24.650   6.238  50.325  1.00  0.00     0.074 A 
HETATM   20 CL1  UNL     1      25.853   7.493  50.517  1.00  0.00    -0.081 Cl
HETATM   21  C17 UNL     1      23.621   5.971  51.241  1.00  0.00     0.056 A 
ENDBRANCH  12  14
ENDBRANCH   4  12
BRANCH   1  22
HETATM   22  O1  UNL     1      24.662   0.153  52.828  1.00  0.00    -0.351 OA
BRANCH  22  23
HETATM   23  C6  UNL     1      25.527   1.070  53.404  1.00  0.00     0.195 C 
BRANCH  23  24
HETATM   24  C5  UNL     1      26.957   1.042  53.080  1.00  0.00     0.143 C 
BRANCH  24  25
HETATM   25  N1  UNL     1      27.938   1.324  54.036  1.00  0.00    -0.415 N 
HETATM   26  C4  UNL     1      28.787   2.458  53.648  1.00  0.00     0.143 C 
BRANCH  25  27
HETATM   27  C3  UNL     1      28.688   0.286  54.642  1.00  0.00     0.116 C 
BRANCH  27  28
HETATM   28  C2  UNL     1      29.718  -0.239  53.643  1.00  0.00     0.015 C 
HETATM   29  C1  UNL     1      29.403  -1.679  53.343  1.00  0.00     0.006 C 
ENDBRANCH  27  28
ENDBRANCH  25  27
ENDBRANCH  24  25
ENDBRANCH  23  24
ENDBRANCH  22  23
ENDBRANCH   1  22
BRANCH   7  30
HETATM   30  O2  UNL     1      22.581  -1.489  53.698  1.00  0.00    -0.384 OA
HETATM   31  C21 UNL     1      21.910  -1.562  54.892  1.00  0.00     0.202 C 
ENDBRANCH   7  30
TORSDOF 12
ENDMDL
MODEL 8
REMARK VINA RESULT:      -6.7      2.916      6.118
REMARK  12 active torsions:
REMARK  status: ('A' for Active; 'I' for Inactive)
REMARK    1  A    between atoms: C2_2  and  C3_3 
REMARK    2  A    between atoms: C3_3  and  N1_4 
REMARK    3  A    between atoms: N1_4  and  C5_6 
REMARK    4  A    between atoms: C5_6  and  C6_7 
REMARK    5  A    between atoms: C6_7  and  O1_8 
REMARK    6  A    between atoms: O1_8  and  C7_9 
REMARK    7  A    between atoms: C10_12  and  N2_13 
REMARK    8  A    between atoms: C10_12  and  N4_16 
REMARK    9  A    between atoms: N2_13  and  C11_14 
REMARK   10  A    between atoms: C11_14  and  N3_15 
REMARK   11  A    between atoms: N4_16  and  C12_17 
REMARK   12  A    between atoms: C20_27  and  O2_28 
ROOT
HETATM    1  C7  UNL     1      19.691   0.101  52.217  1.00  0.00     0.075 C 
HETATM    2  C8  UNL     1      21.003   0.390  52.140  1.00  0.00     0.046 C 
HETATM    3  C9  UNL     1      22.028   0.017  53.125  1.00  0.00    -0.009 C 
HETATM    4  C10 UNL     1      23.327   0.156  53.114  1.00  0.00     0.145 C 
HETATM    5  C18 UNL     1      21.450  -0.622  54.362  1.00  0.00     0.045 C 
HETATM    6  C19 UNL     1      20.390  -1.579  53.838  1.00  0.00     0.043 C 
HETATM    7  C20 UNL     1      19.232  -0.662  53.400  1.00  0.00     0.177 C 
ENDROOT
BRANCH   4   8
HETATM    8  N2  UNL     1      24.032  -0.343  54.277  1.00  0.00    -0.169 NA
BRANCH   8   9
HETATM    9  C11 UNL     1      25.277  -0.615  54.070  1.00  0.00     0.095 C 
BRANCH   9  10
HETATM   10  N3  UNL     1      26.351  -1.167  53.663  1.00  0.00    -0.241 NA
HETATM   11  H16 UNL     1      27.002  -0.677  53.016  1.00  0.00     0.199 HD
ENDBRANCH   9  10
ENDBRANCH   8   9
ENDBRANCH   4   8
BRANCH   4  12
HETATM   12  N4  UNL     1      24.290   0.724  52.192  1.00  0.00    -0.340 N 
HETATM   13  H17 UNL     1      24.992   0.060  51.750  1.00  0.00     0.167 HD
BRANCH  12  14
HETATM   14  C12 UNL     1      24.191   2.160  51.965  1.00  0.00     0.035 A 
HETATM   15  C13 UNL     1      23.553   3.032  52.817  1.00  0.00     0.032 A 
HETATM   16  C14 UNL     1      23.534   4.374  52.529  1.00  0.00     0.046 A 
HETATM   17  C15 UNL     1      24.173   4.787  51.372  1.00  0.00     0.138 A 
HETATM   18  F1  UNL     1      24.148   6.115  51.100  1.00  0.00    -0.204 F 
HETATM   19  C16 UNL     1      24.826   3.948  50.489  1.00  0.00     0.074 A 
HETATM   20 CL1  UNL     1      25.587   4.636  49.072  1.00  0.00    -0.081 Cl
HETATM   21  C17 UNL     1      24.826   2.583  50.812  1.00  0.00     0.056 A 
ENDBRANCH  12  14
ENDBRANCH   4  12
BRANCH   1  22
HETATM   22  O1  UNL     1      18.810   0.531  51.178  1.00  0.00    -0.351 OA
BRANCH  22  23
HETATM   23  C6  UNL     1      18.649   1.891  50.962  1.00  0.00     0.195 C 
BRANCH  23  24
HETATM   24  C5  UNL     1      18.911   2.464  49.638  1.00  0.00     0.143 C 
BRANCH  24  25
HETATM   25  N1  UNL     1      19.902   3.430  49.433  1.00  0.00    -0.415 N 
HETATM   26  C4  UNL     1      19.644   4.253  48.244  1.00  0.00     0.143 C 
BRANCH  25  27
HETATM   27  C3  UNL     1      21.275   3.107  49.564  1.00  0.00     0.116 C 
BRANCH  27  28
HETATM   28  C2  UNL     1      21.571   1.834  48.772  1.00  0.00     0.015 C 
HETATM   29  C1  UNL     1      22.579   2.158  47.704  1.00  0.00     0.006 C 
ENDBRANCH  27  28
ENDBRANCH  25  27
ENDBRANCH  24  25
ENDBRANCH  23  24
ENDBRANCH  22  23
ENDBRANCH   1  22
BRANCH   7  30
HETATM   30  O2  UNL     1      18.129  -1.399  53.074  1.00  0.00    -0.384 OA
HETATM   31  C21 UNL     1      17.986  -2.588  53.743  1.00  0.00     0.202 C 
ENDBRANCH   7  30
TORSDOF 12
ENDMDL
MODEL 9
REMARK VINA RESULT:      -6.6      3.073      5.693
REMARK  12 active torsions:
REMARK  status: ('A' for Active; 'I' for Inactive)
REMARK    1  A    between atoms: C2_2  and  C3_3 
REMARK    2  A    between atoms: C3_3  and  N1_4 
REMARK    3  A    between atoms: N1_4  and  C5_6 
REMARK    4  A    between atoms: C5_6  and  C6_7 
REMARK    5  A    between atoms: C6_7  and  O1_8 
REMARK    6  A    between atoms: O1_8  and  C7_9 
REMARK    7  A    between atoms: C10_12  and  N2_13 
REMARK    8  A    between atoms: C10_12  and  N4_16 
REMARK    9  A    between atoms: N2_13  and  C11_14 
REMARK   10  A    between atoms: C11_14  and  N3_15 
REMARK   11  A    between atoms: N4_16  and  C12_17 
REMARK   12  A    between atoms: C20_27  and  O2_28 
ROOT
HETATM    1  C7  UNL     1      24.304   1.541  52.518  1.00  0.00     0.075 C 
HETATM    2  C8  UNL     1      24.382   2.449  51.528  1.00  0.00     0.046 C 
HETATM    3  C9  UNL     1      25.612   2.891  50.857  1.00  0.00    -0.009 C 
HETATM    4  C10 UNL     1      25.802   3.683  49.834  1.00  0.00     0.145 C 
HETATM    5  C18 UNL     1      26.861   2.330  51.489  1.00  0.00     0.045 C 
HETATM    6  C19 UNL     1      26.525   0.873  51.770  1.00  0.00     0.043 C 
HETATM    7  C20 UNL     1      25.571   0.928  52.978  1.00  0.00     0.177 C 
ENDROOT
BRANCH   4   8
HETATM    8  N2  UNL     1      27.179   3.893  49.437  1.00  0.00    -0.169 NA
BRANCH   8   9
HETATM    9  C11 UNL     1      27.414   5.052  48.919  1.00  0.00     0.095 C 
BRANCH   9  10
HETATM   10  N3  UNL     1      27.825   6.245  48.741  1.00  0.00    -0.241 NA
HETATM   11  H16 UNL     1      27.458   7.036  49.310  1.00  0.00     0.199 HD
ENDBRANCH   9  10
ENDBRANCH   8   9
ENDBRANCH   4   8
BRANCH   4  12
HETATM   12  N4  UNL     1      24.940   4.455  48.962  1.00  0.00    -0.340 N 
HETATM   13  H17 UNL     1      25.040   4.297  47.916  1.00  0.00     0.167 HD
BRANCH  12  14
HETATM   14  C12 UNL     1      24.020   5.374  49.618  1.00  0.00     0.035 A 
HETATM   15  C13 UNL     1      24.418   6.450  50.378  1.00  0.00     0.032 A 
HETATM   16  C14 UNL     1      23.474   7.275  50.938  1.00  0.00     0.046 A 
HETATM   17  C15 UNL     1      22.143   6.974  50.700  1.00  0.00     0.138 A 
HETATM   18  F1  UNL     1      21.221   7.797  51.257  1.00  0.00    -0.204 F 
HETATM   19  C16 UNL     1      21.698   5.907  49.943  1.00  0.00     0.074 A 
HETATM   20 CL1  UNL     1      19.977   5.671  49.739  1.00  0.00    -0.081 Cl
HETATM   21  C17 UNL     1      22.688   5.083  49.387  1.00  0.00     0.056 A 
ENDBRANCH  12  14
ENDBRANCH   4  12
BRANCH   1  22
HETATM   22  O1  UNL     1      23.032   1.209  53.074  1.00  0.00    -0.351 OA
BRANCH  22  23
HETATM   23  C6  UNL     1      22.304   0.177  52.504  1.00  0.00     0.195 C 
BRANCH  23  24
HETATM   24  C5  UNL     1      21.216   0.471  51.565  1.00  0.00     0.143 C 
BRANCH  24  25
HETATM   25  N1  UNL     1      20.896   1.780  51.190  1.00  0.00    -0.415 N 
HETATM   26  C4  UNL     1      19.939   2.408  52.112  1.00  0.00     0.143 C 
BRANCH  25  27
HETATM   27  C3  UNL     1      20.619   2.107  49.840  1.00  0.00     0.116 C 
BRANCH  27  28
HETATM   28  C2  UNL     1      21.291   1.082  48.927  1.00  0.00     0.015 C 
HETATM   29  C1  UNL     1      22.238   1.806  48.010  1.00  0.00     0.006 C 
ENDBRANCH  27  28
ENDBRANCH  25  27
ENDBRANCH  24  25
ENDBRANCH  23  24
ENDBRANCH  22  23
ENDBRANCH   1  22
BRANCH   7  30
HETATM   30  O2  UNL     1      25.328  -0.327  53.459  1.00  0.00    -0.384 OA
HETATM   31  C21 UNL     1      26.191  -1.306  53.037  1.00  0.00     0.202 C 
ENDBRANCH   7  30
TORSDOF 12
ENDMDL
