MODEL 1
REMARK VINA RESULT:      -8.9      0.000      0.000
REMARK  3 active torsions:
REMARK  status: ('A' for Active; 'I' for Inactive)
REMARK    1  A    between atoms: N1_9  and  N2_10 
REMARK    2  A    between atoms: N2_10  and  C8_11 
REMARK    3  A    between atoms: C9_13  and  O1_14 
ROOT
HETATM    1  C1  UNL     1      21.964  -1.645  54.729  1.00  0.00     0.051 C 
HETATM    2  C2  UNL     1      22.910  -0.827  54.163  1.00  0.00    -0.023 C 
HETATM    3  C3  UNL     1      21.823  -0.416  53.205  1.00  0.00    -0.020 C 
HETATM    4  C4  UNL     1      22.051   0.436  52.260  1.00  0.00     0.012 C 
HETATM    5  C5  UNL     1      22.883   1.354  51.483  1.00  0.00    -0.002 A 
HETATM    6 BR1  UNL     1      22.475   2.487  49.965  1.00  0.00    -0.116 Br
HETATM    7  C6  UNL     1      23.826   2.084  50.975  1.00  0.00     0.141 A 
HETATM    8  C7  UNL     1      25.254   2.449  51.090  1.00  0.00     0.054 C 
HETATM    9  N1  UNL     1      25.067   3.230  50.087  1.00  0.00    -0.202 NA
HETATM   10  C11 UNL     1      26.631   2.488  51.588  1.00  0.00     0.072 C 
HETATM   11  C12 UNL     1      27.521   2.080  52.458  1.00  0.00    -0.014 C 
HETATM   12  C13 UNL     1      28.045   1.349  53.585  1.00  0.00     0.006 C 
HETATM   13  C14 UNL     1      27.542   0.511  54.426  1.00  0.00     0.064 C 
HETATM   14  C15 UNL     1      26.308  -0.055  54.624  1.00  0.00    -0.079 C 
HETATM   15  C16 UNL     1      25.290  -0.540  54.801  1.00  0.00    -0.101 C 
HETATM   16  C17 UNL     1      24.058  -1.149  55.028  1.00  0.00     0.103 C 
ENDROOT
BRANCH   9  17
HETATM   17  N2  UNL     1      26.012   4.001  49.535  1.00  0.00    -0.159 NA
HETATM   18  H6  UNL     1      25.132   4.551  49.779  1.00  0.00     0.157 HD
BRANCH  17  19
HETATM   19  C8  UNL     1      26.862   4.937  48.989  1.00  0.00     0.168 A 
HETATM   20  N3  UNL     1      27.996   4.628  48.719  1.00  0.00    -0.204 NA
HETATM   21  C9  UNL     1      28.866   5.461  48.205  1.00  0.00     0.170 A 
HETATM   22  C10 UNL     1      28.449   6.861  47.934  1.00  0.00     0.110 A 
HETATM   23  S1  UNL     1      26.632   6.760  48.538  1.00  0.00    -0.064 SA
BRANCH  21  24
HETATM   24  O1  UNL     1      30.175   5.566  47.761  1.00  0.00    -0.344 OA
HETATM   25  H7  UNL     1      30.949   5.794  48.383  1.00  0.00     0.219 HD
ENDBRANCH  21  24
ENDBRANCH  17  19
ENDBRANCH   9  17
TORSDOF 3
ENDMDL
MODEL 2
REMARK VINA RESULT:      -8.8      3.826      5.620
REMARK  3 active torsions:
REMARK  status: ('A' for Active; 'I' for Inactive)
REMARK    1  A    between atoms: N1_9  and  N2_10 
REMARK    2  A    between atoms: N2_10  and  C8_11 
REMARK    3  A    between atoms: C9_13  and  O1_14 
ROOT
HETATM    1  C1  UNL     1      17.444   0.840  49.962  1.00  0.00     0.051 C 
HETATM    2  C2  UNL     1      18.640   0.732  50.627  1.00  0.00    -0.023 C 
HETATM    3  C3  UNL     1      19.192   1.631  49.552  1.00  0.00    -0.020 C 
HETATM    4  C4  UNL     1      20.438   1.977  49.545  1.00  0.00     0.012 C 
HETATM    5  C5  UNL     1      21.807   1.990  50.059  1.00  0.00    -0.002 A 
HETATM    6 BR1  UNL     1      23.406   2.890  49.435  1.00  0.00    -0.116 Br
HETATM    7  C6  UNL     1      22.914   1.826  50.714  1.00  0.00     0.141 A 
HETATM    8  C7  UNL     1      23.531   1.156  51.878  1.00  0.00     0.054 C 
HETATM    9  N1  UNL     1      24.634   1.718  51.535  1.00  0.00    -0.202 NA
HETATM   10  C11 UNL     1      23.668   0.331  53.081  1.00  0.00     0.072 C 
HETATM   11  C12 UNL     1      23.113  -0.446  53.977  1.00  0.00    -0.014 C 
HETATM   12  C13 UNL     1      22.061  -1.181  54.635  1.00  0.00     0.006 C 
HETATM   13  C14 UNL     1      20.802  -1.346  54.410  1.00  0.00     0.064 C 
HETATM   14  C15 UNL     1      19.912  -0.911  53.462  1.00  0.00    -0.079 C 
HETATM   15  C16 UNL     1      19.159  -0.562  52.678  1.00  0.00    -0.101 C 
HETATM   16  C17 UNL     1      18.226  -0.156  51.728  1.00  0.00     0.103 C 
ENDROOT
BRANCH   9  17
HETATM   17  N2  UNL     1      25.796   1.579  52.185  1.00  0.00    -0.159 NA
HETATM   18  H6  UNL     1      25.338   0.641  51.968  1.00  0.00     0.157 HD
BRANCH  17  19
HETATM   19  C8  UNL     1      26.961   1.250  52.841  1.00  0.00     0.168 A 
HETATM   20  N3  UNL     1      27.646   2.122  53.314  1.00  0.00    -0.204 NA
HETATM   21  C9  UNL     1      28.771   1.891  53.945  1.00  0.00     0.170 A 
HETATM   22  C10 UNL     1      29.237   0.489  54.095  1.00  0.00     0.110 A 
HETATM   23  S1  UNL     1      27.806  -0.408  53.186  1.00  0.00    -0.064 SA
BRANCH  21  24
HETATM   24  O1  UNL     1      29.820   2.510  54.608  1.00  0.00    -0.344 OA
HETATM   25  H7  UNL     1      30.537   1.988  55.108  1.00  0.00     0.219 HD
ENDBRANCH  21  24
ENDBRANCH  17  19
ENDBRANCH   9  17
TORSDOF 3
ENDMDL
MODEL 3
REMARK VINA RESULT:      -8.8      4.397      6.100
REMARK  3 active torsions:
REMARK  status: ('A' for Active; 'I' for Inactive)
REMARK    1  A    between atoms: N1_9  and  N2_10 
REMARK    2  A    between atoms: N2_10  and  C8_11 
REMARK    3  A    between atoms: C9_13  and  O1_14 
ROOT
HETATM    1  C1  UNL     1      17.520  -0.093  51.879  1.00  0.00     0.051 C 
HETATM    2  C2  UNL     1      18.876   0.115  51.925  1.00  0.00    -0.023 C 
HETATM    3  C3  UNL     1      18.866  -0.811  53.113  1.00  0.00    -0.020 C 
HETATM    4  C4  UNL     1      19.954  -1.091  53.752  1.00  0.00     0.012 C 
HETATM    5  C5  UNL     1      21.390  -1.002  54.015  1.00  0.00    -0.002 A 
HETATM    6 BR1  UNL     1      22.506  -1.849  55.354  1.00  0.00    -0.116 Br
HETATM    7  C6  UNL     1      22.661  -0.745  54.026  1.00  0.00     0.141 A 
HETATM    8  C7  UNL     1      23.735   0.021  53.357  1.00  0.00     0.054 C 
HETATM    9  N1  UNL     1      24.545  -0.501  54.207  1.00  0.00    -0.202 NA
HETATM   10  C11 UNL     1      24.407   0.916  52.412  1.00  0.00     0.072 C 
HETATM   11  C12 UNL     1      24.332   1.710  51.374  1.00  0.00    -0.014 C 
HETATM   12  C13 UNL     1      23.714   2.423  50.283  1.00  0.00     0.006 C 
HETATM   13  C14 UNL     1      22.509   2.509  49.833  1.00  0.00     0.064 C 
HETATM   14  C15 UNL     1      21.294   1.975  50.180  1.00  0.00    -0.079 C 
HETATM   15  C16 UNL     1      20.274   1.545  50.458  1.00  0.00    -0.101 C 
HETATM   16  C17 UNL     1      19.019   1.038  50.786  1.00  0.00     0.103 C 
ENDROOT
BRANCH   9  17
HETATM   17  N2  UNL     1      25.862  -0.264  54.250  1.00  0.00    -0.159 NA
HETATM   18  H6  UNL     1      25.459  -0.133  53.272  1.00  0.00     0.157 HD
BRANCH  17  19
HETATM   19  C8  UNL     1      27.203   0.018  54.110  1.00  0.00     0.168 A 
HETATM   20  N3  UNL     1      27.637   1.067  54.516  1.00  0.00    -0.204 NA
HETATM   21  C9  UNL     1      28.897   1.411  54.415  1.00  0.00     0.170 A 
HETATM   22  C10 UNL     1      29.850   0.473  53.770  1.00  0.00     0.110 A 
HETATM   23  S1  UNL     1      28.638  -0.952  53.348  1.00  0.00    -0.064 SA
BRANCH  21  24
HETATM   24  O1  UNL     1      29.798   2.424  54.705  1.00  0.00    -0.344 OA
HETATM   25  H7  UNL     1      30.237   2.992  53.983  1.00  0.00     0.219 HD
ENDBRANCH  21  24
ENDBRANCH  17  19
ENDBRANCH   9  17
TORSDOF 3
ENDMDL
MODEL 4
REMARK VINA RESULT:      -8.6      1.936      3.816
REMARK  3 active torsions:
REMARK  status: ('A' for Active; 'I' for Inactive)
REMARK    1  A    between atoms: N1_9  and  N2_10 
REMARK    2  A    between atoms: N2_10  and  C8_11 
REMARK    3  A    between atoms: C9_13  and  O1_14 
ROOT
HETATM    1  C1  UNL     1      22.015  -1.286  53.896  1.00  0.00     0.051 C 
HETATM    2  C2  UNL     1      22.529  -0.397  52.985  1.00  0.00    -0.023 C 
HETATM    3  C3  UNL     1      23.807  -0.497  53.775  1.00  0.00    -0.020 C 
HETATM    4  C4  UNL     1      24.854   0.186  53.442  1.00  0.00     0.012 C 
HETATM    5  C5  UNL     1      25.604   1.135  52.621  1.00  0.00    -0.002 A 
HETATM    6 BR1  UNL     1      27.435   1.761  52.728  1.00  0.00    -0.116 Br
HETATM    7  C6  UNL     1      26.023   1.997  51.748  1.00  0.00     0.141 A 
HETATM    8  C7  UNL     1      25.632   2.793  50.565  1.00  0.00     0.054 C 
HETATM    9  N1  UNL     1      26.831   3.256  50.563  1.00  0.00    -0.202 NA
HETATM   10  C11 UNL     1      24.814   3.337  49.478  1.00  0.00     0.072 C 
HETATM   11  C12 UNL     1      23.668   3.369  48.846  1.00  0.00    -0.014 C 
HETATM   12  C13 UNL     1      22.297   3.030  48.555  1.00  0.00     0.006 C 
HETATM   13  C14 UNL     1      21.433   2.238  49.091  1.00  0.00     0.064 C 
HETATM   14  C15 UNL     1      21.424   1.379  50.160  1.00  0.00    -0.079 C 
HETATM   15  C16 UNL     1      21.397   0.664  51.051  1.00  0.00    -0.101 C 
HETATM   16  C17 UNL     1      21.340  -0.206  52.136  1.00  0.00     0.103 C 
ENDROOT
BRANCH   9  17
HETATM   17  N2  UNL     1      27.304   4.143  49.679  1.00  0.00    -0.159 NA
HETATM   18  H6  UNL     1      27.023   4.600  50.599  1.00  0.00     0.157 HD
BRANCH  17  19
HETATM   19  C8  UNL     1      27.763   5.185  48.903  1.00  0.00     0.168 A 
HETATM   20  N3  UNL     1      28.898   5.172  48.498  1.00  0.00    -0.204 NA
HETATM   21  C9  UNL     1      29.410   6.128  47.763  1.00  0.00     0.170 A 
HETATM   22  C10 UNL     1      28.561   7.291  47.399  1.00  0.00     0.110 A 
HETATM   23  S1  UNL     1      26.940   6.773  48.285  1.00  0.00    -0.064 SA
BRANCH  21  24
HETATM   24  O1  UNL     1      30.567   6.530  47.112  1.00  0.00    -0.344 OA
HETATM   25  H7  UNL     1      30.752   7.502  46.873  1.00  0.00     0.219 HD
ENDBRANCH  21  24
ENDBRANCH  17  19
ENDBRANCH   9  17
TORSDOF 3
ENDMDL
MODEL 5
REMARK VINA RESULT:      -8.2      4.202      6.678
REMARK  3 active torsions:
REMARK  status: ('A' for Active; 'I' for Inactive)
REMARK    1  A    between atoms: N1_9  and  N2_10 
REMARK    2  A    between atoms: N2_10  and  C8_11 
REMARK    3  A    between atoms: C9_13  and  O1_14 
ROOT
HETATM    1  C1  UNL     1      19.991   5.703  49.555  1.00  0.00     0.051 C 
HETATM    2  C2  UNL     1      21.140   5.014  49.855  1.00  0.00    -0.023 C 
HETATM    3  C3  UNL     1      20.267   4.167  50.744  1.00  0.00    -0.020 C 
HETATM    4  C4  UNL     1      20.764   3.199  51.443  1.00  0.00     0.012 C 
HETATM    5  C5  UNL     1      21.845   2.343  51.930  1.00  0.00    -0.002 A 
HETATM    6 BR1  UNL     1      21.841   0.838  53.151  1.00  0.00    -0.116 Br
HETATM    7  C6  UNL     1      22.966   1.749  52.196  1.00  0.00     0.141 A 
HETATM    8  C7  UNL     1      24.418   1.749  51.918  1.00  0.00     0.054 C 
HETATM    9  N1  UNL     1      24.503   0.743  52.713  1.00  0.00    -0.202 NA
HETATM   10  C11 UNL     1      25.714   2.132  51.351  1.00  0.00     0.072 C 
HETATM   11  C12 UNL     1      26.403   2.912  50.557  1.00  0.00    -0.014 C 
HETATM   12  C13 UNL     1      26.643   3.974  49.612  1.00  0.00     0.006 C 
HETATM   13  C14 UNL     1      25.893   4.843  49.026  1.00  0.00     0.064 C 
HETATM   14  C15 UNL     1      24.556   5.147  49.036  1.00  0.00    -0.079 C 
HETATM   15  C16 UNL     1      23.446   5.418  49.038  1.00  0.00    -0.101 C 
HETATM   16  C17 UNL     1      22.099   5.770  49.031  1.00  0.00     0.103 C 
ENDROOT
BRANCH   9  17
HETATM   17  N2  UNL     1      25.639   0.101  53.011  1.00  0.00    -0.159 NA
HETATM   18  H6  UNL     1      25.691   0.598  52.070  1.00  0.00     0.157 HD
BRANCH  17  19
HETATM   19  C8  UNL     1      26.873  -0.494  53.155  1.00  0.00     0.168 A 
HETATM   20  N3  UNL     1      26.971  -1.693  53.069  1.00  0.00    -0.204 NA
HETATM   21  C9  UNL     1      28.107  -2.333  53.200  1.00  0.00     0.170 A 
HETATM   22  C10 UNL     1      29.344  -1.557  53.467  1.00  0.00     0.110 A 
HETATM   23  S1  UNL     1      28.596   0.209  53.495  1.00  0.00    -0.064 SA
BRANCH  21  24
HETATM   24  O1  UNL     1      28.677  -3.597  53.186  1.00  0.00    -0.344 OA
HETATM   25  H7  UNL     1      29.479  -3.843  53.763  1.00  0.00     0.219 HD
ENDBRANCH  21  24
ENDBRANCH  17  19
ENDBRANCH   9  17
TORSDOF 3
ENDMDL
MODEL 6
REMARK VINA RESULT:      -8.2      3.762      5.512
REMARK  3 active torsions:
REMARK  status: ('A' for Active; 'I' for Inactive)
REMARK    1  A    between atoms: N1_9  and  N2_10 
REMARK    2  A    between atoms: N2_10  and  C8_11 
REMARK    3  A    between atoms: C9_13  and  O1_14 
ROOT
HETATM    1  C1  UNL     1      27.641   0.242  54.697  1.00  0.00     0.051 C 
HETATM    2  C2  UNL     1      26.606   0.516  53.839  1.00  0.00    -0.023 C 
HETATM    3  C3  UNL     1      27.564   1.461  53.162  1.00  0.00    -0.020 C 
HETATM    4  C4  UNL     1      27.199   2.166  52.141  1.00  0.00     0.012 C 
HETATM    5  C5  UNL     1      26.249   2.635  51.133  1.00  0.00    -0.002 A 
HETATM    6 BR1  UNL     1      26.442   3.897  49.674  1.00  0.00    -0.116 Br
HETATM    7  C6  UNL     1      25.227   2.874  50.372  1.00  0.00     0.141 A 
HETATM    8  C7  UNL     1      23.806   2.541  50.133  1.00  0.00     0.054 C 
HETATM    9  N1  UNL     1      23.850   3.359  49.144  1.00  0.00    -0.202 NA
HETATM   10  C11 UNL     1      22.492   1.914  50.291  1.00  0.00     0.072 C 
HETATM   11  C12 UNL     1      21.720   1.074  50.934  1.00  0.00    -0.014 C 
HETATM   12  C13 UNL     1      21.354   0.092  51.924  1.00  0.00     0.006 C 
HETATM   13  C14 UNL     1      21.980  -0.489  52.889  1.00  0.00     0.064 C 
HETATM   14  C15 UNL     1      23.250  -0.435  53.405  1.00  0.00    -0.079 C 
HETATM   15  C16 UNL     1      24.301  -0.399  53.850  1.00  0.00    -0.101 C 
HETATM   16  C17 UNL     1      25.574  -0.364  54.414  1.00  0.00     0.103 C 
ENDROOT
BRANCH   9  17
HETATM   17  N2  UNL     1      22.819   3.632  48.333  1.00  0.00    -0.159 NA
HETATM   18  H6  UNL     1      23.668   3.267  47.801  1.00  0.00     0.157 HD
BRANCH  17  19
HETATM   19  C8  UNL     1      21.871   3.853  47.360  1.00  0.00     0.168 A 
HETATM   20  N3  UNL     1      22.113   3.565  46.214  1.00  0.00    -0.204 NA
HETATM   21  C9  UNL     1      21.267   3.751  45.231  1.00  0.00     0.170 A 
HETATM   22  C10 UNL     1      19.938   4.343  45.528  1.00  0.00     0.110 A 
HETATM   23  S1  UNL     1      20.124   4.578  47.422  1.00  0.00    -0.064 SA
BRANCH  21  24
HETATM   24  O1  UNL     1      21.103   3.595  43.863  1.00  0.00    -0.344 OA
HETATM   25  H7  UNL     1      21.687   4.075  43.182  1.00  0.00     0.219 HD
ENDBRANCH  21  24
ENDBRANCH  17  19
ENDBRANCH   9  17
TORSDOF 3
ENDMDL
MODEL 7
REMARK VINA RESULT:      -8.2      5.210      7.919
REMARK  3 active torsions:
REMARK  status: ('A' for Active; 'I' for Inactive)
REMARK    1  A    between atoms: N1_9  and  N2_10 
REMARK    2  A    between atoms: N2_10  and  C8_11 
REMARK    3  A    between atoms: C9_13  and  O1_14 
ROOT
HETATM    1  C1  UNL     1      28.328   2.013  53.119  1.00  0.00     0.051 C 
HETATM    2  C2  UNL     1      27.056   1.500  53.163  1.00  0.00    -0.023 C 
HETATM    3  C3  UNL     1      26.801   2.324  51.928  1.00  0.00    -0.020 C 
HETATM    4  C4  UNL     1      25.640   2.334  51.358  1.00  0.00     0.012 C 
HETATM    5  C5  UNL     1      24.237   1.947  51.215  1.00  0.00    -0.002 A 
HETATM    6 BR1  UNL     1      22.901   2.421  49.894  1.00  0.00    -0.116 Br
HETATM    7  C6  UNL     1      23.044   1.452  51.325  1.00  0.00     0.141 A 
HETATM    8  C7  UNL     1      22.181   0.571  52.142  1.00  0.00     0.054 C 
HETATM    9  N1  UNL     1      21.239   0.831  51.308  1.00  0.00    -0.202 NA
HETATM   10  C11 UNL     1      21.758  -0.342  53.206  1.00  0.00     0.072 C 
HETATM   11  C12 UNL     1      22.058  -1.029  54.280  1.00  0.00    -0.014 C 
HETATM   12  C13 UNL     1      22.882  -1.539  55.348  1.00  0.00     0.006 C 
HETATM   13  C14 UNL     1      24.115  -1.377  55.689  1.00  0.00     0.064 C 
HETATM   14  C15 UNL     1      25.178  -0.660  55.204  1.00  0.00    -0.079 C 
HETATM   15  C16 UNL     1      26.073  -0.065  54.817  1.00  0.00    -0.101 C 
HETATM   16  C17 UNL     1      27.174   0.659  54.366  1.00  0.00     0.103 C 
ENDROOT
BRANCH   9  17
HETATM   17  N2  UNL     1      19.996   0.339  51.384  1.00  0.00    -0.159 NA
HETATM   18  H6  UNL     1      20.025   1.297  50.917  1.00  0.00     0.157 HD
BRANCH  17  19
HETATM   19  C8  UNL     1      18.664  -0.009  51.374  1.00  0.00     0.168 A 
HETATM   20  N3  UNL     1      18.193  -0.595  52.317  1.00  0.00    -0.204 NA
HETATM   21  C9  UNL     1      16.938  -0.966  52.380  1.00  0.00     0.170 A 
HETATM   22  C10 UNL     1      16.038  -0.656  51.240  1.00  0.00     0.110 A 
HETATM   23  S1  UNL     1      17.290   0.239  50.096  1.00  0.00    -0.064 SA
BRANCH  21  24
HETATM   24  O1  UNL     1      16.009  -1.609  53.184  1.00  0.00    -0.344 OA
HETATM   25  H7  UNL     1      15.270  -2.199  52.805  1.00  0.00     0.219 HD
ENDBRANCH  21  24
ENDBRANCH  17  19
ENDBRANCH   9  17
TORSDOF 3
ENDMDL
MODEL 8
REMARK VINA RESULT:      -8.0      5.319      7.900
REMARK  3 active torsions:
REMARK  status: ('A' for Active; 'I' for Inactive)
REMARK    1  A    between atoms: N1_9  and  N2_10 
REMARK    2  A    between atoms: N2_10  and  C8_11 
REMARK    3  A    between atoms: C9_13  and  O1_14 
ROOT
HETATM    1  C1  UNL     1      28.507   1.054  53.974  1.00  0.00     0.051 C 
HETATM    2  C2  UNL     1      27.255   1.155  53.420  1.00  0.00    -0.023 C 
HETATM    3  C3  UNL     1      26.825   0.189  54.493  1.00  0.00    -0.020 C 
HETATM    4  C4  UNL     1      25.602  -0.223  54.569  1.00  0.00     0.012 C 
HETATM    5  C5  UNL     1      24.205  -0.297  54.143  1.00  0.00    -0.002 A 
HETATM    6 BR1  UNL     1      22.691  -1.269  54.863  1.00  0.00    -0.116 Br
HETATM    7  C6  UNL     1      23.052  -0.183  53.560  1.00  0.00     0.141 A 
HETATM    8  C7  UNL     1      22.334   0.460  52.438  1.00  0.00     0.054 C 
HETATM    9  N1  UNL     1      21.280  -0.147  52.853  1.00  0.00    -0.202 NA
HETATM   10  C11 UNL     1      22.082   1.289  51.257  1.00  0.00     0.072 C 
HETATM   11  C12 UNL     1      22.534   2.124  50.356  1.00  0.00    -0.014 C 
HETATM   12  C13 UNL     1      23.496   2.952  49.670  1.00  0.00     0.006 C 
HETATM   13  C14 UNL     1      24.748   3.204  49.839  1.00  0.00     0.064 C 
HETATM   14  C15 UNL     1      25.716   2.807  50.727  1.00  0.00    -0.079 C 
HETATM   15  C16 UNL     1      26.535   2.482  51.453  1.00  0.00    -0.101 C 
HETATM   16  C17 UNL     1      27.550   2.093  52.323  1.00  0.00     0.103 C 
ENDROOT
BRANCH   9  17
HETATM   17  N2  UNL     1      20.073  -0.053  52.283  1.00  0.00    -0.159 NA
HETATM   18  H6  UNL     1      20.289  -1.043  52.613  1.00  0.00     0.157 HD
BRANCH  17  19
HETATM   19  C8  UNL     1      18.812  -0.141  51.734  1.00  0.00     0.168 A 
HETATM   20  N3  UNL     1      18.611   0.296  50.629  1.00  0.00    -0.204 NA
HETATM   21  C9  UNL     1      17.440   0.258  50.042  1.00  0.00     0.170 A 
HETATM   22  C10 UNL     1      16.294  -0.354  50.761  1.00  0.00     0.110 A 
HETATM   23  S1  UNL     1      17.183  -0.846  52.388  1.00  0.00    -0.064 SA
BRANCH  21  24
HETATM   24  O1  UNL     1      16.770   0.601  48.878  1.00  0.00    -0.344 OA
HETATM   25  H7  UNL     1      16.874   0.079  48.009  1.00  0.00     0.219 HD
ENDBRANCH  21  24
ENDBRANCH  17  19
ENDBRANCH   9  17
TORSDOF 3
ENDMDL
MODEL 9
REMARK VINA RESULT:      -7.9      4.873      7.144
REMARK  3 active torsions:
REMARK  status: ('A' for Active; 'I' for Inactive)
REMARK    1  A    between atoms: N1_9  and  N2_10 
REMARK    2  A    between atoms: N2_10  and  C8_11 
REMARK    3  A    between atoms: C9_13  and  O1_14 
ROOT
HETATM    1  C1  UNL     1      27.830  -0.136  53.072  1.00  0.00     0.051 C 
HETATM    2  C2  UNL     1      26.491   0.164  53.009  1.00  0.00    -0.023 C 
HETATM    3  C3  UNL     1      26.878   1.167  51.955  1.00  0.00    -0.020 C 
HETATM    4  C4  UNL     1      25.992   1.921  51.391  1.00  0.00     0.012 C 
HETATM    5  C5  UNL     1      24.637   2.424  51.169  1.00  0.00    -0.002 A 
HETATM    6 BR1  UNL     1      23.949   3.771  49.957  1.00  0.00    -0.116 Br
HETATM    7  C6  UNL     1      23.366   2.683  51.175  1.00  0.00     0.141 A 
HETATM    8  C7  UNL     1      22.074   2.331  51.802  1.00  0.00     0.054 C 
HETATM    9  N1  UNL     1      21.537   3.205  51.029  1.00  0.00    -0.202 NA
HETATM   10  C11 UNL     1      21.098   1.666  52.669  1.00  0.00     0.072 C 
HETATM   11  C12 UNL     1      20.843   0.773  53.592  1.00  0.00    -0.014 C 
HETATM   12  C13 UNL     1      21.118  -0.272  54.546  1.00  0.00     0.006 C 
HETATM   13  C14 UNL     1      22.185  -0.892  54.919  1.00  0.00     0.064 C 
HETATM   14  C15 UNL     1      23.514  -0.839  54.586  1.00  0.00    -0.079 C 
HETATM   15  C16 UNL     1      24.626  -0.804  54.326  1.00  0.00    -0.101 C 
HETATM   16  C17 UNL     1      25.986  -0.772  54.029  1.00  0.00     0.103 C 
ENDROOT
BRANCH   9  17
HETATM   17  N2  UNL     1      20.231   3.499  51.002  1.00  0.00    -0.159 NA
HETATM   18  H6  UNL     1      20.431   2.513  50.652  1.00  0.00     0.157 HD
BRANCH  17  19
HETATM   19  C8  UNL     1      18.863   3.627  50.909  1.00  0.00     0.168 A 
HETATM   20  N3  UNL     1      18.212   3.816  51.906  1.00  0.00    -0.204 NA
HETATM   21  C9  UNL     1      16.908   3.941  51.901  1.00  0.00     0.170 A 
HETATM   22  C10 UNL     1      16.180   3.848  50.609  1.00  0.00     0.110 A 
HETATM   23  S1  UNL     1      17.672   3.556  49.440  1.00  0.00    -0.064 SA
BRANCH  21  24
HETATM   24  O1  UNL     1      15.809   4.150  52.720  1.00  0.00    -0.344 OA
HETATM   25  H7  UNL     1      15.676   5.009  53.251  1.00  0.00     0.219 HD
ENDBRANCH  21  24
ENDBRANCH  17  19
ENDBRANCH   9  17
TORSDOF 3
ENDMDL
