MODEL 1
REMARK VINA RESULT:      -8.8      0.000      0.000
REMARK  0 active torsions:
REMARK  status: ('A' for Active; 'I' for Inactive)
ROOT
HETATM    1  C1  UNL     1      21.111   1.410  51.681  1.00  0.00     0.045 C 
HETATM    2  C2  UNL     1      22.542   1.294  51.928  1.00  0.00    -0.065 C 
HETATM    3  C3  UNL     1      23.097   2.096  51.058  1.00  0.00     0.049 C 
HETATM    4  C4  UNL     1      23.996   2.869  50.245  1.00  0.00    -0.019 C 
HETATM    5  C5  UNL     1      25.206   3.228  49.908  1.00  0.00    -0.011 C 
HETATM    6  C6  UNL     1      26.549   2.885  50.346  1.00  0.00     0.147 C 
HETATM    7  N1  UNL     1      26.701   1.903  51.369  1.00  0.00    -0.386 N 
HETATM    8  C7  UNL     1      26.713   1.225  52.595  1.00  0.00     0.044 A 
HETATM    9  C8  UNL     1      27.986   1.036  53.146  1.00  0.00     0.049 A 
HETATM   10  C9  UNL     1      28.291   0.404  54.355  1.00  0.00     0.122 A 
HETATM   11  N2  UNL     1      27.235  -0.055  55.026  1.00  0.00    -0.236 NA
HETATM   12  C10 UNL     1      25.985   0.090  54.557  1.00  0.00     0.181 A 
HETATM   13  O1  UNL     1      25.154  -0.442  55.401  1.00  0.00    -0.303 OA
HETATM   14  C11 UNL     1      24.406  -1.446  55.030  1.00  0.00     0.144 C 
HETATM   15  C12 UNL     1      23.068  -1.574  55.305  1.00  0.00     0.025 C 
HETATM   16  C13 UNL     1      22.114  -0.640  54.995  1.00  0.00     0.003 C 
HETATM   17  C14 UNL     1      22.222  -0.358  53.666  1.00  0.00     0.012 C 
HETATM   18  C15 UNL     1      23.086   0.454  53.028  1.00  0.00    -0.033 C 
HETATM   19  C16 UNL     1      24.400   0.677  53.224  1.00  0.00     0.029 C 
HETATM   20  C17 UNL     1      25.741   0.720  53.363  1.00  0.00     0.044 A 
HETATM   21  H9  UNL     1      27.040   1.035  50.830  1.00  0.00     0.160 HD
ENDROOT
TORSDOF 0
ENDMDL
MODEL 2
REMARK VINA RESULT:      -8.7      1.718      4.309
REMARK  0 active torsions:
REMARK  status: ('A' for Active; 'I' for Inactive)
ROOT
HETATM    1  C1  UNL     1      25.927   3.358  50.266  1.00  0.00     0.045 C 
HETATM    2  C2  UNL     1      25.658   2.352  51.286  1.00  0.00    -0.065 C 
HETATM    3  C3  UNL     1      26.781   2.236  51.944  1.00  0.00     0.049 C 
HETATM    4  C4  UNL     1      27.841   1.876  52.846  1.00  0.00    -0.019 C 
HETATM    5  C5  UNL     1      28.299   1.167  53.843  1.00  0.00    -0.011 C 
HETATM    6  C6  UNL     1      27.762   0.130  54.710  1.00  0.00     0.147 C 
HETATM    7  N1  UNL     1      26.428  -0.321  54.486  1.00  0.00    -0.386 N 
HETATM    8  C7  UNL     1      25.033  -0.417  54.414  1.00  0.00     0.044 A 
HETATM    9  C8  UNL     1      24.456  -1.271  55.361  1.00  0.00     0.049 A 
HETATM   10  C9  UNL     1      23.095  -1.547  55.523  1.00  0.00     0.122 A 
HETATM   11  N2  UNL     1      22.292  -0.914  54.668  1.00  0.00    -0.236 NA
HETATM   12  C10 UNL     1      22.777  -0.081  53.733  1.00  0.00     0.181 A 
HETATM   13  O1  UNL     1      21.787   0.398  53.041  1.00  0.00    -0.303 OA
HETATM   14  C11 UNL     1      21.713   0.157  51.760  1.00  0.00     0.144 C 
HETATM   15  C12 UNL     1      21.407   1.090  50.802  1.00  0.00     0.025 C 
HETATM   16  C13 UNL     1      22.068   2.277  50.627  1.00  0.00     0.003 C 
HETATM   17  C14 UNL     1      23.397   2.001  50.502  1.00  0.00     0.012 C 
HETATM   18  C15 UNL     1      24.313   1.742  51.454  1.00  0.00    -0.033 C 
HETATM   19  C16 UNL     1      24.228   1.026  52.592  1.00  0.00     0.029 C 
HETATM   20  C17 UNL     1      24.123   0.156  53.617  1.00  0.00     0.044 A 
HETATM   21  H9  UNL     1      26.567  -1.281  54.020  1.00  0.00     0.160 HD
ENDROOT
TORSDOF 0
ENDMDL
MODEL 3
REMARK VINA RESULT:      -8.7      1.595      4.205
REMARK  0 active torsions:
REMARK  status: ('A' for Active; 'I' for Inactive)
ROOT
HETATM    1  C1  UNL     1      26.521   3.092  50.221  1.00  0.00     0.045 C 
HETATM    2  C2  UNL     1      25.570   2.406  51.086  1.00  0.00    -0.065 C 
HETATM    3  C3  UNL     1      24.406   2.600  50.523  1.00  0.00     0.049 C 
HETATM    4  C4  UNL     1      23.014   2.631  50.168  1.00  0.00    -0.019 C 
HETATM    5  C5  UNL     1      21.768   2.321  50.409  1.00  0.00    -0.011 C 
HETATM    6  C6  UNL     1      21.064   1.599  51.457  1.00  0.00     0.147 C 
HETATM    7  N1  UNL     1      21.816   1.091  52.557  1.00  0.00    -0.386 N 
HETATM    8  C7  UNL     1      22.676   0.340  53.368  1.00  0.00     0.044 A 
HETATM    9  C8  UNL     1      22.032  -0.512  54.272  1.00  0.00     0.049 A 
HETATM   10  C9  UNL     1      22.638  -1.375  55.189  1.00  0.00     0.122 A 
HETATM   11  N2  UNL     1      23.971  -1.359  55.174  1.00  0.00    -0.236 NA
HETATM   12  C10 UNL     1      24.655  -0.566  54.333  1.00  0.00     0.181 A 
HETATM   13  O1  UNL     1      25.927  -0.747  54.525  1.00  0.00    -0.303 OA
HETATM   14  C11 UNL     1      26.671   0.249  54.925  1.00  0.00     0.144 C 
HETATM   15  C12 UNL     1      27.904   0.565  54.412  1.00  0.00     0.025 C 
HETATM   16  C13 UNL     1      28.164   0.793  53.086  1.00  0.00     0.003 C 
HETATM   17  C14 UNL     1      27.294   1.748  52.649  1.00  0.00     0.012 C 
HETATM   18  C15 UNL     1      26.006   1.631  52.277  1.00  0.00    -0.033 C 
HETATM   19  C16 UNL     1      25.002   0.891  52.787  1.00  0.00     0.029 C 
HETATM   20  C17 UNL     1      24.010   0.264  53.451  1.00  0.00     0.044 A 
HETATM   21  H9  UNL     1      21.577   1.771  53.355  1.00  0.00     0.160 HD
ENDROOT
TORSDOF 0
ENDMDL
MODEL 4
REMARK VINA RESULT:      -8.7      2.462      4.497
REMARK  0 active torsions:
REMARK  status: ('A' for Active; 'I' for Inactive)
ROOT
HETATM    1  C1  UNL     1      26.078  -0.914  53.026  1.00  0.00     0.045 C 
HETATM    2  C2  UNL     1      25.182   0.199  52.742  1.00  0.00    -0.065 C 
HETATM    3  C3  UNL     1      25.885   1.011  51.997  1.00  0.00     0.049 C 
HETATM    4  C4  UNL     1      26.373   2.092  51.184  1.00  0.00    -0.019 C 
HETATM    5  C5  UNL     1      26.204   3.251  50.606  1.00  0.00    -0.011 C 
HETATM    6  C6  UNL     1      25.124   4.221  50.526  1.00  0.00     0.147 C 
HETATM    7  N1  UNL     1      23.920   3.960  51.244  1.00  0.00    -0.386 N 
HETATM    8  C7  UNL     1      22.692   3.438  51.669  1.00  0.00     0.044 A 
HETATM    9  C8  UNL     1      21.591   4.272  51.440  1.00  0.00     0.049 A 
HETATM   10  C9  UNL     1      20.256   4.005  51.753  1.00  0.00     0.122 A 
HETATM   11  N2  UNL     1      20.045   2.821  52.330  1.00  0.00    -0.236 NA
HETATM   12  C10 UNL     1      21.054   1.971  52.580  1.00  0.00     0.181 A 
HETATM   13  O1  UNL     1      20.574   0.902  53.142  1.00  0.00    -0.303 OA
HETATM   14  C11 UNL     1      20.953   0.576  54.347  1.00  0.00     0.144 C 
HETATM   15  C12 UNL     1      21.298  -0.691  54.747  1.00  0.00     0.025 C 
HETATM   16  C13 UNL     1      22.253  -1.468  54.146  1.00  0.00     0.003 C 
HETATM   17  C14 UNL     1      23.405  -0.742  54.086  1.00  0.00     0.012 C 
HETATM   18  C15 UNL     1      23.773   0.216  53.215  1.00  0.00    -0.033 C 
HETATM   19  C16 UNL     1      23.067   1.212  52.645  1.00  0.00     0.029 C 
HETATM   20  C17 UNL     1      22.349   2.284  52.252  1.00  0.00     0.044 A 
HETATM   21  H9  UNL     1      23.982   4.629  52.083  1.00  0.00     0.160 HD
ENDROOT
TORSDOF 0
ENDMDL
MODEL 5
REMARK VINA RESULT:      -8.6      1.872      4.365
REMARK  0 active torsions:
REMARK  status: ('A' for Active; 'I' for Inactive)
ROOT
HETATM    1  C1  UNL     1      22.649  -1.319  54.953  1.00  0.00     0.045 C 
HETATM    2  C2  UNL     1      22.941  -0.468  53.807  1.00  0.00    -0.065 C 
HETATM    3  C3  UNL     1      21.784  -0.278  53.229  1.00  0.00     0.049 C 
HETATM    4  C4  UNL     1      20.696   0.114  52.375  1.00  0.00    -0.019 C 
HETATM    5  C5  UNL     1      20.241   0.741  51.324  1.00  0.00    -0.011 C 
HETATM    6  C6  UNL     1      20.826   1.541  50.259  1.00  0.00     0.147 C 
HETATM    7  N1  UNL     1      22.241   1.722  50.244  1.00  0.00    -0.386 N 
HETATM    8  C7  UNL     1      23.550   2.129  50.531  1.00  0.00     0.044 A 
HETATM    9  C8  UNL     1      24.089   3.049  49.624  1.00  0.00     0.049 A 
HETATM   10  C9  UNL     1      25.360   3.626  49.669  1.00  0.00     0.122 A 
HETATM   11  N2  UNL     1      26.113   3.236  50.699  1.00  0.00    -0.236 NA
HETATM   12  C10 UNL     1      25.661   2.356  51.607  1.00  0.00     0.181 A 
HETATM   13  O1  UNL     1      26.587   2.154  52.495  1.00  0.00    -0.303 OA
HETATM   14  C11 UNL     1      27.091   0.960  52.648  1.00  0.00     0.144 C 
HETATM   15  C12 UNL     1      27.325   0.354  53.857  1.00  0.00     0.025 C 
HETATM   16  C13 UNL     1      26.384   0.174  54.836  1.00  0.00     0.003 C 
HETATM   17  C14 UNL     1      25.313  -0.457  54.276  1.00  0.00     0.012 C 
HETATM   18  C15 UNL     1      24.308   0.049  53.538  1.00  0.00    -0.033 C 
HETATM   19  C16 UNL     1      24.305   0.996  52.579  1.00  0.00     0.029 C 
HETATM   20  C17 UNL     1      24.402   1.819  51.515  1.00  0.00     0.044 A 
HETATM   21  H9  UNL     1      22.564   1.073  49.450  1.00  0.00     0.160 HD
ENDROOT
TORSDOF 0
ENDMDL
MODEL 6
REMARK VINA RESULT:      -8.6      2.687      6.069
REMARK  0 active torsions:
REMARK  status: ('A' for Active; 'I' for Inactive)
ROOT
HETATM    1  C1  UNL     1      26.152  -0.844  53.506  1.00  0.00     0.045 C 
HETATM    2  C2  UNL     1      24.969  -0.059  53.179  1.00  0.00    -0.065 C 
HETATM    3  C3  UNL     1      24.008  -0.597  53.883  1.00  0.00     0.049 C 
HETATM    4  C4  UNL     1      22.761  -0.947  54.508  1.00  0.00    -0.019 C 
HETATM    5  C5  UNL     1      21.480  -0.761  54.680  1.00  0.00    -0.011 C 
HETATM    6  C6  UNL     1      20.484   0.153  54.144  1.00  0.00     0.147 C 
HETATM    7  N1  UNL     1      20.890   1.099  53.156  1.00  0.00    -0.386 N 
HETATM    8  C7  UNL     1      21.461   2.192  52.493  1.00  0.00     0.044 A 
HETATM    9  C8  UNL     1      20.553   3.190  52.120  1.00  0.00     0.049 A 
HETATM   10  C9  UNL     1      20.844   4.385  51.458  1.00  0.00     0.122 A 
HETATM   11  N2  UNL     1      22.134   4.561  51.166  1.00  0.00    -0.236 NA
HETATM   12  C10 UNL     1      23.060   3.645  51.493  1.00  0.00     0.181 A 
HETATM   13  O1  UNL     1      24.224   4.063  51.097  1.00  0.00    -0.303 OA
HETATM   14  C11 UNL     1      24.895   3.376  50.213  1.00  0.00     0.144 C 
HETATM   15  C12 UNL     1      26.235   3.093  50.289  1.00  0.00     0.025 C 
HETATM   16  C13 UNL     1      26.847   2.483  51.352  1.00  0.00     0.003 C 
HETATM   17  C14 UNL     1      26.181   1.321  51.606  1.00  0.00     0.012 C 
HETATM   18  C15 UNL     1      25.031   1.119  52.275  1.00  0.00    -0.033 C 
HETATM   19  C16 UNL     1      23.886   1.829  52.301  1.00  0.00     0.029 C 
HETATM   20  C17 UNL     1      22.719   2.486  52.144  1.00  0.00     0.044 A 
HETATM   21  H9  UNL     1      20.490   0.692  52.245  1.00  0.00     0.160 HD
ENDROOT
TORSDOF 0
ENDMDL
MODEL 7
REMARK VINA RESULT:      -8.5      1.495      4.415
REMARK  0 active torsions:
REMARK  status: ('A' for Active; 'I' for Inactive)
ROOT
HETATM    1  C1  UNL     1      20.894   0.604  51.670  1.00  0.00     0.045 C 
HETATM    2  C2  UNL     1      22.226   0.617  52.261  1.00  0.00    -0.065 C 
HETATM    3  C3  UNL     1      22.159  -0.227  53.256  1.00  0.00     0.049 C 
HETATM    4  C4  UNL     1      22.410  -1.067  54.395  1.00  0.00    -0.019 C 
HETATM    5  C5  UNL     1      23.207  -1.515  55.329  1.00  0.00    -0.011 C 
HETATM    6  C6  UNL     1      24.585  -1.268  55.722  1.00  0.00     0.147 C 
HETATM    7  N1  UNL     1      25.334  -0.293  54.998  1.00  0.00    -0.386 N 
HETATM    8  C7  UNL     1      26.063   0.388  54.015  1.00  0.00     0.044 A 
HETATM    9  C8  UNL     1      27.436   0.488  54.268  1.00  0.00     0.049 A 
HETATM   10  C9  UNL     1      28.396   1.102  53.459  1.00  0.00     0.122 A 
HETATM   11  N2  UNL     1      27.917   1.641  52.337  1.00  0.00    -0.236 NA
HETATM   12  C10 UNL     1      26.611   1.583  52.030  1.00  0.00     0.181 A 
HETATM   13  O1  UNL     1      26.419   2.179  50.892  1.00  0.00    -0.303 OA
HETATM   14  C11 UNL     1      25.651   3.232  50.832  1.00  0.00     0.144 C 
HETATM   15  C12 UNL     1      24.699   3.457  49.869  1.00  0.00     0.025 C 
HETATM   16  C13 UNL     1      23.682   2.593  49.558  1.00  0.00     0.003 C 
HETATM   17  C14 UNL     1      23.018   2.297  50.711  1.00  0.00     0.012 C 
HETATM   18  C15 UNL     1      23.335   1.422  51.684  1.00  0.00    -0.033 C 
HETATM   19  C16 UNL     1      24.522   1.105  52.236  1.00  0.00     0.029 C 
HETATM   20  C17 UNL     1      25.710   0.966  52.861  1.00  0.00     0.044 A 
HETATM   21  H9  UNL     1      25.366   0.544  55.672  1.00  0.00     0.160 HD
ENDROOT
TORSDOF 0
ENDMDL
MODEL 8
REMARK VINA RESULT:      -8.5      1.931      4.489
REMARK  0 active torsions:
REMARK  status: ('A' for Active; 'I' for Inactive)
ROOT
HETATM    1  C1  UNL     1      22.877   2.535  49.320  1.00  0.00     0.045 C 
HETATM    2  C2  UNL     1      22.829   1.803  50.579  1.00  0.00    -0.065 C 
HETATM    3  C3  UNL     1      21.605   1.352  50.655  1.00  0.00     0.049 C 
HETATM    4  C4  UNL     1      20.368   0.726  51.035  1.00  0.00    -0.019 C 
HETATM    5  C5  UNL     1      19.654   0.028  51.878  1.00  0.00    -0.011 C 
HETATM    6  C6  UNL     1      19.889  -0.585  53.176  1.00  0.00     0.147 C 
HETATM    7  N1  UNL     1      21.168  -0.420  53.785  1.00  0.00    -0.386 N 
HETATM    8  C7  UNL     1      22.529  -0.505  54.104  1.00  0.00     0.044 A 
HETATM    9  C8  UNL     1      22.815  -1.249  55.255  1.00  0.00     0.049 A 
HETATM   10  C9  UNL     1      24.077  -1.504  55.798  1.00  0.00     0.122 A 
HETATM   11  N2  UNL     1      25.093  -0.964  55.123  1.00  0.00    -0.236 NA
HETATM   12  C10 UNL     1      24.893  -0.238  54.012  1.00  0.00     0.181 A 
HETATM   13  O1  UNL     1      26.042   0.164  53.559  1.00  0.00    -0.303 OA
HETATM   14  C11 UNL     1      26.300   1.441  53.482  1.00  0.00     0.144 C 
HETATM   15  C12 UNL     1      26.889   2.061  52.409  1.00  0.00     0.025 C 
HETATM   16  C13 UNL     1      26.435   1.989  51.119  1.00  0.00     0.003 C 
HETATM   17  C14 UNL     1      25.122   2.354  51.116  1.00  0.00     0.012 C 
HETATM   18  C15 UNL     1      24.030   1.636  51.439  1.00  0.00    -0.033 C 
HETATM   19  C16 UNL     1      23.822   0.735  52.419  1.00  0.00     0.029 C 
HETATM   20  C17 UNL     1      23.631  -0.018  53.521  1.00  0.00     0.044 A 
HETATM   21  H9  UNL     1      20.981   0.304  54.558  1.00  0.00     0.160 HD
ENDROOT
TORSDOF 0
ENDMDL
MODEL 9
REMARK VINA RESULT:      -7.7      2.350      6.063
REMARK  0 active torsions:
REMARK  status: ('A' for Active; 'I' for Inactive)
ROOT
HETATM    1  C1  UNL     1      27.802   1.225  52.967  1.00  0.00     0.045 C 
HETATM    2  C2  UNL     1      26.358   1.032  52.935  1.00  0.00    -0.065 C 
HETATM    3  C3  UNL     1      26.106   0.230  53.937  1.00  0.00     0.049 C 
HETATM    4  C4  UNL     1      25.508  -0.620  54.930  1.00  0.00    -0.019 C 
HETATM    5  C5  UNL     1      24.462  -1.199  55.455  1.00  0.00    -0.011 C 
HETATM    6  C6  UNL     1      23.039  -1.235  55.157  1.00  0.00     0.147 C 
HETATM    7  N1  UNL     1      22.565  -0.526  54.014  1.00  0.00    -0.386 N 
HETATM    8  C7  UNL     1      22.174   0.476  53.117  1.00  0.00     0.044 A 
HETATM    9  C8  UNL     1      20.791   0.597  52.941  1.00  0.00     0.049 A 
HETATM   10  C9  UNL     1      20.126   1.511  52.119  1.00  0.00     0.122 A 
HETATM   11  N2  UNL     1      20.926   2.338  51.445  1.00  0.00    -0.236 NA
HETATM   12  C10 UNL     1      22.262   2.279  51.565  1.00  0.00     0.181 A 
HETATM   13  O1  UNL     1      22.794   3.189  50.807  1.00  0.00    -0.303 OA
HETATM   14  C11 UNL     1      23.585   2.840  49.829  1.00  0.00     0.144 C 
HETATM   15  C12 UNL     1      24.781   3.444  49.531  1.00  0.00     0.025 C 
HETATM   16  C13 UNL     1      25.811   3.618  50.417  1.00  0.00     0.003 C 
HETATM   17  C14 UNL     1      26.105   2.402  50.959  1.00  0.00     0.012 C 
HETATM   18  C15 UNL     1      25.491   1.733  51.952  1.00  0.00    -0.033 C 
HETATM   19  C16 UNL     1      24.185   1.597  52.251  1.00  0.00     0.029 C 
HETATM   20  C17 UNL     1      22.864   1.361  52.388  1.00  0.00     0.044 A 
HETATM   21  H9  UNL     1      22.372  -1.308  53.301  1.00  0.00     0.160 HD
ENDROOT
TORSDOF 0
ENDMDL
