MODEL 1
REMARK VINA RESULT:      -8.7      0.000      0.000
REMARK  4 active torsions:
REMARK  status: ('A' for Active; 'I' for Inactive)
REMARK    1  A    between atoms: O1_2  and  C2_3 
REMARK    2  A    between atoms: C7_8  and  O2_9 
REMARK    3  A    between atoms: C11_16  and  N3_17 
REMARK    4  A    between atoms: N3_17  and  C12_18 
ROOT
HETATM    1  C2  UNL     1      26.076   7.168  48.153  1.00  0.00     0.102 A 
HETATM    2  C3  UNL     1      26.646   6.020  48.664  1.00  0.00     0.051 A 
HETATM    3  C4  UNL     1      25.919   4.977  49.189  1.00  0.00    -0.004 A 
HETATM    4  C5  UNL     1      24.541   5.018  49.234  1.00  0.00     0.082 A 
HETATM    5  C6  UNL     1      23.939   6.172  48.722  1.00  0.00     0.077 A 
HETATM    6  C7  UNL     1      24.680   7.228  48.191  1.00  0.00     0.104 A 
HETATM    7  O3  UNL     1      23.640   4.090  49.710  1.00  0.00    -0.319 OA
HETATM    8  C9  UNL     1      23.885   2.901  50.395  1.00  0.00     0.283 A 
HETATM    9  N1  UNL     1      22.734   2.411  51.131  1.00  0.00    -0.353 N 
HETATM   10  C10 UNL     1      22.760   1.990  52.462  1.00  0.00     0.207 A 
HETATM   11  N2  UNL     1      23.862   2.039  53.115  1.00  0.00    -0.225 NA
HETATM   12  C11 UNL     1      25.055   2.512  52.507  1.00  0.00     0.156 A 
HETATM   13  C18 UNL     1      25.095   2.920  51.252  1.00  0.00     0.101 A 
HETATM   14  N4  UNL     1      26.404   3.359  50.937  1.00  0.00    -0.382 N 
HETATM   15  C19 UNL     1      26.837   3.894  49.659  1.00  0.00     0.161 C 
HETATM   16  H10 UNL     1      21.846   2.389  50.581  1.00  0.00     0.163 HD
HETATM   17  H16 UNL     1      27.089   3.288  51.706  1.00  0.00     0.160 HD
ENDROOT
BRANCH  12  18
HETATM   18  N3  UNL     1      26.162   2.465  53.424  1.00  0.00    -0.339 N 
HETATM   19  H12 UNL     1      26.530   3.211  54.060  1.00  0.00     0.167 HD
BRANCH  18  20
HETATM   20  C12 UNL     1      26.629   1.124  53.240  1.00  0.00     0.035 A 
HETATM   21  C13 UNL     1      25.912   0.008  52.873  1.00  0.00     0.032 A 
HETATM   22  C14 UNL     1      26.398  -1.260  52.732  1.00  0.00     0.046 A 
HETATM   23  C15 UNL     1      27.753  -1.418  52.992  1.00  0.00     0.138 A 
HETATM   24  F1  UNL     1      28.256  -2.679  52.854  1.00  0.00    -0.204 F 
HETATM   25  C16 UNL     1      28.560  -0.367  53.365  1.00  0.00     0.074 A 
HETATM   26 CL1  UNL     1      30.245  -0.718  53.660  1.00  0.00    -0.081 Cl
HETATM   27  C17 UNL     1      27.990   0.907  53.487  1.00  0.00     0.056 A 
ENDBRANCH  18  20
ENDBRANCH  12  18
BRANCH   6  28
HETATM   28  O2  UNL     1      23.962   8.337  47.712  1.00  0.00    -0.353 OA
HETATM   29  C8  UNL     1      23.281   9.118  48.653  1.00  0.00     0.210 C 
ENDBRANCH   6  28
BRANCH   1  30
HETATM   30  O1  UNL     1      26.634   8.288  47.599  1.00  0.00    -0.353 OA
HETATM   31  C1  UNL     1      27.372   9.194  48.369  1.00  0.00     0.210 C 
ENDBRANCH   1  30
TORSDOF 4
ENDMDL
MODEL 2
REMARK VINA RESULT:      -8.7      3.891      7.206
REMARK  4 active torsions:
REMARK  status: ('A' for Active; 'I' for Inactive)
REMARK    1  A    between atoms: O1_2  and  C2_3 
REMARK    2  A    between atoms: C7_8  and  O2_9 
REMARK    3  A    between atoms: C11_16  and  N3_17 
REMARK    4  A    between atoms: N3_17  and  C12_18 
ROOT
HETATM    1  C2  UNL     1      26.876   0.962  54.224  1.00  0.00     0.102 A 
HETATM    2  C3  UNL     1      26.085   2.086  54.102  1.00  0.00     0.051 A 
HETATM    3  C4  UNL     1      25.034   2.186  53.220  1.00  0.00    -0.004 A 
HETATM    4  C5  UNL     1      24.700   1.140  52.385  1.00  0.00     0.082 A 
HETATM    5  C6  UNL     1      25.489  -0.011  52.489  1.00  0.00     0.077 A 
HETATM    6  C7  UNL     1      26.553  -0.108  53.385  1.00  0.00     0.104 A 
HETATM    7  O3  UNL     1      23.697   1.039  51.445  1.00  0.00    -0.319 OA
HETATM    8  C9  UNL     1      22.819   2.021  50.991  1.00  0.00     0.283 A 
HETATM    9  N1  UNL     1      22.215   1.709  49.708  1.00  0.00    -0.353 N 
HETATM   10  C10 UNL     1      22.142   2.589  48.627  1.00  0.00     0.207 A 
HETATM   11  N2  UNL     1      22.647   3.762  48.736  1.00  0.00    -0.225 NA
HETATM   12  C11 UNL     1      23.276   4.181  49.938  1.00  0.00     0.156 A 
HETATM   13  C18 UNL     1      23.373   3.397  50.996  1.00  0.00     0.101 A 
HETATM   14  N4  UNL     1      24.072   4.072  52.026  1.00  0.00    -0.382 N 
HETATM   15  C19 UNL     1      24.390   3.531  53.334  1.00  0.00     0.161 C 
HETATM   16  H10 UNL     1      21.819   0.744  49.640  1.00  0.00     0.163 HD
HETATM   17  H16 UNL     1      24.376   5.031  51.796  1.00  0.00     0.160 HD
ENDROOT
BRANCH  12  18
HETATM   18  N3  UNL     1      23.755   5.533  49.833  1.00  0.00    -0.339 N 
HETATM   19  H12 UNL     1      23.255   6.432  50.034  1.00  0.00     0.167 HD
BRANCH  18  20
HETATM   20  C12 UNL     1      25.099   5.326  49.386  1.00  0.00     0.035 A 
HETATM   21  C13 UNL     1      25.893   4.213  49.537  1.00  0.00     0.032 A 
HETATM   22  C14 UNL     1      27.183   4.071  49.112  1.00  0.00     0.046 A 
HETATM   23  C15 UNL     1      27.729   5.172  48.467  1.00  0.00     0.138 A 
HETATM   24  F1  UNL     1      29.017   5.046  48.033  1.00  0.00    -0.204 F 
HETATM   25  C16 UNL     1      27.021   6.335  48.263  1.00  0.00     0.074 A 
HETATM   26 CL1  UNL     1      27.840   7.637  47.438  1.00  0.00    -0.081 Cl
HETATM   27  C17 UNL     1      25.701   6.406  48.727  1.00  0.00     0.056 A 
ENDBRANCH  18  20
ENDBRANCH  12  18
BRANCH   6  28
HETATM   28  O2  UNL     1      27.275  -1.314  53.394  1.00  0.00    -0.353 OA
HETATM   29  C8  UNL     1      26.947  -2.267  52.423  1.00  0.00     0.210 C 
ENDBRANCH   6  28
BRANCH   1  30
HETATM   30  O1  UNL     1      27.944   0.690  55.035  1.00  0.00    -0.353 OA
HETATM   31  C1  UNL     1      29.240   1.096  54.696  1.00  0.00     0.210 C 
ENDBRANCH   1  30
TORSDOF 4
ENDMDL
MODEL 3
REMARK VINA RESULT:      -8.5      2.443      3.377
REMARK  4 active torsions:
REMARK  status: ('A' for Active; 'I' for Inactive)
REMARK    1  A    between atoms: O1_2  and  C2_3 
REMARK    2  A    between atoms: C7_8  and  O2_9 
REMARK    3  A    between atoms: C11_16  and  N3_17 
REMARK    4  A    between atoms: N3_17  and  C12_18 
ROOT
HETATM    1  C2  UNL     1      28.668   6.413  47.932  1.00  0.00     0.102 A 
HETATM    2  C3  UNL     1      28.175   5.304  48.588  1.00  0.00     0.051 A 
HETATM    3  C4  UNL     1      26.847   5.129  48.896  1.00  0.00    -0.004 A 
HETATM    4  C5  UNL     1      25.904   6.078  48.557  1.00  0.00     0.082 A 
HETATM    5  C6  UNL     1      26.379   7.212  47.892  1.00  0.00     0.077 A 
HETATM    6  C7  UNL     1      27.728   7.385  47.581  1.00  0.00     0.104 A 
HETATM    7  O3  UNL     1      24.542   6.092  48.771  1.00  0.00    -0.319 OA
HETATM    8  C9  UNL     1      23.760   5.202  49.503  1.00  0.00     0.283 A 
HETATM    9  N1  UNL     1      22.473   5.750  49.895  1.00  0.00    -0.353 N 
HETATM   10  C10 UNL     1      21.939   5.687  51.183  1.00  0.00     0.207 A 
HETATM   11  N2  UNL     1      22.614   5.122  52.116  1.00  0.00    -0.225 NA
HETATM   12  C11 UNL     1      23.891   4.559  51.860  1.00  0.00     0.156 A 
HETATM   13  C18 UNL     1      24.448   4.583  50.663  1.00  0.00     0.101 A 
HETATM   14  N4  UNL     1      25.726   3.977  50.720  1.00  0.00    -0.382 N 
HETATM   15  C19 UNL     1      26.649   3.829  49.609  1.00  0.00     0.161 C 
HETATM   16  H10 UNL     1      21.947   6.213  49.120  1.00  0.00     0.163 HD
HETATM   17  H16 UNL     1      26.004   3.623  51.649  1.00  0.00     0.160 HD
ENDROOT
BRANCH  12  18
HETATM   18  N3  UNL     1      24.451   3.973  53.047  1.00  0.00    -0.339 N 
HETATM   19  H12 UNL     1      25.054   4.411  53.784  1.00  0.00     0.167 HD
BRANCH  18  20
HETATM   20  C12 UNL     1      23.964   2.630  52.960  1.00  0.00     0.035 A 
HETATM   21  C13 UNL     1      22.683   2.196  52.703  1.00  0.00     0.032 A 
HETATM   22  C14 UNL     1      22.259   0.899  52.653  1.00  0.00     0.046 A 
HETATM   23  C15 UNL     1      23.233  -0.062  52.890  1.00  0.00     0.138 A 
HETATM   24  F1  UNL     1      22.827  -1.365  52.840  1.00  0.00    -0.204 F 
HETATM   25  C16 UNL     1      24.543   0.264  53.155  1.00  0.00     0.074 A 
HETATM   26 CL1  UNL     1      25.655  -1.053  53.433  1.00  0.00    -0.081 Cl
HETATM   27  C17 UNL     1      24.904   1.618  53.189  1.00  0.00     0.056 A 
ENDBRANCH  18  20
ENDBRANCH  12  18
BRANCH   6  28
HETATM   28  O2  UNL     1      28.085   8.570  46.915  1.00  0.00    -0.353 OA
HETATM   29  C8  UNL     1      27.977   9.768  47.631  1.00  0.00     0.210 C 
ENDBRANCH   6  28
BRANCH   1  30
HETATM   30  O1  UNL     1      29.938   6.749  47.547  1.00  0.00    -0.353 OA
HETATM   31  C1  UNL     1      30.899   7.158  48.479  1.00  0.00     0.210 C 
ENDBRANCH   1  30
TORSDOF 4
ENDMDL
MODEL 4
REMARK VINA RESULT:      -8.3      4.974      8.772
REMARK  4 active torsions:
REMARK  status: ('A' for Active; 'I' for Inactive)
REMARK    1  A    between atoms: O1_2  and  C2_3 
REMARK    2  A    between atoms: C7_8  and  O2_9 
REMARK    3  A    between atoms: C11_16  and  N3_17 
REMARK    4  A    between atoms: N3_17  and  C12_18 
ROOT
HETATM    1  C2  UNL     1      25.376  -0.227  53.998  1.00  0.00     0.102 A 
HETATM    2  C3  UNL     1      24.346   0.361  53.293  1.00  0.00     0.051 A 
HETATM    3  C4  UNL     1      24.525   1.382  52.390  1.00  0.00    -0.004 A 
HETATM    4  C5  UNL     1      25.780   1.892  52.128  1.00  0.00     0.082 A 
HETATM    5  C6  UNL     1      26.842   1.313  52.831  1.00  0.00     0.077 A 
HETATM    6  C7  UNL     1      26.655   0.278  53.746  1.00  0.00     0.104 A 
HETATM    7  O3  UNL     1      26.169   2.898  51.269  1.00  0.00    -0.319 OA
HETATM    8  C9  UNL     1      25.377   3.765  50.519  1.00  0.00     0.283 A 
HETATM    9  N1  UNL     1      26.077   4.965  50.095  1.00  0.00    -0.353 N 
HETATM   10  C10 UNL     1      25.582   6.263  50.227  1.00  0.00     0.207 A 
HETATM   11  N2  UNL     1      24.436   6.447  50.771  1.00  0.00    -0.225 NA
HETATM   12  C11 UNL     1      23.662   5.353  51.238  1.00  0.00     0.156 A 
HETATM   13  C18 UNL     1      24.072   4.102  51.138  1.00  0.00     0.101 A 
HETATM   14  N4  UNL     1      23.109   3.238  51.713  1.00  0.00    -0.382 N 
HETATM   15  C19 UNL     1      23.210   1.793  51.807  1.00  0.00     0.161 C 
HETATM   16  H10 UNL     1      27.012   4.790  49.663  1.00  0.00     0.163 HD
HETATM   17  H16 UNL     1      22.272   3.705  52.097  1.00  0.00     0.160 HD
ENDROOT
BRANCH  12  18
HETATM   18  N3  UNL     1      22.414   5.797  51.797  1.00  0.00    -0.339 N 
HETATM   19  H12 UNL     1      22.083   5.769  52.791  1.00  0.00     0.167 HD
BRANCH  18  20
HETATM   20  C12 UNL     1      21.741   6.294  50.635  1.00  0.00     0.035 A 
HETATM   21  C13 UNL     1      21.442   5.631  49.466  1.00  0.00     0.032 A 
HETATM   22  C14 UNL     1      20.817   6.155  48.372  1.00  0.00     0.046 A 
HETATM   23  C15 UNL     1      20.456   7.492  48.467  1.00  0.00     0.138 A 
HETATM   24  F1  UNL     1      19.827   8.032  47.382  1.00  0.00    -0.204 F 
HETATM   25  C16 UNL     1      20.707   8.246  49.591  1.00  0.00     0.074 A 
HETATM   26 CL1  UNL     1      20.197   9.916  49.565  1.00  0.00    -0.081 Cl
HETATM   27  C17 UNL     1      21.352   7.639  50.676  1.00  0.00     0.056 A 
ENDBRANCH  18  20
ENDBRANCH  12  18
BRANCH   6  28
HETATM   28  O2  UNL     1      27.799  -0.219  54.394  1.00  0.00    -0.353 OA
HETATM   29  C8  UNL     1      28.869   0.665  54.577  1.00  0.00     0.210 C 
ENDBRANCH   6  28
BRANCH   1  30
HETATM   30  O1  UNL     1      25.383  -1.238  54.920  1.00  0.00    -0.353 OA
HETATM   31  C1  UNL     1      24.373  -1.354  55.882  1.00  0.00     0.210 C 
ENDBRANCH   1  30
TORSDOF 4
ENDMDL
MODEL 5
REMARK VINA RESULT:      -8.3      4.501      8.514
REMARK  4 active torsions:
REMARK  status: ('A' for Active; 'I' for Inactive)
REMARK    1  A    between atoms: O1_2  and  C2_3 
REMARK    2  A    between atoms: C7_8  and  O2_9 
REMARK    3  A    between atoms: C11_16  and  N3_17 
REMARK    4  A    between atoms: N3_17  and  C12_18 
ROOT
HETATM    1  C2  UNL     1      25.870   0.244  54.067  1.00  0.00     0.102 A 
HETATM    2  C3  UNL     1      24.953   0.646  53.117  1.00  0.00     0.051 A 
HETATM    3  C4  UNL     1      25.272   1.431  52.034  1.00  0.00    -0.004 A 
HETATM    4  C5  UNL     1      26.563   1.873  51.827  1.00  0.00     0.082 A 
HETATM    5  C6  UNL     1      27.511   1.479  52.777  1.00  0.00     0.077 A 
HETATM    6  C7  UNL     1      27.182   0.683  53.874  1.00  0.00     0.104 A 
HETATM    7  O3  UNL     1      27.083   2.655  50.818  1.00  0.00    -0.319 OA
HETATM    8  C9  UNL     1      26.415   3.320  49.792  1.00  0.00     0.283 A 
HETATM    9  N1  UNL     1      27.193   4.393  49.197  1.00  0.00    -0.353 N 
HETATM   10  C10 UNL     1      26.718   5.684  48.961  1.00  0.00     0.207 A 
HETATM   11  N2  UNL     1      25.516   5.983  49.294  1.00  0.00    -0.225 NA
HETATM   12  C11 UNL     1      24.662   5.022  49.896  1.00  0.00     0.156 A 
HETATM   13  C18 UNL     1      25.050   3.785  50.141  1.00  0.00     0.101 A 
HETATM   14  N4  UNL     1      24.000   3.071  50.769  1.00  0.00    -0.382 N 
HETATM   15  C19 UNL     1      24.053   1.689  51.206  1.00  0.00     0.161 C 
HETATM   16  H10 UNL     1      28.171   4.128  48.943  1.00  0.00     0.163 HD
HETATM   17  H16 UNL     1      23.133   3.610  50.922  1.00  0.00     0.160 HD
ENDROOT
BRANCH  12  18
HETATM   18  N3  UNL     1      23.364   5.577  50.169  1.00  0.00    -0.339 N 
HETATM   19  H12 UNL     1      22.874   5.700  51.087  1.00  0.00     0.167 HD
BRANCH  18  20
HETATM   20  C12 UNL     1      22.917   5.922  48.854  1.00  0.00     0.035 A 
HETATM   21  C13 UNL     1      22.677   7.172  48.329  1.00  0.00     0.032 A 
HETATM   22  C14 UNL     1      22.228   7.452  47.070  1.00  0.00     0.046 A 
HETATM   23  C15 UNL     1      21.994   6.352  46.256  1.00  0.00     0.138 A 
HETATM   24  F1  UNL     1      21.547   6.614  44.993  1.00  0.00    -0.204 F 
HETATM   25  C16 UNL     1      22.202   5.060  46.682  1.00  0.00     0.074 A 
HETATM   26 CL1  UNL     1      21.863   3.778  45.547  1.00  0.00    -0.081 Cl
HETATM   27  C17 UNL     1      22.666   4.851  47.988  1.00  0.00     0.056 A 
ENDBRANCH  18  20
ENDBRANCH  12  18
BRANCH   6  28
HETATM   28  O2  UNL     1      28.222   0.357  54.763  1.00  0.00    -0.353 OA
HETATM   29  C8  UNL     1      29.324  -0.329  54.240  1.00  0.00     0.210 C 
ENDBRANCH   6  28
BRANCH   1  30
HETATM   30  O1  UNL     1      25.733  -0.526  55.190  1.00  0.00    -0.353 OA
HETATM   31  C1  UNL     1      24.551  -1.226  55.455  1.00  0.00     0.210 C 
ENDBRANCH   1  30
TORSDOF 4
ENDMDL
MODEL 6
REMARK VINA RESULT:      -8.1      3.832      5.556
REMARK  4 active torsions:
REMARK  status: ('A' for Active; 'I' for Inactive)
REMARK    1  A    between atoms: O1_2  and  C2_3 
REMARK    2  A    between atoms: C7_8  and  O2_9 
REMARK    3  A    between atoms: C11_16  and  N3_17 
REMARK    4  A    between atoms: N3_17  and  C12_18 
ROOT
HETATM    1  C2  UNL     1      29.885   5.896  47.841  1.00  0.00     0.102 A 
HETATM    2  C3  UNL     1      28.878   5.199  48.478  1.00  0.00     0.051 A 
HETATM    3  C4  UNL     1      27.571   5.622  48.525  1.00  0.00    -0.004 A 
HETATM    4  C5  UNL     1      27.178   6.798  47.920  1.00  0.00     0.082 A 
HETATM    5  C6  UNL     1      28.181   7.523  47.268  1.00  0.00     0.077 A 
HETATM    6  C7  UNL     1      29.506   7.090  47.223  1.00  0.00     0.104 A 
HETATM    7  O3  UNL     1      25.935   7.389  47.850  1.00  0.00    -0.319 OA
HETATM    8  C9  UNL     1      24.751   7.018  48.484  1.00  0.00     0.283 A 
HETATM    9  N1  UNL     1      23.774   8.090  48.557  1.00  0.00    -0.353 N 
HETATM   10  C10 UNL     1      23.079   8.457  49.710  1.00  0.00     0.207 A 
HETATM   11  N2  UNL     1      23.305   7.832  50.806  1.00  0.00    -0.225 NA
HETATM   12  C11 UNL     1      24.249   6.773  50.865  1.00  0.00     0.156 A 
HETATM   13  C18 UNL     1      24.934   6.376  49.809  1.00  0.00     0.101 A 
HETATM   14  N4  UNL     1      25.812   5.328  50.177  1.00  0.00    -0.382 N 
HETATM   15  C19 UNL     1      26.739   4.645  49.294  1.00  0.00     0.161 C 
HETATM   16  H10 UNL     1      23.613   8.590  47.654  1.00  0.00     0.163 HD
HETATM   17  H16 UNL     1      25.773   5.051  51.171  1.00  0.00     0.160 HD
ENDROOT
BRANCH  12  18
HETATM   18  N3  UNL     1      24.326   6.215  52.188  1.00  0.00    -0.339 N 
HETATM   19  H12 UNL     1      24.925   6.505  52.998  1.00  0.00     0.167 HD
BRANCH  18  20
HETATM   20  C12 UNL     1      23.362   5.159  52.111  1.00  0.00     0.035 A 
HETATM   21  C13 UNL     1      22.032   5.234  51.765  1.00  0.00     0.032 A 
HETATM   22  C14 UNL     1      21.143   4.198  51.728  1.00  0.00     0.046 A 
HETATM   23  C15 UNL     1      21.652   2.955  52.079  1.00  0.00     0.138 A 
HETATM   24  F1  UNL     1      20.777   1.908  52.044  1.00  0.00    -0.204 F 
HETATM   25  C16 UNL     1      22.967   2.770  52.439  1.00  0.00     0.074 A 
HETATM   26 CL1  UNL     1      23.463   1.149  52.856  1.00  0.00    -0.081 Cl
HETATM   27  C17 UNL     1      23.822   3.881  52.453  1.00  0.00     0.056 A 
ENDBRANCH  18  20
ENDBRANCH  12  18
BRANCH   6  28
HETATM   28  O2  UNL     1      30.424   7.908  46.542  1.00  0.00    -0.353 OA
HETATM   29  C8  UNL     1      30.216   9.291  46.594  1.00  0.00     0.210 C 
ENDBRANCH   6  28
BRANCH   1  30
HETATM   30  O1  UNL     1      31.220   5.629  47.694  1.00  0.00    -0.353 OA
HETATM   31  C1  UNL     1      31.667   4.409  47.175  1.00  0.00     0.210 C 
ENDBRANCH   1  30
TORSDOF 4
ENDMDL
MODEL 7
REMARK VINA RESULT:      -8.0      4.617      8.098
REMARK  4 active torsions:
REMARK  status: ('A' for Active; 'I' for Inactive)
REMARK    1  A    between atoms: O1_2  and  C2_3 
REMARK    2  A    between atoms: C7_8  and  O2_9 
REMARK    3  A    between atoms: C11_16  and  N3_17 
REMARK    4  A    between atoms: N3_17  and  C12_18 
ROOT
HETATM    1  C2  UNL     1      17.990   0.047  51.371  1.00  0.00     0.102 A 
HETATM    2  C3  UNL     1      18.963   0.621  50.579  1.00  0.00     0.051 A 
HETATM    3  C4  UNL     1      20.287   0.704  50.938  1.00  0.00    -0.004 A 
HETATM    4  C5  UNL     1      20.733   0.201  52.143  1.00  0.00     0.082 A 
HETATM    5  C6  UNL     1      19.766  -0.386  52.964  1.00  0.00     0.077 A 
HETATM    6  C7  UNL     1      18.423  -0.467  52.596  1.00  0.00     0.104 A 
HETATM    7  O3  UNL     1      22.002   0.182  52.682  1.00  0.00    -0.319 OA
HETATM    8  C9  UNL     1      23.166   0.782  52.207  1.00  0.00     0.283 A 
HETATM    9  N1  UNL     1      24.189   0.945  53.224  1.00  0.00    -0.353 N 
HETATM   10  C10 UNL     1      24.896   2.125  53.460  1.00  0.00     0.207 A 
HETATM   11  N2  UNL     1      24.638   3.164  52.755  1.00  0.00    -0.225 NA
HETATM   12  C11 UNL     1      23.649   3.133  51.737  1.00  0.00     0.156 A 
HETATM   13  C18 UNL     1      22.951   2.047  51.462  1.00  0.00     0.101 A 
HETATM   14  N4  UNL     1      22.025   2.325  50.427  1.00  0.00    -0.382 N 
HETATM   15  C19 UNL     1      21.072   1.387  49.863  1.00  0.00     0.161 C 
HETATM   16  H10 UNL     1      24.375   0.088  53.792  1.00  0.00     0.163 HD
HETATM   17  H16 UNL     1      22.049   3.291  50.064  1.00  0.00     0.160 HD
ENDROOT
BRANCH  12  18
HETATM   18  N3  UNL     1      23.543   4.404  51.073  1.00  0.00    -0.339 N 
HETATM   19  H12 UNL     1      22.779   5.119  51.125  1.00  0.00     0.167 HD
BRANCH  18  20
HETATM   20  C12 UNL     1      24.761   4.436  50.321  1.00  0.00     0.035 A 
HETATM   21  C13 UNL     1      25.597   3.393  49.995  1.00  0.00     0.032 A 
HETATM   22  C14 UNL     1      26.765   3.477  49.293  1.00  0.00     0.046 A 
HETATM   23  C15 UNL     1      27.129   4.751  48.879  1.00  0.00     0.138 A 
HETATM   24  F1  UNL     1      28.293   4.853  48.173  1.00  0.00    -0.204 F 
HETATM   25  C16 UNL     1      26.364   5.862  49.151  1.00  0.00     0.074 A 
HETATM   26 CL1  UNL     1      26.948   7.400  48.566  1.00  0.00    -0.081 Cl
HETATM   27  C17 UNL     1      25.176   5.698  49.876  1.00  0.00     0.056 A 
ENDBRANCH  18  20
ENDBRANCH  12  18
BRANCH   6  28
HETATM   28  O2  UNL     1      17.544  -1.076  53.508  1.00  0.00    -0.353 OA
HETATM   29  C8  UNL     1      17.576  -2.472  53.598  1.00  0.00     0.210 C 
ENDBRANCH   6  28
BRANCH   1  30
HETATM   30  O1  UNL     1      16.645  -0.122  51.177  1.00  0.00    -0.353 OA
HETATM   31  C1  UNL     1      16.150  -0.834  50.079  1.00  0.00     0.210 C 
ENDBRANCH   1  30
TORSDOF 4
ENDMDL
MODEL 8
REMARK VINA RESULT:      -7.9      5.721      9.207
REMARK  4 active torsions:
REMARK  status: ('A' for Active; 'I' for Inactive)
REMARK    1  A    between atoms: O1_2  and  C2_3 
REMARK    2  A    between atoms: C7_8  and  O2_9 
REMARK    3  A    between atoms: C11_16  and  N3_17 
REMARK    4  A    between atoms: N3_17  and  C12_18 
ROOT
HETATM    1  C2  UNL     1      24.865   5.222  49.969  1.00  0.00     0.102 A 
HETATM    2  C3  UNL     1      25.555   6.323  49.504  1.00  0.00     0.051 A 
HETATM    3  C4  UNL     1      26.814   6.257  48.955  1.00  0.00    -0.004 A 
HETATM    4  C5  UNL     1      27.478   5.054  48.832  1.00  0.00     0.082 A 
HETATM    5  C6  UNL     1      26.799   3.923  49.296  1.00  0.00     0.077 A 
HETATM    6  C7  UNL     1      25.522   3.994  49.853  1.00  0.00     0.104 A 
HETATM    7  O3  UNL     1      28.725   4.777  48.316  1.00  0.00    -0.319 OA
HETATM    8  C9  UNL     1      29.714   5.661  47.889  1.00  0.00     0.283 A 
HETATM    9  N1  UNL     1      31.038   5.066  47.837  1.00  0.00    -0.353 N 
HETATM   10  C10 UNL     1      32.190   5.641  48.375  1.00  0.00     0.207 A 
HETATM   11  N2  UNL     1      32.107   6.770  48.978  1.00  0.00    -0.225 NA
HETATM   12  C11 UNL     1      30.865   7.444  49.104  1.00  0.00     0.156 A 
HETATM   13  C18 UNL     1      29.741   6.955  48.613  1.00  0.00     0.101 A 
HETATM   14  N4  UNL     1      28.669   7.828  48.918  1.00  0.00    -0.382 N 
HETATM   15  C19 UNL     1      27.277   7.624  48.560  1.00  0.00     0.161 C 
HETATM   16  H10 UNL     1      31.078   4.143  47.350  1.00  0.00     0.163 HD
HETATM   17  H16 UNL     1      28.928   8.675  49.448  1.00  0.00     0.160 HD
ENDROOT
BRANCH  12  18
HETATM   18  N3  UNL     1      31.016   8.692  49.803  1.00  0.00    -0.339 N 
HETATM   19  H12 UNL     1      30.959   8.889  50.831  1.00  0.00     0.167 HD
BRANCH  18  20
HETATM   20  C12 UNL     1      31.271   9.596  48.723  1.00  0.00     0.035 A 
HETATM   21  C13 UNL     1      32.219   9.502  47.729  1.00  0.00     0.032 A 
HETATM   22  C14 UNL     1      32.441  10.405  46.730  1.00  0.00     0.046 A 
HETATM   23  C15 UNL     1      31.618  11.523  46.735  1.00  0.00     0.138 A 
HETATM   24  F1  UNL     1      31.824  12.435  45.740  1.00  0.00    -0.204 F 
HETATM   25  C16 UNL     1      30.638  11.714  47.682  1.00  0.00     0.074 A 
HETATM   26 CL1  UNL     1      29.681  13.170  47.562  1.00  0.00    -0.081 Cl
HETATM   27  C17 UNL     1      30.468  10.743  48.678  1.00  0.00     0.056 A 
ENDBRANCH  18  20
ENDBRANCH  12  18
BRANCH   6  28
HETATM   28  O2  UNL     1      24.945   2.789  50.288  1.00  0.00    -0.353 OA
HETATM   29  C8  UNL     1      25.498   2.184  51.423  1.00  0.00     0.210 C 
ENDBRANCH   6  28
BRANCH   1  30
HETATM   30  O1  UNL     1      23.624   5.102  50.534  1.00  0.00    -0.353 OA
HETATM   31  C1  UNL     1      23.403   5.411  51.881  1.00  0.00     0.210 C 
ENDBRANCH   1  30
TORSDOF 4
ENDMDL
MODEL 9
REMARK VINA RESULT:      -7.7      5.314      8.118
REMARK  4 active torsions:
REMARK  status: ('A' for Active; 'I' for Inactive)
REMARK    1  A    between atoms: O1_2  and  C2_3 
REMARK    2  A    between atoms: C7_8  and  O2_9 
REMARK    3  A    between atoms: C11_16  and  N3_17 
REMARK    4  A    between atoms: N3_17  and  C12_18 
ROOT
HETATM    1  C2  UNL     1      33.012   6.202  48.679  1.00  0.00     0.102 A 
HETATM    2  C3  UNL     1      31.697   5.794  48.600  1.00  0.00     0.051 A 
HETATM    3  C4  UNL     1      30.648   6.646  48.345  1.00  0.00    -0.004 A 
HETATM    4  C5  UNL     1      30.856   7.995  48.145  1.00  0.00     0.082 A 
HETATM    5  C6  UNL     1      32.182   8.434  48.221  1.00  0.00     0.077 A 
HETATM    6  C7  UNL     1      33.242   7.566  48.481  1.00  0.00     0.104 A 
HETATM    7  O3  UNL     1      29.955   9.003  47.878  1.00  0.00    -0.319 OA
HETATM    8  C9  UNL     1      28.562   8.952  47.861  1.00  0.00     0.283 A 
HETATM    9  N1  UNL     1      27.934  10.254  47.994  1.00  0.00    -0.353 N 
HETATM   10  C10 UNL     1      26.894  10.550  48.876  1.00  0.00     0.207 A 
HETATM   11  N2  UNL     1      26.445   9.631  49.649  1.00  0.00    -0.225 NA
HETATM   12  C11 UNL     1      26.986   8.319  49.620  1.00  0.00     0.156 A 
HETATM   13  C18 UNL     1      27.967   7.976  48.806  1.00  0.00     0.101 A 
HETATM   14  N4  UNL     1      28.314   6.621  49.024  1.00  0.00    -0.382 N 
HETATM   15  C19 UNL     1      29.358   5.888  48.332  1.00  0.00     0.161 C 
HETATM   16  H10 UNL     1      28.324  10.988  47.361  1.00  0.00     0.163 HD
HETATM   17  H16 UNL     1      27.763   6.137  49.751  1.00  0.00     0.160 HD
ENDROOT
BRANCH  12  18
HETATM   18  N3  UNL     1      26.320   7.459  50.561  1.00  0.00    -0.339 N 
HETATM   19  H12 UNL     1      26.499   7.329  51.585  1.00  0.00     0.167 HD
BRANCH  18  20
HETATM   20  C12 UNL     1      25.341   6.828  49.728  1.00  0.00     0.035 A 
HETATM   21  C13 UNL     1      24.548   7.394  48.756  1.00  0.00     0.032 A 
HETATM   22  C14 UNL     1      23.608   6.754  48.000  1.00  0.00     0.046 A 
HETATM   23  C15 UNL     1      23.451   5.398  48.256  1.00  0.00     0.138 A 
HETATM   24  F1  UNL     1      22.517   4.742  47.507  1.00  0.00    -0.204 F 
HETATM   25  C16 UNL     1      24.194   4.735  49.206  1.00  0.00     0.074 A 
HETATM   26 CL1  UNL     1      23.885   3.030  49.418  1.00  0.00    -0.081 Cl
HETATM   27  C17 UNL     1      25.142   5.459  49.942  1.00  0.00     0.056 A 
ENDBRANCH  18  20
ENDBRANCH  12  18
BRANCH   6  28
HETATM   28  O2  UNL     1      34.530   8.127  48.537  1.00  0.00    -0.353 OA
HETATM   29  C8  UNL     1      35.073   8.612  47.342  1.00  0.00     0.210 C 
ENDBRANCH   6  28
BRANCH   1  30
HETATM   30  O1  UNL     1      34.165   5.505  48.919  1.00  0.00    -0.353 OA
HETATM   31  C1  UNL     1      34.624   4.525  48.032  1.00  0.00     0.210 C 
ENDBRANCH   1  30
TORSDOF 4
ENDMDL
