MODEL 1
REMARK VINA RESULT:      -6.8      0.000      0.000
REMARK  9 active torsions:
REMARK  status: ('A' for Active; 'I' for Inactive)
REMARK    1  A    between atoms: O1_2  and  C2_3 
REMARK    2  A    between atoms: C6_9  and  N3_10 
REMARK    3  A    between atoms: N3_10  and  C7_11 
REMARK    4  A    between atoms: C7_11  and  C8_12 
REMARK    5  A    between atoms: C9_13  and  C10_14 
REMARK    6  A    between atoms: C15_20  and  O2_21 
REMARK    7  A    between atoms: O2_21  and  C16_22 
REMARK    8  A    between atoms: C16_22  and  C17_23 
REMARK    9  A    between atoms: C17_23  and  N4_24 
ROOT
HETATM    1  C2  UNL     1      27.079   0.553  53.188  1.00  0.00     0.103 A 
HETATM    2  C3  UNL     1      26.659  -0.142  54.332  1.00  0.00     0.072 A 
HETATM    3  C4  UNL     1      25.325  -0.513  54.500  1.00  0.00     0.075 A 
HETATM    4  N1  UNL     1      24.861  -1.176  55.572  1.00  0.00    -0.241 NA
HETATM    5  C5  UNL     1      23.560  -1.508  55.683  1.00  0.00     0.235 A 
HETATM    6  N2  UNL     1      22.715  -1.162  54.695  1.00  0.00    -0.224 NA
HETATM    7  C6  UNL     1      23.081  -0.500  53.586  1.00  0.00     0.137 A 
HETATM    8  C13 UNL     1      24.418  -0.183  53.519  1.00  0.00     0.041 A 
HETATM    9  C14 UNL     1      24.873   0.497  52.417  1.00  0.00     0.057 A 
HETATM   10  C15 UNL     1      26.164   0.896  52.179  1.00  0.00     0.103 A 
ENDROOT
BRANCH   7  11
HETATM   11  N3  UNL     1      22.111  -0.185  52.601  1.00  0.00    -0.371 N 
HETATM   12  H6  UNL     1      21.850  -0.757  51.784  1.00  0.00     0.161 HD
BRANCH  11  13
HETATM   13  C7  UNL     1      21.358   1.059  52.678  1.00  0.00     0.148 C 
BRANCH  13  14
HETATM   14  C8  UNL     1      21.399   1.740  51.371  1.00  0.00    -0.006 C 
HETATM   15  C9  UNL     1      22.007   2.859  50.998  1.00  0.00     0.013 C 
BRANCH  15  16
HETATM   16  C10 UNL     1      22.787   3.626  51.950  1.00  0.00     0.017 A 
HETATM   17  C11 UNL     1      23.047   4.816  52.424  1.00  0.00     0.031 A 
HETATM   18  C12 UNL     1      23.742   3.888  52.997  1.00  0.00     0.139 A 
HETATM   19  F1  UNL     1      24.646   3.343  53.854  1.00  0.00    -0.204 F 
ENDBRANCH  15  16
ENDBRANCH  13  14
ENDBRANCH  11  13
ENDBRANCH   7  11
BRANCH  10  20
HETATM   20  O2  UNL     1      26.820   1.557  51.204  1.00  0.00    -0.347 OA
BRANCH  20  21
HETATM   21  C16 UNL     1      26.678   2.894  50.881  1.00  0.00     0.206 C 
BRANCH  21  22
HETATM   22  C17 UNL     1      25.655   3.230  49.845  1.00  0.00     0.297 C 
BRANCH  22  23
HETATM   23  N4  UNL     1      25.772   4.657  49.583  1.00  0.00     0.082 N 
HETATM   24  C18 UNL     1      24.599   5.226  48.986  1.00  0.00     0.309 C 
HETATM   25  C19 UNL     1      26.996   4.996  48.884  1.00  0.00     0.309 C 
ENDBRANCH  22  23
ENDBRANCH  21  22
ENDBRANCH  20  21
ENDBRANCH  10  20
BRANCH   1  26
HETATM   26  O1  UNL     1      28.437   0.853  53.162  1.00  0.00    -0.353 OA
HETATM   27  C1  UNL     1      29.324   0.083  53.939  1.00  0.00     0.210 C 
ENDBRANCH   1  26
TORSDOF 9
ENDMDL
MODEL 2
REMARK VINA RESULT:      -6.8      2.599      5.467
REMARK  9 active torsions:
REMARK  status: ('A' for Active; 'I' for Inactive)
REMARK    1  A    between atoms: O1_2  and  C2_3 
REMARK    2  A    between atoms: C6_9  and  N3_10 
REMARK    3  A    between atoms: N3_10  and  C7_11 
REMARK    4  A    between atoms: C7_11  and  C8_12 
REMARK    5  A    between atoms: C9_13  and  C10_14 
REMARK    6  A    between atoms: C15_20  and  O2_21 
REMARK    7  A    between atoms: O2_21  and  C16_22 
REMARK    8  A    between atoms: C16_22  and  C17_23 
REMARK    9  A    between atoms: C17_23  and  N4_24 
ROOT
HETATM    1  C2  UNL     1      22.843   0.113  53.209  1.00  0.00     0.103 A 
HETATM    2  C3  UNL     1      21.617   0.710  52.882  1.00  0.00     0.072 A 
HETATM    3  C4  UNL     1      21.545   2.054  52.515  1.00  0.00     0.075 A 
HETATM    4  N1  UNL     1      20.402   2.683  52.193  1.00  0.00    -0.241 NA
HETATM    5  C5  UNL     1      20.391   3.985  51.847  1.00  0.00     0.235 A 
HETATM    6  N2  UNL     1      21.553   4.661  51.828  1.00  0.00    -0.224 NA
HETATM    7  C6  UNL     1      22.745   4.124  52.133  1.00  0.00     0.137 A 
HETATM    8  C13 UNL     1      22.705   2.793  52.479  1.00  0.00     0.041 A 
HETATM    9  C14 UNL     1      23.883   2.168  52.807  1.00  0.00     0.057 A 
HETATM   10  C15 UNL     1      24.035   0.856  53.177  1.00  0.00     0.103 A 
ENDROOT
BRANCH   7  11
HETATM   11  N3  UNL     1      23.914   4.924  52.079  1.00  0.00    -0.371 N 
HETATM   12  H6  UNL     1      24.528   5.177  52.867  1.00  0.00     0.161 HD
BRANCH  11  13
HETATM   13  C7  UNL     1      24.364   5.487  50.814  1.00  0.00     0.148 C 
BRANCH  13  14
HETATM   14  C8  UNL     1      25.329   4.567  50.182  1.00  0.00    -0.006 C 
HETATM   15  C9  UNL     1      25.135   3.531  49.377  1.00  0.00     0.013 C 
BRANCH  15  16
HETATM   16  C10 UNL     1      23.793   3.142  48.986  1.00  0.00     0.017 A 
HETATM   17  C11 UNL     1      22.725   3.475  48.310  1.00  0.00     0.031 A 
HETATM   18  C12 UNL     1      22.603   2.334  48.906  1.00  0.00     0.139 A 
HETATM   19  F1  UNL     1      22.003   1.176  49.294  1.00  0.00    -0.204 F 
ENDBRANCH  15  16
ENDBRANCH  13  14
ENDBRANCH  11  13
ENDBRANCH   7  11
BRANCH  10  20
HETATM   20  O2  UNL     1      25.057   0.053  53.536  1.00  0.00    -0.347 OA
BRANCH  20  21
HETATM   21  C16 UNL     1      26.396   0.397  53.571  1.00  0.00     0.206 C 
BRANCH  21  22
HETATM   22  C17 UNL     1      27.116   0.163  54.859  1.00  0.00     0.297 C 
BRANCH  22  23
HETATM   23  N4  UNL     1      28.534   0.072  54.541  1.00  0.00     0.082 N 
HETATM   24  C18 UNL     1      29.147   1.345  54.298  1.00  0.00     0.309 C 
HETATM   25  C19 UNL     1      28.811  -0.907  53.510  1.00  0.00     0.309 C 
ENDBRANCH  22  23
ENDBRANCH  21  22
ENDBRANCH  20  21
ENDBRANCH  10  20
BRANCH   1  26
HETATM   26  O1  UNL     1      22.757  -1.231  53.554  1.00  0.00    -0.353 OA
HETATM   27  C1  UNL     1      21.815  -1.631  54.522  1.00  0.00     0.210 C 
ENDBRANCH   1  26
TORSDOF 9
ENDMDL
MODEL 3
REMARK VINA RESULT:      -6.8      2.638      5.808
REMARK  9 active torsions:
REMARK  status: ('A' for Active; 'I' for Inactive)
REMARK    1  A    between atoms: O1_2  and  C2_3 
REMARK    2  A    between atoms: C6_9  and  N3_10 
REMARK    3  A    between atoms: N3_10  and  C7_11 
REMARK    4  A    between atoms: C7_11  and  C8_12 
REMARK    5  A    between atoms: C9_13  and  C10_14 
REMARK    6  A    between atoms: C15_20  and  O2_21 
REMARK    7  A    between atoms: O2_21  and  C16_22 
REMARK    8  A    between atoms: C16_22  and  C17_23 
REMARK    9  A    between atoms: C17_23  and  N4_24 
ROOT
HETATM    1  C2  UNL     1      22.757   0.030  53.161  1.00  0.00     0.103 A 
HETATM    2  C3  UNL     1      21.592   0.737  52.825  1.00  0.00     0.072 A 
HETATM    3  C4  UNL     1      21.653   2.062  52.394  1.00  0.00     0.075 A 
HETATM    4  N1  UNL     1      20.576   2.792  52.061  1.00  0.00    -0.241 NA
HETATM    5  C5  UNL     1      20.693   4.070  51.651  1.00  0.00     0.235 A 
HETATM    6  N2  UNL     1      21.918   4.618  51.579  1.00  0.00    -0.224 NA
HETATM    7  C6  UNL     1      23.055   3.973  51.890  1.00  0.00     0.137 A 
HETATM    8  C13 UNL     1      22.883   2.672  52.302  1.00  0.00     0.041 A 
HETATM    9  C14 UNL     1      23.996   1.943  52.641  1.00  0.00     0.057 A 
HETATM   10  C15 UNL     1      24.019   0.641  53.072  1.00  0.00     0.103 A 
ENDROOT
BRANCH   7  11
HETATM   11  N3  UNL     1      24.299   4.643  51.777  1.00  0.00    -0.371 N 
HETATM   12  H6  UNL     1      24.888   4.989  52.548  1.00  0.00     0.161 HD
BRANCH  11  13
HETATM   13  C7  UNL     1      24.878   4.908  50.467  1.00  0.00     0.148 C 
BRANCH  13  14
HETATM   14  C8  UNL     1      25.659   3.737  50.029  1.00  0.00    -0.006 C 
HETATM   15  C9  UNL     1      26.765   3.659  49.300  1.00  0.00     0.013 C 
BRANCH  15  16
HETATM   16  C10 UNL     1      27.399   4.860  48.792  1.00  0.00     0.017 A 
HETATM   17  C11 UNL     1      28.506   5.390  48.342  1.00  0.00     0.031 A 
HETATM   18  C12 UNL     1      27.527   6.234  48.377  1.00  0.00     0.139 A 
HETATM   19  F1  UNL     1      26.887   7.425  48.223  1.00  0.00    -0.204 F 
ENDBRANCH  15  16
ENDBRANCH  13  14
ENDBRANCH  11  13
ENDBRANCH   7  11
BRANCH  10  20
HETATM   20  O2  UNL     1      24.959  -0.248  53.453  1.00  0.00    -0.347 OA
BRANCH  20  21
HETATM   21  C16 UNL     1      26.214   0.050  53.949  1.00  0.00     0.206 C 
BRANCH  21  22
HETATM   22  C17 UNL     1      27.383  -0.379  53.124  1.00  0.00     0.297 C 
BRANCH  22  23
HETATM   23  N4  UNL     1      28.579  -0.090  53.901  1.00  0.00     0.082 N 
HETATM   24  C18 UNL     1      28.954   1.294  53.880  1.00  0.00     0.309 C 
HETATM   25  C19 UNL     1      29.674  -0.988  53.593  1.00  0.00     0.309 C 
ENDBRANCH  22  23
ENDBRANCH  21  22
ENDBRANCH  20  21
ENDBRANCH  10  20
BRANCH   1  26
HETATM   26  O1  UNL     1      22.537  -1.280  53.573  1.00  0.00    -0.353 OA
HETATM   27  C1  UNL     1      21.614  -1.528  54.606  1.00  0.00     0.210 C 
ENDBRANCH   1  26
TORSDOF 9
ENDMDL
MODEL 4
REMARK VINA RESULT:      -6.6      1.489      2.031
REMARK  9 active torsions:
REMARK  status: ('A' for Active; 'I' for Inactive)
REMARK    1  A    between atoms: O1_2  and  C2_3 
REMARK    2  A    between atoms: C6_9  and  N3_10 
REMARK    3  A    between atoms: N3_10  and  C7_11 
REMARK    4  A    between atoms: C7_11  and  C8_12 
REMARK    5  A    between atoms: C9_13  and  C10_14 
REMARK    6  A    between atoms: C15_20  and  O2_21 
REMARK    7  A    between atoms: O2_21  and  C16_22 
REMARK    8  A    between atoms: C16_22  and  C17_23 
REMARK    9  A    between atoms: C17_23  and  N4_24 
ROOT
HETATM    1  C2  UNL     1      27.197   0.766  53.263  1.00  0.00     0.103 A 
HETATM    2  C3  UNL     1      26.846   0.041  54.411  1.00  0.00     0.072 A 
HETATM    3  C4  UNL     1      25.541  -0.411  54.606  1.00  0.00     0.075 A 
HETATM    4  N1  UNL     1      25.142  -1.106  55.684  1.00  0.00    -0.241 NA
HETATM    5  C5  UNL     1      23.866  -1.518  55.822  1.00  0.00     0.235 A 
HETATM    6  N2  UNL     1      22.981  -1.221  54.855  1.00  0.00    -0.224 NA
HETATM    7  C6  UNL     1      23.281  -0.532  53.741  1.00  0.00     0.137 A 
HETATM    8  C13 UNL     1      24.594  -0.134  53.647  1.00  0.00     0.041 A 
HETATM    9  C14 UNL     1      24.982   0.578  52.539  1.00  0.00     0.057 A 
HETATM   10  C15 UNL     1      26.240   1.056  52.276  1.00  0.00     0.103 A 
ENDROOT
BRANCH   7  11
HETATM   11  N3  UNL     1      22.272  -0.274  52.779  1.00  0.00    -0.371 N 
HETATM   12  H6  UNL     1      22.136  -0.757  51.880  1.00  0.00     0.161 HD
BRANCH  11  13
HETATM   13  C7  UNL     1      21.282   0.769  53.010  1.00  0.00     0.148 C 
BRANCH  13  14
HETATM   14  C8  UNL     1      20.077   0.490  52.207  1.00  0.00    -0.006 C 
HETATM   15  C9  UNL     1      19.867   0.590  50.901  1.00  0.00     0.013 C 
BRANCH  15  16
HETATM   16  C10 UNL     1      20.923   1.043  50.017  1.00  0.00     0.017 A 
HETATM   17  C11 UNL     1      21.310   1.175  48.775  1.00  0.00     0.031 A 
HETATM   18  C12 UNL     1      22.189   1.605  49.621  1.00  0.00     0.139 A 
HETATM   19  F1  UNL     1      23.358   2.153  50.050  1.00  0.00    -0.204 F 
ENDBRANCH  15  16
ENDBRANCH  13  14
ENDBRANCH  11  13
ENDBRANCH   7  11
BRANCH  10  20
HETATM   20  O2  UNL     1      26.834   1.760  51.290  1.00  0.00    -0.347 OA
BRANCH  20  21
HETATM   21  C16 UNL     1      26.496   3.036  50.877  1.00  0.00     0.206 C 
BRANCH  21  22
HETATM   22  C17 UNL     1      26.568   3.309  49.410  1.00  0.00     0.297 C 
BRANCH  22  23
HETATM   23  N4  UNL     1      25.955   4.610  49.191  1.00  0.00     0.082 N 
HETATM   24  C18 UNL     1      26.890   5.621  48.789  1.00  0.00     0.309 C 
HETATM   25  C19 UNL     1      25.104   5.018  50.291  1.00  0.00     0.309 C 
ENDBRANCH  22  23
ENDBRANCH  21  22
ENDBRANCH  20  21
ENDBRANCH  10  20
BRANCH   1  26
HETATM   26  O1  UNL     1      28.533   1.149  53.209  1.00  0.00    -0.353 OA
HETATM   27  C1  UNL     1      29.512   0.297  53.753  1.00  0.00     0.210 C 
ENDBRANCH   1  26
TORSDOF 9
ENDMDL
MODEL 5
REMARK VINA RESULT:      -6.6      2.434      3.358
REMARK  9 active torsions:
REMARK  status: ('A' for Active; 'I' for Inactive)
REMARK    1  A    between atoms: O1_2  and  C2_3 
REMARK    2  A    between atoms: C6_9  and  N3_10 
REMARK    3  A    between atoms: N3_10  and  C7_11 
REMARK    4  A    between atoms: C7_11  and  C8_12 
REMARK    5  A    between atoms: C9_13  and  C10_14 
REMARK    6  A    between atoms: C15_20  and  O2_21 
REMARK    7  A    between atoms: O2_21  and  C16_22 
REMARK    8  A    between atoms: C16_22  and  C17_23 
REMARK    9  A    between atoms: C17_23  and  N4_24 
ROOT
HETATM    1  C2  UNL     1      27.050   0.624  53.254  1.00  0.00     0.103 A 
HETATM    2  C3  UNL     1      26.626  -0.096  54.381  1.00  0.00     0.072 A 
HETATM    3  C4  UNL     1      25.299  -0.505  54.517  1.00  0.00     0.075 A 
HETATM    4  N1  UNL     1      24.832  -1.194  55.572  1.00  0.00    -0.241 NA
HETATM    5  C5  UNL     1      23.538  -1.563  55.652  1.00  0.00     0.235 A 
HETATM    6  N2  UNL     1      22.705  -1.229  54.651  1.00  0.00    -0.224 NA
HETATM    7  C6  UNL     1      23.075  -0.543  53.557  1.00  0.00     0.137 A 
HETATM    8  C13 UNL     1      24.404  -0.190  53.522  1.00  0.00     0.041 A 
HETATM    9  C14 UNL     1      24.862   0.516  52.436  1.00  0.00     0.057 A 
HETATM   10  C15 UNL     1      26.146   0.953  52.230  1.00  0.00     0.103 A 
ENDROOT
BRANCH   7  11
HETATM   11  N3  UNL     1      22.117  -0.244  52.555  1.00  0.00    -0.371 N 
HETATM   12  H6  UNL     1      22.215  -0.394  51.540  1.00  0.00     0.161 HD
BRANCH  11  13
HETATM   13  C7  UNL     1      20.832   0.339  52.915  1.00  0.00     0.148 C 
BRANCH  13  14
HETATM   14  C8  UNL     1      20.023   0.533  51.697  1.00  0.00    -0.006 C 
HETATM   15  C9  UNL     1      18.805   0.105  51.391  1.00  0.00     0.013 C 
BRANCH  15  16
HETATM   16  C10 UNL     1      18.047  -0.697  52.332  1.00  0.00     0.017 A 
HETATM   17  C11 UNL     1      16.873  -0.923  52.859  1.00  0.00     0.031 A 
HETATM   18  C12 UNL     1      17.789  -1.705  53.330  1.00  0.00     0.139 A 
HETATM   19  F1  UNL     1      18.328  -2.694  54.093  1.00  0.00    -0.204 F 
ENDBRANCH  15  16
ENDBRANCH  13  14
ENDBRANCH  11  13
ENDBRANCH   7  11
BRANCH  10  20
HETATM   20  O2  UNL     1      26.804   1.643  51.276  1.00  0.00    -0.347 OA
BRANCH  20  21
HETATM   21  C16 UNL     1      26.615   2.974  50.951  1.00  0.00     0.206 C 
BRANCH  21  22
HETATM   22  C17 UNL     1      26.450   3.294  49.501  1.00  0.00     0.297 C 
BRANCH  22  23
HETATM   23  N4  UNL     1      25.259   4.122  49.384  1.00  0.00     0.082 N 
HETATM   24  C18 UNL     1      25.430   5.447  49.905  1.00  0.00     0.309 C 
HETATM   25  C19 UNL     1      24.069   3.459  49.877  1.00  0.00     0.309 C 
ENDBRANCH  22  23
ENDBRANCH  21  22
ENDBRANCH  20  21
ENDBRANCH  10  20
BRANCH   1  26
HETATM   26  O1  UNL     1      28.399   0.961  53.260  1.00  0.00    -0.353 OA
HETATM   27  C1  UNL     1      29.344  -0.003  53.658  1.00  0.00     0.210 C 
ENDBRANCH   1  26
TORSDOF 9
ENDMDL
MODEL 6
REMARK VINA RESULT:      -6.5      2.567      4.938
REMARK  9 active torsions:
REMARK  status: ('A' for Active; 'I' for Inactive)
REMARK    1  A    between atoms: O1_2  and  C2_3 
REMARK    2  A    between atoms: C6_9  and  N3_10 
REMARK    3  A    between atoms: N3_10  and  C7_11 
REMARK    4  A    between atoms: C7_11  and  C8_12 
REMARK    5  A    between atoms: C9_13  and  C10_14 
REMARK    6  A    between atoms: C15_20  and  O2_21 
REMARK    7  A    between atoms: O2_21  and  C16_22 
REMARK    8  A    between atoms: C16_22  and  C17_23 
REMARK    9  A    between atoms: C17_23  and  N4_24 
ROOT
HETATM    1  C2  UNL     1      23.567  -0.040  53.177  1.00  0.00     0.103 A 
HETATM    2  C3  UNL     1      24.862  -0.271  53.666  1.00  0.00     0.072 A 
HETATM    3  C4  UNL     1      25.932   0.537  53.281  1.00  0.00     0.075 A 
HETATM    4  N1  UNL     1      27.193   0.366  53.712  1.00  0.00    -0.241 NA
HETATM    5  C5  UNL     1      28.189   1.177  53.305  1.00  0.00     0.235 A 
HETATM    6  N2  UNL     1      27.906   2.174  52.450  1.00  0.00    -0.224 NA
HETATM    7  C6  UNL     1      26.680   2.427  51.963  1.00  0.00     0.137 A 
HETATM    8  C13 UNL     1      25.697   1.573  52.407  1.00  0.00     0.041 A 
HETATM    9  C14 UNL     1      24.415   1.762  51.953  1.00  0.00     0.057 A 
HETATM   10  C15 UNL     1      23.314   1.014  52.283  1.00  0.00     0.103 A 
ENDROOT
BRANCH   7  11
HETATM   11  N3  UNL     1      26.487   3.508  51.066  1.00  0.00    -0.371 N 
HETATM   12  H6  UNL     1      26.340   4.498  51.313  1.00  0.00     0.161 HD
BRANCH  11  13
HETATM   13  C7  UNL     1      26.484   3.282  49.628  1.00  0.00     0.148 C 
BRANCH  13  14
HETATM   14  C8  UNL     1      27.293   4.322  48.965  1.00  0.00    -0.006 C 
HETATM   15  C9  UNL     1      26.992   5.570  48.633  1.00  0.00     0.013 C 
BRANCH  15  16
HETATM   16  C10 UNL     1      25.677   6.112  48.916  1.00  0.00     0.017 A 
HETATM   17  C11 UNL     1      24.569   6.583  48.406  1.00  0.00     0.031 A 
HETATM   18  C12 UNL     1      24.556   6.567  49.699  1.00  0.00     0.139 A 
HETATM   19  F1  UNL     1      24.063   6.752  50.953  1.00  0.00    -0.204 F 
ENDBRANCH  15  16
ENDBRANCH  13  14
ENDBRANCH  11  13
ENDBRANCH   7  11
BRANCH  10  20
HETATM   20  O2  UNL     1      22.002   1.011  51.969  1.00  0.00    -0.347 OA
BRANCH  20  21
HETATM   21  C16 UNL     1      21.096   2.022  52.230  1.00  0.00     0.206 C 
BRANCH  21  22
HETATM   22  C17 UNL     1      20.459   2.676  51.047  1.00  0.00     0.297 C 
BRANCH  22  23
HETATM   23  N4  UNL     1      21.219   3.887  50.773  1.00  0.00     0.082 N 
HETATM   24  C18 UNL     1      22.178   3.733  49.719  1.00  0.00     0.309 C 
HETATM   25  C19 UNL     1      21.773   4.480  51.973  1.00  0.00     0.309 C 
ENDBRANCH  22  23
ENDBRANCH  21  22
ENDBRANCH  20  21
ENDBRANCH  10  20
BRANCH   1  26
HETATM   26  O1  UNL     1      22.606  -0.927  53.650  1.00  0.00    -0.353 OA
HETATM   27  C1  UNL     1      22.599  -1.265  55.016  1.00  0.00     0.210 C 
ENDBRANCH   1  26
TORSDOF 9
ENDMDL
MODEL 7
REMARK VINA RESULT:      -6.4      2.617      5.784
REMARK  9 active torsions:
REMARK  status: ('A' for Active; 'I' for Inactive)
REMARK    1  A    between atoms: O1_2  and  C2_3 
REMARK    2  A    between atoms: C6_9  and  N3_10 
REMARK    3  A    between atoms: N3_10  and  C7_11 
REMARK    4  A    between atoms: C7_11  and  C8_12 
REMARK    5  A    between atoms: C9_13  and  C10_14 
REMARK    6  A    between atoms: C15_20  and  O2_21 
REMARK    7  A    between atoms: O2_21  and  C16_22 
REMARK    8  A    between atoms: C16_22  and  C17_23 
REMARK    9  A    between atoms: C17_23  and  N4_24 
ROOT
HETATM    1  C2  UNL     1      26.298   4.112  49.641  1.00  0.00     0.103 A 
HETATM    2  C3  UNL     1      25.386   5.024  49.087  1.00  0.00     0.072 A 
HETATM    3  C4  UNL     1      24.101   5.166  49.612  1.00  0.00     0.075 A 
HETATM    4  N1  UNL     1      23.184   6.018  49.126  1.00  0.00    -0.241 NA
HETATM    5  C5  UNL     1      21.955   6.113  49.672  1.00  0.00     0.235 A 
HETATM    6  N2  UNL     1      21.651   5.334  50.724  1.00  0.00    -0.224 NA
HETATM    7  C6  UNL     1      22.497   4.452  51.282  1.00  0.00     0.137 A 
HETATM    8  C13 UNL     1      23.737   4.392  50.689  1.00  0.00     0.041 A 
HETATM    9  C14 UNL     1      24.661   3.513  51.199  1.00  0.00     0.057 A 
HETATM   10  C15 UNL     1      25.939   3.315  50.741  1.00  0.00     0.103 A 
ENDROOT
BRANCH   7  11
HETATM   11  N3  UNL     1      22.078   3.679  52.393  1.00  0.00    -0.371 N 
HETATM   12  H6  UNL     1      22.516   3.646  53.326  1.00  0.00     0.161 HD
BRANCH  11  13
HETATM   13  C7  UNL     1      20.912   2.812  52.292  1.00  0.00     0.148 C 
BRANCH  13  14
HETATM   14  C8  UNL     1      21.349   1.405  52.232  1.00  0.00    -0.006 C 
HETATM   15  C9  UNL     1      21.688   0.648  51.197  1.00  0.00     0.013 C 
BRANCH  15  16
HETATM   16  C10 UNL     1      21.660   1.186  49.850  1.00  0.00     0.017 A 
HETATM   17  C11 UNL     1      20.928   1.405  48.789  1.00  0.00     0.031 A 
HETATM   18  C12 UNL     1      22.148   1.810  48.647  1.00  0.00     0.139 A 
HETATM   19  F1  UNL     1      23.223   2.368  48.027  1.00  0.00    -0.204 F 
ENDBRANCH  15  16
ENDBRANCH  13  14
ENDBRANCH  11  13
ENDBRANCH   7  11
BRANCH  10  20
HETATM   20  O2  UNL     1      26.986   2.531  51.069  1.00  0.00    -0.347 OA
BRANCH  20  21
HETATM   21  C16 UNL     1      26.950   1.415  51.884  1.00  0.00     0.206 C 
BRANCH  21  22
HETATM   22  C17 UNL     1      27.148   1.643  53.346  1.00  0.00     0.297 C 
BRANCH  22  23
HETATM   23  N4  UNL     1      27.345   0.336  53.956  1.00  0.00     0.082 N 
HETATM   24  C18 UNL     1      28.490   0.275  54.817  1.00  0.00     0.309 C 
HETATM   25  C19 UNL     1      27.293  -0.743  52.990  1.00  0.00     0.309 C 
ENDBRANCH  22  23
ENDBRANCH  21  22
ENDBRANCH  20  21
ENDBRANCH  10  20
BRANCH   1  26
HETATM   26  O1  UNL     1      27.537   4.083  49.012  1.00  0.00    -0.353 OA
HETATM   27  C1  UNL     1      28.044   5.266  48.440  1.00  0.00     0.210 C 
ENDBRANCH   1  26
TORSDOF 9
ENDMDL
MODEL 8
REMARK VINA RESULT:      -6.3      2.329      5.576
REMARK  9 active torsions:
REMARK  status: ('A' for Active; 'I' for Inactive)
REMARK    1  A    between atoms: O1_2  and  C2_3 
REMARK    2  A    between atoms: C6_9  and  N3_10 
REMARK    3  A    between atoms: N3_10  and  C7_11 
REMARK    4  A    between atoms: C7_11  and  C8_12 
REMARK    5  A    between atoms: C9_13  and  C10_14 
REMARK    6  A    between atoms: C15_20  and  O2_21 
REMARK    7  A    between atoms: O2_21  and  C16_22 
REMARK    8  A    between atoms: C16_22  and  C17_23 
REMARK    9  A    between atoms: C17_23  and  N4_24 
ROOT
HETATM    1  C2  UNL     1      25.924   3.760  50.027  1.00  0.00     0.103 A 
HETATM    2  C3  UNL     1      25.046   4.719  49.499  1.00  0.00     0.072 A 
HETATM    3  C4  UNL     1      23.735   4.828  49.964  1.00  0.00     0.075 A 
HETATM    4  N1  UNL     1      22.847   5.722  49.497  1.00  0.00    -0.241 NA
HETATM    5  C5  UNL     1      21.592   5.783  49.982  1.00  0.00     0.235 A 
HETATM    6  N2  UNL     1      21.229   4.926  50.953  1.00  0.00    -0.224 NA
HETATM    7  C6  UNL     1      22.042   3.998  51.484  1.00  0.00     0.137 A 
HETATM    8  C13 UNL     1      23.312   3.975  50.956  1.00  0.00     0.041 A 
HETATM    9  C14 UNL     1      24.204   3.053  51.444  1.00  0.00     0.057 A 
HETATM   10  C15 UNL     1      25.504   2.883  51.041  1.00  0.00     0.103 A 
ENDROOT
BRANCH   7  11
HETATM   11  N3  UNL     1      21.561   3.143  52.508  1.00  0.00    -0.371 N 
HETATM   12  H6  UNL     1      21.955   3.027  53.453  1.00  0.00     0.161 HD
BRANCH  11  13
HETATM   13  C7  UNL     1      20.390   2.307  52.282  1.00  0.00     0.148 C 
BRANCH  13  14
HETATM   14  C8  UNL     1      20.687   1.322  51.225  1.00  0.00    -0.006 C 
HETATM   15  C9  UNL     1      21.381   0.192  51.267  1.00  0.00     0.013 C 
BRANCH  15  16
HETATM   16  C10 UNL     1      21.999  -0.248  52.503  1.00  0.00     0.017 A 
HETATM   17  C11 UNL     1      23.065  -0.191  53.258  1.00  0.00     0.031 A 
HETATM   18  C12 UNL     1      22.135  -0.934  53.763  1.00  0.00     0.139 A 
HETATM   19  F1  UNL     1      21.533  -1.757  54.664  1.00  0.00    -0.204 F 
ENDBRANCH  15  16
ENDBRANCH  13  14
ENDBRANCH  11  13
ENDBRANCH   7  11
BRANCH  10  20
HETATM   20  O2  UNL     1      26.530   2.068  51.362  1.00  0.00    -0.347 OA
BRANCH  20  21
HETATM   21  C16 UNL     1      27.226   2.061  52.557  1.00  0.00     0.206 C 
BRANCH  21  22
HETATM   22  C17 UNL     1      26.562   1.393  53.717  1.00  0.00     0.297 C 
BRANCH  22  23
HETATM   23  N4  UNL     1      27.406   0.270  54.098  1.00  0.00     0.082 N 
HETATM   24  C18 UNL     1      28.735   0.655  54.473  1.00  0.00     0.309 C 
HETATM   25  C19 UNL     1      27.370  -0.808  53.130  1.00  0.00     0.309 C 
ENDBRANCH  22  23
ENDBRANCH  21  22
ENDBRANCH  20  21
ENDBRANCH  10  20
BRANCH   1  26
HETATM   26  O1  UNL     1      27.196   3.771  49.465  1.00  0.00    -0.353 OA
HETATM   27  C1  UNL     1      27.578   4.860  48.658  1.00  0.00     0.210 C 
ENDBRANCH   1  26
TORSDOF 9
ENDMDL
MODEL 9
REMARK VINA RESULT:      -6.3      2.580      5.420
REMARK  9 active torsions:
REMARK  status: ('A' for Active; 'I' for Inactive)
REMARK    1  A    between atoms: O1_2  and  C2_3 
REMARK    2  A    between atoms: C6_9  and  N3_10 
REMARK    3  A    between atoms: N3_10  and  C7_11 
REMARK    4  A    between atoms: C7_11  and  C8_12 
REMARK    5  A    between atoms: C9_13  and  C10_14 
REMARK    6  A    between atoms: C15_20  and  O2_21 
REMARK    7  A    between atoms: O2_21  and  C16_22 
REMARK    8  A    between atoms: C16_22  and  C17_23 
REMARK    9  A    between atoms: C17_23  and  N4_24 
ROOT
HETATM    1  C2  UNL     1      25.655  -0.170  52.909  1.00  0.00     0.103 A 
HETATM    2  C3  UNL     1      26.542   0.550  52.095  1.00  0.00     0.072 A 
HETATM    3  C4  UNL     1      26.167   1.763  51.518  1.00  0.00     0.075 A 
HETATM    4  N1  UNL     1      26.969   2.497  50.728  1.00  0.00    -0.241 NA
HETATM    5  C5  UNL     1      26.554   3.663  50.196  1.00  0.00     0.235 A 
HETATM    6  N2  UNL     1      25.309   4.092  50.466  1.00  0.00    -0.224 NA
HETATM    7  C6  UNL     1      24.433   3.433  51.242  1.00  0.00     0.137 A 
HETATM    8  C13 UNL     1      24.903   2.249  51.761  1.00  0.00     0.041 A 
HETATM    9  C14 UNL     1      24.068   1.512  52.564  1.00  0.00     0.057 A 
HETATM   10  C15 UNL     1      24.361   0.314  53.165  1.00  0.00     0.103 A 
ENDROOT
BRANCH   7  11
HETATM   11  N3  UNL     1      23.143   3.974  51.466  1.00  0.00    -0.371 N 
HETATM   12  H6  UNL     1      22.596   3.932  52.340  1.00  0.00     0.161 HD
BRANCH  11  13
HETATM   13  C7  UNL     1      22.444   4.682  50.402  1.00  0.00     0.148 C 
BRANCH  13  14
HETATM   14  C8  UNL     1      21.018   4.307  50.417  1.00  0.00    -0.006 C 
HETATM   15  C9  UNL     1      20.398   3.246  49.918  1.00  0.00     0.013 C 
BRANCH  15  16
HETATM   16  C10 UNL     1      21.145   2.217  49.219  1.00  0.00     0.017 A 
HETATM   17  C11 UNL     1      21.471   0.952  49.187  1.00  0.00     0.031 A 
HETATM   18  C12 UNL     1      22.002   1.629  48.221  1.00  0.00     0.139 A 
HETATM   19  F1  UNL     1      22.746   1.855  47.105  1.00  0.00    -0.204 F 
ENDBRANCH  15  16
ENDBRANCH  13  14
ENDBRANCH  11  13
ENDBRANCH   7  11
BRANCH  10  20
HETATM   20  O2  UNL     1      23.720  -0.563  53.965  1.00  0.00    -0.347 OA
BRANCH  20  21
HETATM   21  C16 UNL     1      22.398  -0.953  53.859  1.00  0.00     0.206 C 
BRANCH  21  22
HETATM   22  C17 UNL     1      21.426  -0.291  54.780  1.00  0.00     0.297 C 
BRANCH  22  23
HETATM   23  N4  UNL     1      20.262   0.067  53.982  1.00  0.00     0.082 N 
HETATM   24  C18 UNL     1      19.508  -1.066  53.532  1.00  0.00     0.309 C 
HETATM   25  C19 UNL     1      20.580   1.004  52.923  1.00  0.00     0.309 C 
ENDBRANCH  22  23
ENDBRANCH  21  22
ENDBRANCH  20  21
ENDBRANCH  10  20
BRANCH   1  26
HETATM   26  O1  UNL     1      26.170  -1.360  53.412  1.00  0.00    -0.353 OA
HETATM   27  C1  UNL     1      27.104  -2.081  52.643  1.00  0.00     0.210 C 
ENDBRANCH   1  26
TORSDOF 9
ENDMDL
