MODEL 1
REMARK VINA RESULT:      -9.2      0.000      0.000
REMARK  5 active torsions:
REMARK  status: ('A' for Active; 'I' for Inactive)
REMARK    1  A    between atoms: N1_2  and  C2_3 
REMARK    2  A    between atoms: C5_7  and  C6_8 
REMARK    3  A    between atoms: C10_13  and  O1_14 
REMARK    4  A    between atoms: O1_14  and  C11_15 
REMARK    5  A    between atoms: C14_18  and  N4_19 
ROOT
HETATM    1  C11 UNL     1      22.422   3.444  51.204  1.00  0.00     0.078 A 
HETATM    2  C12 UNL     1      23.015   4.014  52.336  1.00  0.00     0.039 A 
HETATM    3  C13 UNL     1      24.160   3.473  52.932  1.00  0.00     0.033 A 
HETATM    4  C14 UNL     1      24.756   2.341  52.421  1.00  0.00     0.046 A 
HETATM    5  C23 UNL     1      24.154   1.799  51.308  1.00  0.00     0.033 A 
HETATM    6  C24 UNL     1      23.028   2.320  50.710  1.00  0.00     0.039 A 
ENDROOT
BRANCH   1   7
HETATM    7  O1  UNL     1      21.330   4.174  50.844  1.00  0.00    -0.291 OA
BRANCH   7   8
HETATM    8  C10 UNL     1      21.005   4.522  49.581  1.00  0.00     0.182 A 
HETATM    9  C6  UNL     1      21.864   5.426  49.001  1.00  0.00     0.047 A 
HETATM   10  C7  UNL     1      21.554   5.809  47.687  1.00  0.00     0.020 A 
HETATM   11  C8  UNL     1      20.455   5.303  47.026  1.00  0.00     0.020 A 
HETATM   12  C9  UNL     1      19.622   4.399  47.643  1.00  0.00     0.119 A 
HETATM   13  N3  UNL     1      19.953   4.063  48.894  1.00  0.00    -0.236 NA
BRANCH   9  14
HETATM   14  C5  UNL     1      23.055   6.060  49.533  1.00  0.00     0.091 A 
HETATM   15  C4  UNL     1      23.141   7.190  50.308  1.00  0.00     0.053 A 
HETATM   16  C3  UNL     1      24.301   7.751  50.788  1.00  0.00     0.139 A 
HETATM   17  N2  UNL     1      25.475   7.158  50.486  1.00  0.00    -0.075 NA
HETATM   18  C2  UNL     1      25.427   6.050  49.730  1.00  0.00     0.722 A 
HETATM   19  N6  UNL     1      24.269   5.538  49.283  1.00  0.00    -0.062 NA
BRANCH  18  20
HETATM   20  N1  UNL     1      26.636   5.380  49.379  1.00  0.00    -0.227 N 
HETATM   21  C1  UNL     1      26.719   3.946  49.566  1.00  0.00     0.165 C 
HETATM   22  H4  UNL     1      27.454   5.879  48.995  1.00  0.00     0.177 HD
ENDBRANCH  18  20
ENDBRANCH   9  14
ENDBRANCH   7   8
ENDBRANCH   1   7
BRANCH   4  23
HETATM   23  N4  UNL     1      25.915   1.723  52.959  1.00  0.00    -0.308 N 
HETATM   24  C15 UNL     1      26.231   0.340  52.596  1.00  0.00     0.182 C 
HETATM   25  C16 UNL     1      27.579  -0.067  52.992  1.00  0.00    -0.031 A 
HETATM   26  C17 UNL     1      27.816  -1.442  52.946  1.00  0.00     0.009 A 
HETATM   27  C21 UNL     1      28.614   0.768  53.397  1.00  0.00    -0.036 A 
HETATM   28  C18 UNL     1      29.055  -1.937  53.298  1.00  0.00     0.001 A 
HETATM   29  C19 UNL     1      30.062  -1.089  53.695  1.00  0.00     0.001 A 
HETATM   30  C20 UNL     1      29.854   0.280  53.751  1.00  0.00     0.009 A 
HETATM   31  C22 UNL     1      28.193   2.202  53.390  1.00  0.00     0.149 C 
HETATM   32  N5  UNL     1      26.812   2.310  53.821  1.00  0.00    -0.233 NA
HETATM   33  H20 UNL     1      26.608   3.258  54.141  1.00  0.00     0.147 HD
ENDBRANCH   4  23
TORSDOF 5
ENDMDL
MODEL 2
REMARK VINA RESULT:      -9.1      2.646      7.462
REMARK  5 active torsions:
REMARK  status: ('A' for Active; 'I' for Inactive)
REMARK    1  A    between atoms: N1_2  and  C2_3 
REMARK    2  A    between atoms: C5_7  and  C6_8 
REMARK    3  A    between atoms: C10_13  and  O1_14 
REMARK    4  A    between atoms: O1_14  and  C11_15 
REMARK    5  A    between atoms: C14_18  and  N4_19 
ROOT
HETATM    1  C11 UNL     1      23.330   2.248  51.305  1.00  0.00     0.078 A 
HETATM    2  C12 UNL     1      24.337   2.343  50.339  1.00  0.00     0.039 A 
HETATM    3  C13 UNL     1      24.957   3.557  50.022  1.00  0.00     0.033 A 
HETATM    4  C14 UNL     1      24.592   4.724  50.659  1.00  0.00     0.046 A 
HETATM    5  C23 UNL     1      23.600   4.604  51.604  1.00  0.00     0.033 A 
HETATM    6  C24 UNL     1      22.981   3.417  51.926  1.00  0.00     0.039 A 
ENDROOT
BRANCH   1   7
HETATM    7  O1  UNL     1      22.912   0.955  51.403  1.00  0.00    -0.291 OA
BRANCH   7   8
HETATM    8  C10 UNL     1      22.381   0.388  52.506  1.00  0.00     0.182 A 
HETATM    9  C6  UNL     1      23.307  -0.109  53.394  1.00  0.00     0.047 A 
HETATM   10  C7  UNL     1      22.788  -0.706  54.552  1.00  0.00     0.020 A 
HETATM   11  C8  UNL     1      21.430  -0.784  54.779  1.00  0.00     0.020 A 
HETATM   12  C9  UNL     1      20.537  -0.273  53.866  1.00  0.00     0.119 A 
HETATM   13  N3  UNL     1      21.074   0.285  52.777  1.00  0.00    -0.236 NA
BRANCH   9  14
HETATM   14  C5  UNL     1      24.756  -0.118  53.326  1.00  0.00     0.091 A 
HETATM   15  C4  UNL     1      25.582  -1.147  52.946  1.00  0.00     0.053 A 
HETATM   16  C3  UNL     1      26.955  -1.103  52.901  1.00  0.00     0.139 A 
HETATM   17  N2  UNL     1      27.573   0.043  53.256  1.00  0.00    -0.075 NA
HETATM   18  C2  UNL     1      26.796   1.069  53.632  1.00  0.00     0.722 A 
HETATM   19  N6  UNL     1      25.456   0.980  53.661  1.00  0.00    -0.062 NA
BRANCH  18  20
HETATM   20  N1  UNL     1      27.393   2.306  54.018  1.00  0.00    -0.227 N 
HETATM   21  C1  UNL     1      28.764   2.570  53.633  1.00  0.00     0.165 C 
HETATM   22  H4  UNL     1      26.884   3.019  54.562  1.00  0.00     0.177 HD
ENDBRANCH  18  20
ENDBRANCH   9  14
ENDBRANCH   7   8
ENDBRANCH   1   7
BRANCH   4  23
HETATM   23  N4  UNL     1      25.163   5.998  50.403  1.00  0.00    -0.308 N 
HETATM   24  C15 UNL     1      26.066   6.170  49.263  1.00  0.00     0.182 C 
HETATM   25  C16 UNL     1      26.351   7.571  48.957  1.00  0.00    -0.031 A 
HETATM   26  C17 UNL     1      27.427   7.778  48.092  1.00  0.00     0.009 A 
HETATM   27  C21 UNL     1      25.666   8.682  49.438  1.00  0.00    -0.036 A 
HETATM   28  C18 UNL     1      27.783   9.063  47.735  1.00  0.00     0.001 A 
HETATM   29  C19 UNL     1      27.089  10.144  48.225  1.00  0.00     0.001 A 
HETATM   30  C20 UNL     1      26.018   9.967  49.086  1.00  0.00     0.009 A 
HETATM   31  C22 UNL     1      24.549   8.284  50.347  1.00  0.00     0.149 C 
HETATM   32  N5  UNL     1      24.950   7.138  51.143  1.00  0.00    -0.233 NA
HETATM   33  H20 UNL     1      24.365   7.057  51.976  1.00  0.00     0.147 HD
ENDBRANCH   4  23
TORSDOF 5
ENDMDL
MODEL 3
REMARK VINA RESULT:      -9.0      4.697      7.754
REMARK  5 active torsions:
REMARK  status: ('A' for Active; 'I' for Inactive)
REMARK    1  A    between atoms: N1_2  and  C2_3 
REMARK    2  A    between atoms: C5_7  and  C6_8 
REMARK    3  A    between atoms: C10_13  and  O1_14 
REMARK    4  A    between atoms: O1_14  and  C11_15 
REMARK    5  A    between atoms: C14_18  and  N4_19 
ROOT
HETATM    1  C11 UNL     1      27.610   6.408  48.167  1.00  0.00     0.078 A 
HETATM    2  C12 UNL     1      27.968   5.101  48.516  1.00  0.00     0.039 A 
HETATM    3  C13 UNL     1      27.093   4.243  49.193  1.00  0.00     0.033 A 
HETATM    4  C14 UNL     1      25.828   4.659  49.549  1.00  0.00     0.046 A 
HETATM    5  C23 UNL     1      25.501   5.948  49.194  1.00  0.00     0.033 A 
HETATM    6  C24 UNL     1      26.350   6.803  48.528  1.00  0.00     0.039 A 
ENDROOT
BRANCH   1   7
HETATM    7  O1  UNL     1      28.649   7.008  47.521  1.00  0.00    -0.291 OA
BRANCH   7   8
HETATM    8  C10 UNL     1      29.357   8.057  47.988  1.00  0.00     0.182 A 
HETATM    9  C6  UNL     1      30.717   7.954  47.803  1.00  0.00     0.047 A 
HETATM   10  C7  UNL     1      31.483   9.028  48.278  1.00  0.00     0.020 A 
HETATM   11  C8  UNL     1      30.900  10.118  48.889  1.00  0.00     0.020 A 
HETATM   12  C9  UNL     1      29.536  10.182  49.054  1.00  0.00     0.119 A 
HETATM   13  N3  UNL     1      28.845   9.137  48.588  1.00  0.00    -0.236 NA
BRANCH   9  14
HETATM   14  C5  UNL     1      31.500   6.899  47.189  1.00  0.00     0.091 A 
HETATM   15  C4  UNL     1      31.994   6.843  45.908  1.00  0.00     0.053 A 
HETATM   16  C3  UNL     1      32.733   5.814  45.375  1.00  0.00     0.139 A 
HETATM   17  N2  UNL     1      33.013   4.751  46.156  1.00  0.00    -0.075 NA
HETATM   18  C2  UNL     1      32.546   4.773  47.413  1.00  0.00     0.722 A 
HETATM   19  N6  UNL     1      31.827   5.801  47.893  1.00  0.00    -0.062 NA
BRANCH  18  20
HETATM   20  N1  UNL     1      32.811   3.676  48.286  1.00  0.00    -0.227 N 
HETATM   21  C1  UNL     1      33.254   2.421  47.716  1.00  0.00     0.165 C 
HETATM   22  H4  UNL     1      32.697   3.744  49.310  1.00  0.00     0.177 HD
ENDBRANCH  18  20
ENDBRANCH   9  14
ENDBRANCH   7   8
ENDBRANCH   1   7
BRANCH   4  23
HETATM   23  N4  UNL     1      24.877   3.861  50.237  1.00  0.00    -0.308 N 
HETATM   24  C15 UNL     1      23.861   3.130  49.476  1.00  0.00     0.182 C 
HETATM   25  C16 UNL     1      23.139   2.143  50.277  1.00  0.00    -0.031 A 
HETATM   26  C17 UNL     1      21.974   1.646  49.689  1.00  0.00     0.009 A 
HETATM   27  C21 UNL     1      23.497   1.671  51.535  1.00  0.00    -0.036 A 
HETATM   28  C18 UNL     1      21.214   0.709  50.358  1.00  0.00     0.001 A 
HETATM   29  C19 UNL     1      21.591   0.258  51.601  1.00  0.00     0.001 A 
HETATM   30  C20 UNL     1      22.742   0.735  52.208  1.00  0.00     0.009 A 
HETATM   31  C22 UNL     1      24.763   2.303  52.016  1.00  0.00     0.149 C 
HETATM   32  N5  UNL     1      24.805   3.693  51.600  1.00  0.00    -0.233 NA
HETATM   33  H20 UNL     1      25.462   4.221  52.176  1.00  0.00     0.147 HD
ENDBRANCH   4  23
TORSDOF 5
ENDMDL
MODEL 4
REMARK VINA RESULT:      -9.0      4.620      7.258
REMARK  5 active torsions:
REMARK  status: ('A' for Active; 'I' for Inactive)
REMARK    1  A    between atoms: N1_2  and  C2_3 
REMARK    2  A    between atoms: C5_7  and  C6_8 
REMARK    3  A    between atoms: C10_13  and  O1_14 
REMARK    4  A    between atoms: O1_14  and  C11_15 
REMARK    5  A    between atoms: C14_18  and  N4_19 
ROOT
HETATM    1  C11 UNL     1      27.549   6.673  48.159  1.00  0.00     0.078 A 
HETATM    2  C12 UNL     1      28.169   5.423  48.264  1.00  0.00     0.039 A 
HETATM    3  C13 UNL     1      27.562   4.341  48.911  1.00  0.00     0.033 A 
HETATM    4  C14 UNL     1      26.311   4.465  49.478  1.00  0.00     0.046 A 
HETATM    5  C23 UNL     1      25.724   5.704  49.360  1.00  0.00     0.033 A 
HETATM    6  C24 UNL     1      26.308   6.778  48.727  1.00  0.00     0.039 A 
ENDROOT
BRANCH   1   7
HETATM    7  O1  UNL     1      28.365   7.531  47.485  1.00  0.00    -0.291 OA
BRANCH   7   8
HETATM    8  C10 UNL     1      29.065   8.542  48.041  1.00  0.00     0.182 A 
HETATM    9  C6  UNL     1      30.429   8.429  47.909  1.00  0.00     0.047 A 
HETATM   10  C7  UNL     1      31.187   9.464  48.477  1.00  0.00     0.020 A 
HETATM   11  C8  UNL     1      30.592  10.526  49.124  1.00  0.00     0.020 A 
HETATM   12  C9  UNL     1      29.223  10.601  49.233  1.00  0.00     0.119 A 
HETATM   13  N3  UNL     1      28.540   9.594  48.680  1.00  0.00    -0.236 NA
BRANCH   9  14
HETATM   14  C5  UNL     1      31.225   7.399  47.269  1.00  0.00     0.091 A 
HETATM   15  C4  UNL     1      31.670   7.353  45.970  1.00  0.00     0.053 A 
HETATM   16  C3  UNL     1      32.424   6.349  45.412  1.00  0.00     0.139 A 
HETATM   17  N2  UNL     1      32.774   5.301  46.188  1.00  0.00    -0.075 NA
HETATM   18  C2  UNL     1      32.357   5.314  47.462  1.00  0.00     0.722 A 
HETATM   19  N6  UNL     1      31.620   6.319  47.965  1.00  0.00    -0.062 NA
BRANCH  18  20
HETATM   20  N1  UNL     1      32.696   4.234  48.330  1.00  0.00    -0.227 N 
HETATM   21  C1  UNL     1      33.004   2.943  47.750  1.00  0.00     0.165 C 
HETATM   22  H4  UNL     1      32.730   4.338  49.356  1.00  0.00     0.177 HD
ENDBRANCH  18  20
ENDBRANCH   9  14
ENDBRANCH   7   8
ENDBRANCH   1   7
BRANCH   4  23
HETATM   23  N4  UNL     1      25.621   3.425  50.152  1.00  0.00    -0.308 N 
HETATM   24  C15 UNL     1      26.378   2.433  50.918  1.00  0.00     0.182 C 
HETATM   25  C16 UNL     1      25.537   1.602  51.778  1.00  0.00    -0.031 A 
HETATM   26  C17 UNL     1      26.160   0.461  52.287  1.00  0.00     0.009 A 
HETATM   27  C21 UNL     1      24.211   1.839  52.123  1.00  0.00    -0.036 A 
HETATM   28  C18 UNL     1      25.458  -0.395  53.110  1.00  0.00     0.001 A 
HETATM   29  C19 UNL     1      24.148  -0.137  53.436  1.00  0.00     0.001 A 
HETATM   30  C20 UNL     1      23.504   0.988  52.945  1.00  0.00     0.009 A 
HETATM   31  C22 UNL     1      23.700   3.096  51.497  1.00  0.00     0.149 C 
HETATM   32  N5  UNL     1      24.258   3.241  50.164  1.00  0.00    -0.233 NA
HETATM   33  H20 UNL     1      23.691   3.879  49.605  1.00  0.00     0.147 HD
ENDBRANCH   4  23
TORSDOF 5
ENDMDL
MODEL 5
REMARK VINA RESULT:      -8.9      3.113      6.994
REMARK  5 active torsions:
REMARK  status: ('A' for Active; 'I' for Inactive)
REMARK    1  A    between atoms: N1_2  and  C2_3 
REMARK    2  A    between atoms: C5_7  and  C6_8 
REMARK    3  A    between atoms: C10_13  and  O1_14 
REMARK    4  A    between atoms: O1_14  and  C11_15 
REMARK    5  A    between atoms: C14_18  and  N4_19 
ROOT
HETATM    1  C11 UNL     1      24.546   3.633  49.561  1.00  0.00     0.078 A 
HETATM    2  C12 UNL     1      25.882   3.228  49.647  1.00  0.00     0.039 A 
HETATM    3  C13 UNL     1      26.944   4.080  49.323  1.00  0.00     0.033 A 
HETATM    4  C14 UNL     1      26.711   5.371  48.900  1.00  0.00     0.046 A 
HETATM    5  C23 UNL     1      25.389   5.745  48.823  1.00  0.00     0.033 A 
HETATM    6  C24 UNL     1      24.334   4.918  49.139  1.00  0.00     0.039 A 
ENDROOT
BRANCH   1   7
HETATM    7  O1  UNL     1      23.732   2.606  49.933  1.00  0.00    -0.291 OA
BRANCH   7   8
HETATM    8  C10 UNL     1      22.582   2.733  50.627  1.00  0.00     0.182 A 
HETATM    9  C6  UNL     1      22.624   2.213  51.900  1.00  0.00     0.047 A 
HETATM   10  C7  UNL     1      21.444   2.329  52.649  1.00  0.00     0.020 A 
HETATM   11  C8  UNL     1      20.316   2.930  52.133  1.00  0.00     0.020 A 
HETATM   12  C9  UNL     1      20.316   3.438  50.855  1.00  0.00     0.119 A 
HETATM   13  N3  UNL     1      21.460   3.306  50.176  1.00  0.00    -0.236 NA
BRANCH   9  14
HETATM   14  C5  UNL     1      23.707   1.554  52.606  1.00  0.00     0.091 A 
HETATM   15  C4  UNL     1      23.794   0.237  52.987  1.00  0.00     0.053 A 
HETATM   16  C3  UNL     1      24.847  -0.339  53.658  1.00  0.00     0.139 A 
HETATM   17  N2  UNL     1      25.903   0.436  53.983  1.00  0.00    -0.075 NA
HETATM   18  C2  UNL     1      25.851   1.727  53.625  1.00  0.00     0.722 A 
HETATM   19  N6  UNL     1      24.800   2.247  52.970  1.00  0.00    -0.062 NA
BRANCH  18  20
HETATM   20  N1  UNL     1      26.938   2.594  53.941  1.00  0.00    -0.227 N 
HETATM   21  C1  UNL     1      28.238   2.324  53.363  1.00  0.00     0.165 C 
HETATM   22  H4  UNL     1      26.833   3.408  54.567  1.00  0.00     0.177 HD
ENDBRANCH  18  20
ENDBRANCH   9  14
ENDBRANCH   7   8
ENDBRANCH   1   7
BRANCH   4  23
HETATM   23  N4  UNL     1      27.722   6.303  48.549  1.00  0.00    -0.308 N 
HETATM   24  C15 UNL     1      27.578   7.707  48.940  1.00  0.00     0.182 C 
HETATM   25  C16 UNL     1      28.805   8.484  48.765  1.00  0.00    -0.031 A 
HETATM   26  C17 UNL     1      28.639   9.869  48.831  1.00  0.00     0.009 A 
HETATM   27  C21 UNL     1      30.082   7.981  48.544  1.00  0.00    -0.036 A 
HETATM   28  C18 UNL     1      29.731  10.699  48.678  1.00  0.00     0.001 A 
HETATM   29  C19 UNL     1      30.984  10.176  48.461  1.00  0.00     0.001 A 
HETATM   30  C20 UNL     1      31.177   8.805  48.391  1.00  0.00     0.009 A 
HETATM   31  C22 UNL     1      30.082   6.488  48.502  1.00  0.00     0.149 C 
HETATM   32  N5  UNL     1      28.872   6.016  47.852  1.00  0.00    -0.233 NA
HETATM   33  H20 UNL     1      28.995   5.060  47.516  1.00  0.00     0.147 HD
ENDBRANCH   4  23
TORSDOF 5
ENDMDL
MODEL 6
REMARK VINA RESULT:      -8.8      3.408      7.283
REMARK  5 active torsions:
REMARK  status: ('A' for Active; 'I' for Inactive)
REMARK    1  A    between atoms: N1_2  and  C2_3 
REMARK    2  A    between atoms: C5_7  and  C6_8 
REMARK    3  A    between atoms: C10_13  and  O1_14 
REMARK    4  A    between atoms: O1_14  and  C11_15 
REMARK    5  A    between atoms: C14_18  and  N4_19 
ROOT
HETATM    1  C11 UNL     1      23.628   1.702  51.013  1.00  0.00     0.078 A 
HETATM    2  C12 UNL     1      23.186   2.598  50.034  1.00  0.00     0.039 A 
HETATM    3  C13 UNL     1      23.987   3.644  49.562  1.00  0.00     0.033 A 
HETATM    4  C14 UNL     1      25.262   3.834  50.052  1.00  0.00     0.046 A 
HETATM    5  C23 UNL     1      25.672   2.940  51.013  1.00  0.00     0.033 A 
HETATM    6  C24 UNL     1      24.895   1.906  51.487  1.00  0.00     0.039 A 
ENDROOT
BRANCH   1   7
HETATM    7  O1  UNL     1      22.646   0.794  51.277  1.00  0.00    -0.291 OA
BRANCH   7   8
HETATM    8  C10 UNL     1      22.333   0.317  52.500  1.00  0.00     0.182 A 
HETATM    9  C6  UNL     1      21.117   0.743  52.983  1.00  0.00     0.047 A 
HETATM   10  C7  UNL     1      20.761   0.265  54.253  1.00  0.00     0.020 A 
HETATM   11  C8  UNL     1      21.585  -0.581  54.965  1.00  0.00     0.020 A 
HETATM   12  C9  UNL     1      22.793  -0.984  54.445  1.00  0.00     0.119 A 
HETATM   13  N3  UNL     1      23.093  -0.504  53.233  1.00  0.00    -0.236 NA
BRANCH   9  14
HETATM   14  C5  UNL     1      20.128   1.620  52.386  1.00  0.00     0.091 A 
HETATM   15  C4  UNL     1      20.206   2.977  52.188  1.00  0.00     0.053 A 
HETATM   16  C3  UNL     1      19.235   3.763  51.615  1.00  0.00     0.139 A 
HETATM   17  N2  UNL     1      18.093   3.176  51.200  1.00  0.00    -0.075 NA
HETATM   18  C2  UNL     1      17.985   1.851  51.377  1.00  0.00     0.722 A 
HETATM   19  N6  UNL     1      18.961   1.122  51.943  1.00  0.00    -0.062 NA
BRANCH  18  20
HETATM   20  N1  UNL     1      16.801   1.175  50.958  1.00  0.00    -0.227 N 
HETATM   21  C1  UNL     1      15.847   0.751  51.961  1.00  0.00     0.165 C 
HETATM   22  H4  UNL     1      16.600   0.976  49.965  1.00  0.00     0.177 HD
ENDBRANCH  18  20
ENDBRANCH   9  14
ENDBRANCH   7   8
ENDBRANCH   1   7
BRANCH   4  23
HETATM   23  N4  UNL     1      26.143   4.865  49.635  1.00  0.00    -0.308 N 
HETATM   24  C15 UNL     1      27.418   4.516  49.004  1.00  0.00     0.182 C 
HETATM   25  C16 UNL     1      28.085   5.658  48.380  1.00  0.00    -0.031 A 
HETATM   26  C17 UNL     1      29.422   5.444  48.040  1.00  0.00     0.009 A 
HETATM   27  C21 UNL     1      27.524   6.900  48.105  1.00  0.00    -0.036 A 
HETATM   28  C18 UNL     1      30.149   6.455  47.444  1.00  0.00     0.001 A 
HETATM   29  C19 UNL     1      29.570   7.674  47.183  1.00  0.00     0.001 A 
HETATM   30  C20 UNL     1      28.245   7.914  47.511  1.00  0.00     0.009 A 
HETATM   31  C22 UNL     1      26.093   6.960  48.531  1.00  0.00     0.149 C 
HETATM   32  N5  UNL     1      25.918   6.216  49.766  1.00  0.00    -0.233 NA
HETATM   33  H20 UNL     1      25.065   6.509  50.243  1.00  0.00     0.147 HD
ENDBRANCH   4  23
TORSDOF 5
ENDMDL
MODEL 7
REMARK VINA RESULT:      -8.8      5.342      8.525
REMARK  5 active torsions:
REMARK  status: ('A' for Active; 'I' for Inactive)
REMARK    1  A    between atoms: N1_2  and  C2_3 
REMARK    2  A    between atoms: C5_7  and  C6_8 
REMARK    3  A    between atoms: C10_13  and  O1_14 
REMARK    4  A    between atoms: O1_14  and  C11_15 
REMARK    5  A    between atoms: C14_18  and  N4_19 
ROOT
HETATM    1  C11 UNL     1      22.314   0.567  53.343  1.00  0.00     0.078 A 
HETATM    2  C12 UNL     1      21.459   0.854  52.274  1.00  0.00     0.039 A 
HETATM    3  C13 UNL     1      20.164   0.327  52.191  1.00  0.00     0.033 A 
HETATM    4  C14 UNL     1      19.676  -0.507  53.174  1.00  0.00     0.046 A 
HETATM    5  C23 UNL     1      20.537  -0.772  54.214  1.00  0.00     0.033 A 
HETATM    6  C24 UNL     1      21.812  -0.262  54.309  1.00  0.00     0.039 A 
ENDROOT
BRANCH   1   7
HETATM    7  O1  UNL     1      23.502   1.211  53.162  1.00  0.00    -0.291 OA
BRANCH   7   8
HETATM    8  C10 UNL     1      24.690   0.609  52.943  1.00  0.00     0.182 A 
HETATM    9  C6  UNL     1      25.529   1.296  52.096  1.00  0.00     0.047 A 
HETATM   10  C7  UNL     1      26.772   0.698  51.847  1.00  0.00     0.020 A 
HETATM   11  C8  UNL     1      27.125  -0.505  52.421  1.00  0.00     0.020 A 
HETATM   12  C9  UNL     1      26.256  -1.160  53.263  1.00  0.00     0.119 A 
HETATM   13  N3  UNL     1      25.082  -0.555  53.472  1.00  0.00    -0.236 NA
BRANCH   9  14
HETATM   14  C5  UNL     1      25.334   2.558  51.408  1.00  0.00     0.091 A 
HETATM   15  C4  UNL     1      24.255   3.405  51.476  1.00  0.00     0.053 A 
HETATM   16  C3  UNL     1      24.120   4.594  50.799  1.00  0.00     0.139 A 
HETATM   17  N2  UNL     1      25.123   4.989  49.987  1.00  0.00    -0.075 NA
HETATM   18  C2  UNL     1      26.194   4.185  49.898  1.00  0.00     0.722 A 
HETATM   19  N6  UNL     1      26.281   3.031  50.579  1.00  0.00    -0.062 NA
BRANCH  18  20
HETATM   20  N1  UNL     1      27.285   4.550  49.056  1.00  0.00    -0.227 N 
HETATM   21  C1  UNL     1      27.355   5.906  48.552  1.00  0.00     0.165 C 
HETATM   22  H4  UNL     1      28.028   3.884  48.793  1.00  0.00     0.177 HD
ENDBRANCH  18  20
ENDBRANCH   9  14
ENDBRANCH   7   8
ENDBRANCH   1   7
BRANCH   4  23
HETATM   23  N4  UNL     1      18.381  -1.087  53.174  1.00  0.00    -0.308 N 
HETATM   24  C15 UNL     1      17.419  -0.706  52.137  1.00  0.00     0.182 C 
HETATM   25  C16 UNL     1      16.244  -1.576  52.092  1.00  0.00    -0.031 A 
HETATM   26  C17 UNL     1      15.175  -1.083  51.341  1.00  0.00     0.009 A 
HETATM   27  C21 UNL     1      16.102  -2.813  52.711  1.00  0.00    -0.036 A 
HETATM   28  C18 UNL     1      14.015  -1.823  51.231  1.00  0.00     0.001 A 
HETATM   29  C19 UNL     1      13.901  -3.044  51.853  1.00  0.00     0.001 A 
HETATM   30  C20 UNL     1      14.946  -3.557  52.604  1.00  0.00     0.009 A 
HETATM   31  C22 UNL     1      17.333  -3.190  53.469  1.00  0.00     0.149 C 
HETATM   32  N5  UNL     1      17.912  -2.007  54.082  1.00  0.00    -0.233 NA
HETATM   33  H20 UNL     1      18.529  -2.267  54.852  1.00  0.00     0.147 HD
ENDBRANCH   4  23
TORSDOF 5
ENDMDL
MODEL 8
REMARK VINA RESULT:      -8.7      4.248      5.928
REMARK  5 active torsions:
REMARK  status: ('A' for Active; 'I' for Inactive)
REMARK    1  A    between atoms: N1_2  and  C2_3 
REMARK    2  A    between atoms: C5_7  and  C6_8 
REMARK    3  A    between atoms: C10_13  and  O1_14 
REMARK    4  A    between atoms: O1_14  and  C11_15 
REMARK    5  A    between atoms: C14_18  and  N4_19 
ROOT
HETATM    1  C11 UNL     1      26.365   6.738  48.630  1.00  0.00     0.078 A 
HETATM    2  C12 UNL     1      25.194   6.642  49.388  1.00  0.00     0.039 A 
HETATM    3  C13 UNL     1      24.832   5.467  50.058  1.00  0.00     0.033 A 
HETATM    4  C14 UNL     1      25.628   4.343  49.995  1.00  0.00     0.046 A 
HETATM    5  C23 UNL     1      26.774   4.464  49.243  1.00  0.00     0.033 A 
HETATM    6  C24 UNL     1      27.143   5.613  48.579  1.00  0.00     0.039 A 
ENDROOT
BRANCH   1   7
HETATM    7  O1  UNL     1      26.461   7.988  48.096  1.00  0.00    -0.291 OA
BRANCH   7   8
HETATM    8  C10 UNL     1      26.721   8.265  46.801  1.00  0.00     0.182 A 
HETATM    9  C6  UNL     1      28.040   8.550  46.533  1.00  0.00     0.047 A 
HETATM   10  C7  UNL     1      28.344   8.844  45.196  1.00  0.00     0.020 A 
HETATM   11  C8  UNL     1      27.374   8.842  44.216  1.00  0.00     0.020 A 
HETATM   12  C9  UNL     1      26.067   8.551  44.526  1.00  0.00     0.119 A 
HETATM   13  N3  UNL     1      25.820   8.279  45.812  1.00  0.00    -0.236 NA
BRANCH   9  14
HETATM   14  C5  UNL     1      29.185   8.599  47.422  1.00  0.00     0.091 A 
HETATM   15  C4  UNL     1      30.105   7.611  47.676  1.00  0.00     0.053 A 
HETATM   16  C3  UNL     1      31.176   7.710  48.532  1.00  0.00     0.139 A 
HETATM   17  N2  UNL     1      31.365   8.869  49.195  1.00  0.00    -0.075 NA
HETATM   18  C2  UNL     1      30.485   9.856  48.970  1.00  0.00     0.722 A 
HETATM   19  N6  UNL     1      29.451   9.715  48.124  1.00  0.00    -0.062 NA
BRANCH  18  20
HETATM   20  N1  UNL     1      30.633  11.105  49.642  1.00  0.00    -0.227 N 
HETATM   21  C1  UNL     1      30.194  12.314  48.975  1.00  0.00     0.165 C 
HETATM   22  H4  UNL     1      31.042  11.180  50.586  1.00  0.00     0.177 HD
ENDBRANCH  18  20
ENDBRANCH   9  14
ENDBRANCH   7   8
ENDBRANCH   1   7
BRANCH   4  23
HETATM   23  N4  UNL     1      25.341   3.111  50.638  1.00  0.00    -0.308 N 
HETATM   24  C15 UNL     1      26.442   2.262  51.098  1.00  0.00     0.182 C 
HETATM   25  C16 UNL     1      26.007   1.179  51.979  1.00  0.00    -0.031 A 
HETATM   26  C17 UNL     1      26.956   0.177  52.194  1.00  0.00     0.009 A 
HETATM   27  C21 UNL     1      24.770   1.061  52.602  1.00  0.00    -0.036 A 
HETATM   28  C18 UNL     1      26.652  -0.893  53.009  1.00  0.00     0.001 A 
HETATM   29  C19 UNL     1      25.421  -0.985  53.614  1.00  0.00     0.001 A 
HETATM   30  C20 UNL     1      24.460  -0.006  53.418  1.00  0.00     0.009 A 
HETATM   31  C22 UNL     1      23.878   2.212  52.268  1.00  0.00     0.149 C 
HETATM   32  N5  UNL     1      24.086   2.607  50.887  1.00  0.00    -0.233 NA
HETATM   33  H20 UNL     1      23.286   3.140  50.542  1.00  0.00     0.147 HD
ENDBRANCH   4  23
TORSDOF 5
ENDMDL
MODEL 9
REMARK VINA RESULT:      -8.6      4.051      5.799
REMARK  5 active torsions:
REMARK  status: ('A' for Active; 'I' for Inactive)
REMARK    1  A    between atoms: N1_2  and  C2_3 
REMARK    2  A    between atoms: C5_7  and  C6_8 
REMARK    3  A    between atoms: C10_13  and  O1_14 
REMARK    4  A    between atoms: O1_14  and  C11_15 
REMARK    5  A    between atoms: C14_18  and  N4_19 
ROOT
HETATM    1  C11 UNL     1      26.572   6.698  48.709  1.00  0.00     0.078 A 
HETATM    2  C12 UNL     1      25.462   6.685  49.560  1.00  0.00     0.039 A 
HETATM    3  C13 UNL     1      25.045   5.527  50.226  1.00  0.00     0.033 A 
HETATM    4  C14 UNL     1      25.721   4.336  50.065  1.00  0.00     0.046 A 
HETATM    5  C23 UNL     1      26.808   4.376  49.223  1.00  0.00     0.033 A 
HETATM    6  C24 UNL     1      27.231   5.508  48.562  1.00  0.00     0.039 A 
ENDROOT
BRANCH   1   7
HETATM    7  O1  UNL     1      26.744   7.952  48.203  1.00  0.00    -0.291 OA
BRANCH   7   8
HETATM    8  C10 UNL     1      27.085   8.239  46.929  1.00  0.00     0.182 A 
HETATM    9  C6  UNL     1      28.435   8.400  46.724  1.00  0.00     0.047 A 
HETATM   10  C7  UNL     1      28.824   8.700  45.410  1.00  0.00     0.020 A 
HETATM   11  C8  UNL     1      27.902   8.822  44.392  1.00  0.00     0.020 A 
HETATM   12  C9  UNL     1      26.560   8.653  44.640  1.00  0.00     0.119 A 
HETATM   13  N3  UNL     1      26.233   8.369  45.905  1.00  0.00    -0.236 NA
BRANCH   9  14
HETATM   14  C5  UNL     1      29.541   8.309  47.659  1.00  0.00     0.091 A 
HETATM   15  C4  UNL     1      29.987   9.263  48.541  1.00  0.00     0.053 A 
HETATM   16  C3  UNL     1      31.044   9.125  49.409  1.00  0.00     0.139 A 
HETATM   17  N2  UNL     1      31.723   7.959  49.415  1.00  0.00    -0.075 NA
HETATM   18  C2  UNL     1      31.314   7.005  48.565  1.00  0.00     0.722 A 
HETATM   19  N6  UNL     1      30.274   7.185  47.734  1.00  0.00    -0.062 NA
BRANCH  18  20
HETATM   20  N1  UNL     1      31.993   5.752  48.526  1.00  0.00    -0.227 N 
HETATM   21  C1  UNL     1      31.573   4.759  47.559  1.00  0.00     0.165 C 
HETATM   22  H4  UNL     1      32.773   5.526  49.163  1.00  0.00     0.177 HD
ENDBRANCH  18  20
ENDBRANCH   9  14
ENDBRANCH   7   8
ENDBRANCH   1   7
BRANCH   4  23
HETATM   23  N4  UNL     1      25.370   3.115  50.697  1.00  0.00    -0.308 N 
HETATM   24  C15 UNL     1      26.424   2.192  51.122  1.00  0.00     0.182 C 
HETATM   25  C16 UNL     1      25.939   1.124  51.996  1.00  0.00    -0.031 A 
HETATM   26  C17 UNL     1      26.828   0.063  52.177  1.00  0.00     0.009 A 
HETATM   27  C21 UNL     1      24.710   1.074  52.643  1.00  0.00    -0.036 A 
HETATM   28  C18 UNL     1      26.473  -0.999  52.984  1.00  0.00     0.001 A 
HETATM   29  C19 UNL     1      25.250  -1.024  53.612  1.00  0.00     0.001 A 
HETATM   30  C20 UNL     1      24.349   0.016  53.450  1.00  0.00     0.009 A 
HETATM   31  C22 UNL     1      23.885   2.284  52.343  1.00  0.00     0.149 C 
HETATM   32  N5  UNL     1      24.090   2.687  50.964  1.00  0.00    -0.233 NA
HETATM   33  H20 UNL     1      23.319   3.274  50.642  1.00  0.00     0.147 HD
ENDBRANCH   4  23
TORSDOF 5
ENDMDL
