MODEL 1
REMARK VINA RESULT:     -10.0      0.000      0.000
REMARK  1 active torsions:
REMARK  status: ('A' for Active; 'I' for Inactive)
REMARK    1  A    between atoms: N1_1  and  C1_2 
ROOT
HETATM    1  C1  UNL     1      24.046   2.706  52.169  1.00  0.00     0.258 C 
HETATM    2  C2  UNL     1      23.622   1.348  51.616  1.00  0.00     0.083 C 
HETATM    3  C3  UNL     1      22.914   0.509  52.554  1.00  0.00     0.001 A 
HETATM    4  C4  UNL     1      23.661  -0.036  53.532  1.00  0.00     0.132 A 
HETATM    5  N2  UNL     1      25.030   0.312  53.473  1.00  0.00    -0.224 NA
HETATM    6  C5  UNL     1      25.970  -0.412  52.986  1.00  0.00     0.237 C 
HETATM    7  N3  UNL     1      26.924   0.621  53.310  1.00  0.00    -0.230 NA
HETATM    8  C6  UNL     1      27.192   1.558  52.434  1.00  0.00     0.260 C 
HETATM    9  O1  UNL     1      26.720   1.782  51.171  1.00  0.00    -0.303 OA
HETATM   10  C7  UNL     1      26.042   2.877  50.712  1.00  0.00     0.085 A 
HETATM   11  C8  UNL     1      26.760   3.518  49.707  1.00  0.00     0.039 A 
HETATM   12  C9  UNL     1      26.274   4.668  49.075  1.00  0.00     0.022 A 
HETATM   13  C10 UNL     1      25.058   5.184  49.450  1.00  0.00     0.011 A 
HETATM   14 BR1  UNL     1      24.265   6.731  48.692  1.00  0.00    -0.051 Br
HETATM   15  C11 UNL     1      24.381   4.517  50.448  1.00  0.00     0.031 A 
HETATM   16  C12 UNL     1      24.819   3.385  51.097  1.00  0.00     0.010 A 
HETATM   17  N4  UNL     1      23.071  -0.880  54.511  1.00  0.00    -0.370 N 
HETATM   18  C13 UNL     1      21.671  -1.227  54.559  1.00  0.00     0.160 A 
HETATM   19  C14 UNL     1      20.976  -0.571  53.447  1.00  0.00    -0.030 A 
HETATM   20  C15 UNL     1      19.608  -0.845  53.406  1.00  0.00     0.010 A 
HETATM   21  C16 UNL     1      18.807  -0.294  52.404  1.00  0.00     0.001 A 
HETATM   22  C17 UNL     1      19.363   0.535  51.434  1.00  0.00     0.001 A 
HETATM   23  C18 UNL     1      20.719   0.793  51.492  1.00  0.00     0.012 A 
HETATM   24  C19 UNL     1      21.489   0.249  52.475  1.00  0.00    -0.018 A 
HETATM   25  H11 UNL     1      23.775  -1.219  55.194  1.00  0.00     0.161 HD
ENDROOT
BRANCH   1  26
HETATM   26  N1  UNL     1      22.892   3.441  52.577  1.00  0.00     0.087 N 
HETATM   27  H1  UNL     1      22.189   3.467  51.810  1.00  0.00     0.313 HD
HETATM   28  H2  UNL     1      22.493   3.177  53.488  1.00  0.00     0.313 HD
ENDBRANCH   1  26
TORSDOF 1
ENDMDL
MODEL 2
REMARK VINA RESULT:      -9.4      2.818      6.118
REMARK  1 active torsions:
REMARK  status: ('A' for Active; 'I' for Inactive)
REMARK    1  A    between atoms: N1_1  and  C1_2 
ROOT
HETATM    1  C1  UNL     1      23.074   1.214  51.644  1.00  0.00     0.258 C 
HETATM    2  C2  UNL     1      23.512   2.469  52.396  1.00  0.00     0.083 C 
HETATM    3  C3  UNL     1      24.209   3.443  51.589  1.00  0.00     0.001 A 
HETATM    4  C4  UNL     1      25.468   3.119  51.239  1.00  0.00     0.132 A 
HETATM    5  N2  UNL     1      25.897   1.864  51.727  1.00  0.00    -0.224 NA
HETATM    6  C5  UNL     1      26.629   1.669  52.762  1.00  0.00     0.237 C 
HETATM    7  N3  UNL     1      26.569   0.246  52.527  1.00  0.00    -0.230 NA
HETATM    8  C6  UNL     1      25.611  -0.464  53.071  1.00  0.00     0.260 C 
HETATM    9  O1  UNL     1      24.567  -0.111  53.882  1.00  0.00    -0.303 OA
HETATM   10  C7  UNL     1      23.230  -0.251  53.636  1.00  0.00     0.085 A 
HETATM   11  C8  UNL     1      22.640  -1.098  54.569  1.00  0.00     0.039 A 
HETATM   12  C9  UNL     1      21.274  -1.399  54.528  1.00  0.00     0.022 A 
HETATM   13  C10 UNL     1      20.488  -0.849  53.545  1.00  0.00     0.011 A 
HETATM   14 BR1  UNL     1      18.627  -1.158  53.357  1.00  0.00    -0.051 Br
HETATM   15  C11 UNL     1      21.113  -0.016  52.644  1.00  0.00     0.031 A 
HETATM   16  C12 UNL     1      22.452   0.309  52.645  1.00  0.00     0.010 A 
HETATM   17  N4  UNL     1      26.250   4.003  50.447  1.00  0.00    -0.370 N 
HETATM   18  C13 UNL     1      25.799   5.282  49.956  1.00  0.00     0.160 A 
HETATM   19  C14 UNL     1      24.422   5.509  50.405  1.00  0.00    -0.030 A 
HETATM   20  C15 UNL     1      23.890   6.728  49.978  1.00  0.00     0.010 A 
HETATM   21  C16 UNL     1      22.588   7.091  50.324  1.00  0.00     0.001 A 
HETATM   22  C17 UNL     1      21.802   6.242  51.100  1.00  0.00     0.001 A 
HETATM   23  C18 UNL     1      22.347   5.041  51.513  1.00  0.00     0.012 A 
HETATM   24  C19 UNL     1      23.620   4.699  51.167  1.00  0.00    -0.018 A 
HETATM   25  H11 UNL     1      27.194   3.612  50.262  1.00  0.00     0.161 HD
ENDROOT
BRANCH   1  26
HETATM   26  N1  UNL     1      22.186   1.573  50.586  1.00  0.00     0.087 N 
HETATM   27  H1  UNL     1      22.497   2.459  50.136  1.00  0.00     0.313 HD
HETATM   28  H2  UNL     1      21.969   0.828  49.910  1.00  0.00     0.313 HD
ENDBRANCH   1  26
TORSDOF 1
ENDMDL
MODEL 3
REMARK VINA RESULT:      -9.1      2.187      3.765
REMARK  1 active torsions:
REMARK  status: ('A' for Active; 'I' for Inactive)
REMARK    1  A    between atoms: N1_1  and  C1_2 
ROOT
HETATM    1  C1  UNL     1      21.496   1.395  52.795  1.00  0.00     0.258 C 
HETATM    2  C2  UNL     1      20.987   0.205  51.985  1.00  0.00     0.083 C 
HETATM    3  C3  UNL     1      19.654  -0.232  52.327  1.00  0.00     0.001 A 
HETATM    4  C4  UNL     1      19.532  -0.879  53.501  1.00  0.00     0.132 A 
HETATM    5  N2  UNL     1      20.747  -1.022  54.209  1.00  0.00    -0.224 NA
HETATM    6  C5  UNL     1      21.483  -2.071  54.236  1.00  0.00     0.237 C 
HETATM    7  N3  UNL     1      22.411  -1.390  55.106  1.00  0.00    -0.230 NA
HETATM    8  C6  UNL     1      23.405  -0.707  54.591  1.00  0.00     0.260 C 
HETATM    9  O1  UNL     1      23.779  -0.485  53.295  1.00  0.00    -0.303 OA
HETATM   10  C7  UNL     1      23.873   0.712  52.643  1.00  0.00     0.085 A 
HETATM   11  C8  UNL     1      25.181   0.953  52.234  1.00  0.00     0.039 A 
HETATM   12  C9  UNL     1      25.532   2.118  51.543  1.00  0.00     0.022 A 
HETATM   13  C10 UNL     1      24.569   3.053  51.257  1.00  0.00     0.011 A 
HETATM   14 BR1  UNL     1      24.886   4.678  50.331  1.00  0.00    -0.051 Br
HETATM   15  C11 UNL     1      23.288   2.774  51.680  1.00  0.00     0.031 A 
HETATM   16  C12 UNL     1      22.895   1.643  52.361  1.00  0.00     0.010 A 
HETATM   17  N4  UNL     1      18.266  -1.355  53.939  1.00  0.00    -0.370 N 
HETATM   18  C13 UNL     1      17.034  -1.202  53.205  1.00  0.00     0.160 A 
HETATM   19  C14 UNL     1      17.305  -0.484  51.955  1.00  0.00    -0.030 A 
HETATM   20  C15 UNL     1      16.169  -0.284  51.169  1.00  0.00     0.010 A 
HETATM   21  C16 UNL     1      16.263   0.384  49.947  1.00  0.00     0.001 A 
HETATM   22  C17 UNL     1      17.492   0.859  49.497  1.00  0.00     0.001 A 
HETATM   23  C18 UNL     1      18.605   0.650  50.289  1.00  0.00     0.012 A 
HETATM   24  C19 UNL     1      18.498  -0.004  51.480  1.00  0.00    -0.018 A 
HETATM   25  H11 UNL     1      18.337  -1.830  54.859  1.00  0.00     0.161 HD
ENDROOT
BRANCH   1  26
HETATM   26  N1  UNL     1      20.638   2.517  52.589  1.00  0.00     0.087 N 
HETATM   27  H1  UNL     1      20.409   2.618  51.579  1.00  0.00     0.313 HD
HETATM   28  H2  UNL     1      19.813   2.569  53.202  1.00  0.00     0.313 HD
ENDBRANCH   1  26
TORSDOF 1
ENDMDL
MODEL 4
REMARK VINA RESULT:      -9.1      3.141      7.388
REMARK  1 active torsions:
REMARK  status: ('A' for Active; 'I' for Inactive)
REMARK    1  A    between atoms: N1_1  and  C1_2 
ROOT
HETATM    1  C1  UNL     1      23.437   3.311  51.782  1.00  0.00     0.258 C 
HETATM    2  C2  UNL     1      23.695   3.260  50.278  1.00  0.00     0.083 C 
HETATM    3  C3  UNL     1      23.927   4.545  49.661  1.00  0.00     0.001 A 
HETATM    4  C4  UNL     1      22.843   5.333  49.526  1.00  0.00     0.132 A 
HETATM    5  N2  UNL     1      21.649   4.760  50.020  1.00  0.00    -0.224 NA
HETATM    6  C5  UNL     1      20.744   4.185  49.317  1.00  0.00     0.237 C 
HETATM    7  N3  UNL     1      19.982   3.935  50.516  1.00  0.00    -0.230 NA
HETATM    8  C6  UNL     1      20.167   2.823  51.185  1.00  0.00     0.260 C 
HETATM    9  O1  UNL     1      21.001   1.761  50.969  1.00  0.00    -0.303 OA
HETATM   10  C7  UNL     1      21.995   1.297  51.784  1.00  0.00     0.085 A 
HETATM   11  C8  UNL     1      21.730  -0.005  52.196  1.00  0.00     0.039 A 
HETATM   12  C9  UNL     1      22.603  -0.702  53.039  1.00  0.00     0.022 A 
HETATM   13  C10 UNL     1      23.753  -0.092  53.476  1.00  0.00     0.011 A 
HETATM   14 BR1  UNL     1      25.033  -0.901  54.618  1.00  0.00    -0.051 Br
HETATM   15  C11 UNL     1      23.976   1.197  53.044  1.00  0.00     0.031 A 
HETATM   16  C12 UNL     1      23.147   1.920  52.216  1.00  0.00     0.010 A 
HETATM   17  N4  UNL     1      22.952   6.620  48.932  1.00  0.00    -0.370 N 
HETATM   18  C13 UNL     1      24.179   7.191  48.432  1.00  0.00     0.160 A 
HETATM   19  C14 UNL     1      25.272   6.237  48.640  1.00  0.00    -0.030 A 
HETATM   20  C15 UNL     1      26.510   6.700  48.188  1.00  0.00     0.010 A 
HETATM   21  C16 UNL     1      27.651   5.906  48.314  1.00  0.00     0.001 A 
HETATM   22  C17 UNL     1      27.569   4.642  48.893  1.00  0.00     0.001 A 
HETATM   23  C18 UNL     1      26.336   4.202  49.333  1.00  0.00     0.012 A 
HETATM   24  C19 UNL     1      25.229   4.988  49.204  1.00  0.00    -0.018 A 
HETATM   25  H11 UNL     1      22.033   7.103  48.901  1.00  0.00     0.161 HD
ENDROOT
BRANCH   1  26
HETATM   26  N1  UNL     1      24.566   3.880  52.444  1.00  0.00     0.087 N 
HETATM   27  H1  UNL     1      25.203   3.131  52.783  1.00  0.00     0.313 HD
HETATM   28  H2  UNL     1      25.054   4.630  51.935  1.00  0.00     0.313 HD
ENDBRANCH   1  26
TORSDOF 1
ENDMDL
MODEL 5
REMARK VINA RESULT:      -9.0      2.655      4.796
REMARK  1 active torsions:
REMARK  status: ('A' for Active; 'I' for Inactive)
REMARK    1  A    between atoms: N1_1  and  C1_2 
ROOT
HETATM    1  C1  UNL     1      24.027   3.977  50.743  1.00  0.00     0.258 C 
HETATM    2  C2  UNL     1      23.912   3.709  52.242  1.00  0.00     0.083 C 
HETATM    3  C3  UNL     1      23.714   2.323  52.594  1.00  0.00     0.001 A 
HETATM    4  C4  UNL     1      22.492   1.821  52.332  1.00  0.00     0.132 A 
HETATM    5  N2  UNL     1      21.601   2.750  51.748  1.00  0.00    -0.224 NA
HETATM    6  C5  UNL     1      20.690   3.409  52.365  1.00  0.00     0.237 C 
HETATM    7  N3  UNL     1      20.315   4.040  51.123  1.00  0.00    -0.230 NA
HETATM    8  C6  UNL     1      20.885   5.165  50.766  1.00  0.00     0.260 C 
HETATM    9  O1  UNL     1      21.841   5.931  51.373  1.00  0.00    -0.303 OA
HETATM   10  C7  UNL     1      23.078   6.260  50.896  1.00  0.00     0.085 A 
HETATM   11  C8  UNL     1      23.198   7.637  50.737  1.00  0.00     0.039 A 
HETATM   12  C9  UNL     1      24.377   8.222  50.260  1.00  0.00     0.022 A 
HETATM   13  C10 UNL     1      25.447   7.425  49.938  1.00  0.00     0.011 A 
HETATM   14 BR1  UNL     1      27.108   8.065  49.282  1.00  0.00    -0.051 Br
HETATM   15  C11 UNL     1      25.285   6.068  50.112  1.00  0.00     0.031 A 
HETATM   16  C12 UNL     1      24.147   5.448  50.577  1.00  0.00     0.010 A 
HETATM   17  N4  UNL     1      22.183   0.468  52.637  1.00  0.00    -0.370 N 
HETATM   18  C13 UNL     1      23.103  -0.469  53.234  1.00  0.00     0.160 A 
HETATM   19  C14 UNL     1      24.387   0.200  53.464  1.00  0.00    -0.030 A 
HETATM   20  C15 UNL     1      25.352  -0.628  54.041  1.00  0.00     0.010 A 
HETATM   21  C16 UNL     1      26.628  -0.137  54.324  1.00  0.00     0.001 A 
HETATM   22  C17 UNL     1      26.954   1.185  54.034  1.00  0.00     0.001 A 
HETATM   23  C18 UNL     1      25.985   1.988  53.464  1.00  0.00     0.012 A 
HETATM   24  C19 UNL     1      24.744   1.496  53.193  1.00  0.00    -0.018 A 
HETATM   25  H11 UNL     1      21.205   0.234  52.377  1.00  0.00     0.161 HD
ENDROOT
BRANCH   1  26
HETATM   26  N1  UNL     1      25.142   3.261  50.211  1.00  0.00     0.087 N 
HETATM   27  H1  UNL     1      25.926   3.913  50.004  1.00  0.00     0.313 HD
HETATM   28  H2  UNL     1      25.433   2.428  50.740  1.00  0.00     0.313 HD
ENDBRANCH   1  26
TORSDOF 1
ENDMDL
MODEL 6
REMARK VINA RESULT:      -8.7      1.986      2.833
REMARK  1 active torsions:
REMARK  status: ('A' for Active; 'I' for Inactive)
REMARK    1  A    between atoms: N1_1  and  C1_2 
ROOT
HETATM    1  C1  UNL     1      23.279   3.556  51.674  1.00  0.00     0.258 C 
HETATM    2  C2  UNL     1      23.287   2.084  51.267  1.00  0.00     0.083 C 
HETATM    3  C3  UNL     1      23.672   1.170  52.317  1.00  0.00     0.001 A 
HETATM    4  C4  UNL     1      24.979   1.167  52.641  1.00  0.00     0.132 A 
HETATM    5  N2  UNL     1      25.761   2.073  51.888  1.00  0.00    -0.224 NA
HETATM    6  C5  UNL     1      26.488   1.778  50.874  1.00  0.00     0.237 C 
HETATM    7  N3  UNL     1      26.876   3.163  50.758  1.00  0.00    -0.230 NA
HETATM    8  C6  UNL     1      26.169   3.978  50.014  1.00  0.00     0.260 C 
HETATM    9  O1  UNL     1      25.046   3.776  49.261  1.00  0.00    -0.303 OA
HETATM   10  C7  UNL     1      23.825   4.374  49.401  1.00  0.00     0.085 A 
HETATM   11  C8  UNL     1      23.500   5.108  48.265  1.00  0.00     0.039 A 
HETATM   12  C9  UNL     1      22.295   5.813  48.165  1.00  0.00     0.022 A 
HETATM   13  C10 UNL     1      21.405   5.786  49.211  1.00  0.00     0.011 A 
HETATM   14 BR1  UNL     1      19.736   6.686  49.228  1.00  0.00    -0.051 Br
HETATM   15  C11 UNL     1      21.768   5.046  50.315  1.00  0.00     0.031 A 
HETATM   16  C12 UNL     1      22.940   4.337  50.457  1.00  0.00     0.010 A 
HETATM   17  N4  UNL     1      25.472   0.307  53.658  1.00  0.00    -0.370 N 
HETATM   18  C13 UNL     1      24.661  -0.614  54.418  1.00  0.00     0.160 A 
HETATM   19  C14 UNL     1      23.270  -0.510  53.969  1.00  0.00    -0.030 A 
HETATM   20  C15 UNL     1      22.400  -1.366  54.649  1.00  0.00     0.010 A 
HETATM   21  C16 UNL     1      21.040  -1.386  54.335  1.00  0.00     0.001 A 
HETATM   22  C17 UNL     1      20.534  -0.552  53.342  1.00  0.00     0.001 A 
HETATM   23  C18 UNL     1      21.411   0.287  52.681  1.00  0.00     0.012 A 
HETATM   24  C19 UNL     1      22.736   0.296  52.997  1.00  0.00    -0.018 A 
HETATM   25  H11 UNL     1      26.496   0.422  53.790  1.00  0.00     0.161 HD
ENDROOT
BRANCH   1  26
HETATM   26  N1  UNL     1      22.354   3.754  52.743  1.00  0.00     0.087 N 
HETATM   27  H1  UNL     1      21.514   3.153  52.612  1.00  0.00     0.313 HD
HETATM   28  H2  UNL     1      22.748   3.701  53.693  1.00  0.00     0.313 HD
ENDBRANCH   1  26
TORSDOF 1
ENDMDL
MODEL 7
REMARK VINA RESULT:      -8.7      2.754      5.598
REMARK  1 active torsions:
REMARK  status: ('A' for Active; 'I' for Inactive)
REMARK    1  A    between atoms: N1_1  and  C1_2 
ROOT
HETATM    1  C1  UNL     1      24.146   2.321  52.932  1.00  0.00     0.258 C 
HETATM    2  C2  UNL     1      23.764   2.069  51.475  1.00  0.00     0.083 C 
HETATM    3  C3  UNL     1      22.668   2.877  50.990  1.00  0.00     0.001 A 
HETATM    4  C4  UNL     1      21.448   2.543  51.449  1.00  0.00     0.132 A 
HETATM    5  N2  UNL     1      21.447   1.445  52.340  1.00  0.00    -0.224 NA
HETATM    6  C5  UNL     1      21.156   0.233  52.040  1.00  0.00     0.237 C 
HETATM    7  N3  UNL     1      21.395  -0.156  53.408  1.00  0.00    -0.230 NA
HETATM    8  C6  UNL     1      22.593  -0.536  53.778  1.00  0.00     0.260 C 
HETATM    9  O1  UNL     1      23.765  -0.651  53.083  1.00  0.00    -0.303 OA
HETATM   10  C7  UNL     1      24.942   0.006  53.310  1.00  0.00     0.085 A 
HETATM   11  C8  UNL     1      25.957  -0.892  53.625  1.00  0.00     0.039 A 
HETATM   12  C9  UNL     1      27.260  -0.462  53.899  1.00  0.00     0.022 A 
HETATM   13  C10 UNL     1      27.553   0.879  53.860  1.00  0.00     0.011 A 
HETATM   14 BR1  UNL     1      29.266   1.617  54.207  1.00  0.00    -0.051 Br
HETATM   15  C11 UNL     1      26.519   1.732  53.544  1.00  0.00     0.031 A 
HETATM   16  C12 UNL     1      25.224   1.355  53.266  1.00  0.00     0.010 A 
HETATM   17  N4  UNL     1      20.296   3.267  51.039  1.00  0.00    -0.370 N 
HETATM   18  C13 UNL     1      20.312   4.386  50.128  1.00  0.00     0.160 A 
HETATM   19  C14 UNL     1      21.693   4.643  49.709  1.00  0.00    -0.030 A 
HETATM   20  C15 UNL     1      21.815   5.715  48.822  1.00  0.00     0.010 A 
HETATM   21  C16 UNL     1      23.068   6.085  48.329  1.00  0.00     0.001 A 
HETATM   22  C17 UNL     1      24.210   5.390  48.717  1.00  0.00     0.001 A 
HETATM   23  C18 UNL     1      24.068   4.333  49.594  1.00  0.00     0.012 A 
HETATM   24  C19 UNL     1      22.839   3.982  50.068  1.00  0.00    -0.018 A 
HETATM   25  H11 UNL     1      19.434   2.890  51.478  1.00  0.00     0.161 HD
ENDROOT
BRANCH   1  26
HETATM   26  N1  UNL     1      24.543   3.682  53.096  1.00  0.00     0.087 N 
HETATM   27  H1  UNL     1      25.579   3.764  53.060  1.00  0.00     0.313 HD
HETATM   28  H2  UNL     1      24.058   4.366  52.499  1.00  0.00     0.313 HD
ENDBRANCH   1  26
TORSDOF 1
ENDMDL
MODEL 8
REMARK VINA RESULT:      -8.2      3.450      7.650
REMARK  1 active torsions:
REMARK  status: ('A' for Active; 'I' for Inactive)
REMARK    1  A    between atoms: N1_1  and  C1_2 
ROOT
HETATM    1  C1  UNL     1      21.859   3.417  51.585  1.00  0.00     0.258 C 
HETATM    2  C2  UNL     1      22.348   3.257  50.147  1.00  0.00     0.083 C 
HETATM    3  C3  UNL     1      23.065   4.396  49.623  1.00  0.00     0.001 A 
HETATM    4  C4  UNL     1      22.315   5.475  49.329  1.00  0.00     0.132 A 
HETATM    5  N2  UNL     1      20.936   5.306  49.589  1.00  0.00    -0.224 NA
HETATM    6  C5  UNL     1      20.036   5.021  48.721  1.00  0.00     0.237 C 
HETATM    7  N3  UNL     1      19.036   5.041  49.760  1.00  0.00    -0.230 NA
HETATM    8  C6  UNL     1      18.753   3.941  50.414  1.00  0.00     0.260 C 
HETATM    9  O1  UNL     1      19.248   2.671  50.311  1.00  0.00    -0.303 OA
HETATM   10  C7  UNL     1      19.894   1.942  51.270  1.00  0.00     0.085 A 
HETATM   11  C8  UNL     1      19.176   0.793  51.586  1.00  0.00     0.039 A 
HETATM   12  C9  UNL     1      19.634  -0.119  52.544  1.00  0.00     0.022 A 
HETATM   13  C10 UNL     1      20.819   0.119  53.194  1.00  0.00     0.011 A 
HETATM   14 BR1  UNL     1      21.571  -1.019  54.513  1.00  0.00    -0.051 Br
HETATM   15  C11 UNL     1      21.497   1.268  52.850  1.00  0.00     0.031 A 
HETATM   16  C12 UNL     1      21.087   2.192  51.915  1.00  0.00     0.010 A 
HETATM   17  N4  UNL     1      22.913   6.653  48.806  1.00  0.00    -0.370 N 
HETATM   18  C13 UNL     1      24.323   6.811  48.546  1.00  0.00     0.160 A 
HETATM   19  C14 UNL     1      25.020   5.572  48.908  1.00  0.00    -0.030 A 
HETATM   20  C15 UNL     1      26.398   5.625  48.693  1.00  0.00     0.010 A 
HETATM   21  C16 UNL     1      27.202   4.522  48.988  1.00  0.00     0.001 A 
HETATM   22  C17 UNL     1      26.638   3.357  49.501  1.00  0.00     0.001 A 
HETATM   23  C18 UNL     1      25.273   3.325  49.706  1.00  0.00     0.012 A 
HETATM   24  C19 UNL     1      24.500   4.409  49.414  1.00  0.00    -0.018 A 
HETATM   25  H11 UNL     1      22.206   7.393  48.633  1.00  0.00     0.161 HD
ENDROOT
BRANCH   1  26
HETATM   26  N1  UNL     1      22.973   3.628  52.451  1.00  0.00     0.087 N 
HETATM   27  H1  UNL     1      23.857   3.348  51.979  1.00  0.00     0.313 HD
HETATM   28  H2  UNL     1      23.025   4.554  52.897  1.00  0.00     0.313 HD
ENDBRANCH   1  26
TORSDOF 1
ENDMDL
MODEL 9
REMARK VINA RESULT:      -8.1      3.370      5.609
REMARK  1 active torsions:
REMARK  status: ('A' for Active; 'I' for Inactive)
REMARK    1  A    between atoms: N1_1  and  C1_2 
ROOT
HETATM    1  C1  UNL     1      22.410   2.005  52.120  1.00  0.00     0.258 C 
HETATM    2  C2  UNL     1      21.975   1.165  50.921  1.00  0.00     0.083 C 
HETATM    3  C3  UNL     1      20.828   1.677  50.209  1.00  0.00     0.001 A 
HETATM    4  C4  UNL     1      19.643   1.540  50.833  1.00  0.00     0.132 A 
HETATM    5  N2  UNL     1      19.726   0.911  52.096  1.00  0.00    -0.224 NA
HETATM    6  C5  UNL     1      19.472  -0.322  52.341  1.00  0.00     0.237 C 
HETATM    7  N3  UNL     1      19.785  -0.104  53.732  1.00  0.00    -0.230 NA
HETATM    8  C6  UNL     1      21.013  -0.272  54.157  1.00  0.00     0.260 C 
HETATM    9  O1  UNL     1      22.157  -0.643  53.507  1.00  0.00    -0.303 OA
HETATM   10  C7  UNL     1      23.315   0.071  53.375  1.00  0.00     0.085 A 
HETATM   11  C8  UNL     1      24.379  -0.596  53.975  1.00  0.00     0.039 A 
HETATM   12  C9  UNL     1      25.674  -0.065  53.974  1.00  0.00     0.022 A 
HETATM   13  C10 UNL     1      25.910   1.144  53.368  1.00  0.00     0.011 A 
HETATM   14 BR1  UNL     1      27.605   1.992  53.281  1.00  0.00    -0.051 Br
HETATM   15  C11 UNL     1      24.829   1.768  52.786  1.00  0.00     0.031 A 
HETATM   16  C12 UNL     1      23.540   1.286  52.762  1.00  0.00     0.010 A 
HETATM   17  N4  UNL     1      18.446   2.007  50.226  1.00  0.00    -0.370 N 
HETATM   18  C13 UNL     1      18.376   2.647  48.934  1.00  0.00     0.160 A 
HETATM   19  C14 UNL     1      19.726   2.733  48.369  1.00  0.00    -0.030 A 
HETATM   20  C15 UNL     1      19.767   3.343  47.113  1.00  0.00     0.010 A 
HETATM   21  C16 UNL     1      20.980   3.499  46.442  1.00  0.00     0.001 A 
HETATM   22  C17 UNL     1      22.166   3.049  47.017  1.00  0.00     0.001 A 
HETATM   23  C18 UNL     1      22.105   2.449  48.259  1.00  0.00     0.012 A 
HETATM   24  C19 UNL     1      20.913   2.303  48.904  1.00  0.00    -0.018 A 
HETATM   25  H11 UNL     1      17.620   1.829  50.829  1.00  0.00     0.161 HD
ENDROOT
BRANCH   1  26
HETATM   26  N1  UNL     1      22.757   3.319  51.684  1.00  0.00     0.087 N 
HETATM   27  H1  UNL     1      22.624   3.407  50.656  1.00  0.00     0.313 HD
HETATM   28  H2  UNL     1      22.339   4.093  52.217  1.00  0.00     0.313 HD
ENDBRANCH   1  26
TORSDOF 1
ENDMDL
