MODEL 1
REMARK VINA RESULT:      -9.1      0.000      0.000
REMARK  2 active torsions:
REMARK  status: ('A' for Active; 'I' for Inactive)
REMARK    1  A    between atoms: C7_7  and  C8_8 
REMARK    2  A    between atoms: C13_15  and  N3_16 
REMARK       I    between atoms: N3_16  and  C14_17 
REMARK       I    between atoms: C14_17  and  N4_18 
ROOT
HETATM    1  C1  UNL     1      17.448  -0.479  52.078  1.00  0.00     0.018 C 
HETATM    2  C2  UNL     1      18.566  -0.513  52.539  1.00  0.00    -0.078 C 
HETATM    3  C3  UNL     1      19.893  -0.532  53.086  1.00  0.00     0.017 A 
HETATM    4  C4  UNL     1      20.146  -1.519  54.010  1.00  0.00     0.020 A 
HETATM    5  C5  UNL     1      21.418  -1.548  54.543  1.00  0.00     0.002 A 
HETATM    6  C6  UNL     1      22.409  -0.657  54.195  1.00  0.00     0.014 A 
HETATM    7  C7  UNL     1      22.166   0.336  53.271  1.00  0.00    -0.005 A 
HETATM    8  C17 UNL     1      20.879   0.358  52.737  1.00  0.00     0.034 A 
ENDROOT
BRANCH   7   9
HETATM    9  C8  UNL     1      22.999   1.404  52.747  1.00  0.00     0.081 A 
HETATM   10  N1  UNL     1      22.410   2.625  52.630  1.00  0.00    -0.240 NA
HETATM   11  C9  UNL     1      23.049   3.714  52.165  1.00  0.00     0.234 A 
HETATM   12  N2  UNL     1      24.344   3.635  51.785  1.00  0.00    -0.241 NA
HETATM   13  C10 UNL     1      24.984   2.457  51.876  1.00  0.00     0.070 A 
HETATM   14  C11 UNL     1      26.297   2.305  51.519  1.00  0.00     0.035 A 
HETATM   15  C16 UNL     1      24.318   1.350  52.354  1.00  0.00     0.025 A 
HETATM   16  C12 UNL     1      26.883   1.067  51.654  1.00  0.00     0.032 A 
HETATM   17  C13 UNL     1      26.254  -0.055  52.126  1.00  0.00     0.037 A 
HETATM   18  C15 UNL     1      24.938   0.125  52.476  1.00  0.00     0.045 A 
BRANCH  17  19
HETATM   19  N3  UNL     1      26.822  -1.333  52.277  1.00  0.00    -0.309 N 
HETATM   20  C14 UNL     1      27.850  -1.776  53.142  1.00  0.00     0.318 C 
HETATM   21  N4  UNL     1      28.355  -3.100  53.216  1.00  0.00    -0.352 N 
HETATM   22  O1  UNL     1      28.373  -0.949  53.914  1.00  0.00    -0.247 OA
HETATM   23  H9  UNL     1      29.242  -3.539  52.885  1.00  0.00     0.160 HD
HETATM   24  H10 UNL     1      27.929  -3.965  53.637  1.00  0.00     0.160 HD
HETATM   25  H8  UNL     1      26.484  -2.134  51.693  1.00  0.00     0.170 HD
ENDBRANCH  17  19
ENDBRANCH   7   9
TORSDOF 2
ENDMDL
MODEL 2
REMARK VINA RESULT:      -9.0      3.529      6.751
REMARK  2 active torsions:
REMARK  status: ('A' for Active; 'I' for Inactive)
REMARK    1  A    between atoms: C7_7  and  C8_8 
REMARK    2  A    between atoms: C13_15  and  N3_16 
REMARK       I    between atoms: N3_16  and  C14_17 
REMARK       I    between atoms: C14_17  and  N4_18 
ROOT
HETATM    1  C1  UNL     1      25.311   9.191  49.292  1.00  0.00     0.018 C 
HETATM    2  C2  UNL     1      25.713   8.052  49.226  1.00  0.00    -0.078 C 
HETATM    3  C3  UNL     1      26.169   6.693  49.142  1.00  0.00     0.017 A 
HETATM    4  C4  UNL     1      27.431   6.516  48.624  1.00  0.00     0.020 A 
HETATM    5  C5  UNL     1      27.882   5.215  48.539  1.00  0.00     0.002 A 
HETATM    6  C6  UNL     1      27.141   4.126  48.939  1.00  0.00     0.014 A 
HETATM    7  C7  UNL     1      25.875   4.292  49.459  1.00  0.00    -0.005 A 
HETATM    8  C17 UNL     1      25.428   5.608  49.543  1.00  0.00     0.034 A 
ENDROOT
BRANCH   7   9
HETATM    9  C8  UNL     1      24.883   3.341  49.928  1.00  0.00     0.081 A 
HETATM   10  N1  UNL     1      23.815   3.133  49.110  1.00  0.00    -0.240 NA
HETATM   11  C9  UNL     1      22.815   2.282  49.400  1.00  0.00     0.234 A 
HETATM   12  N2  UNL     1      22.832   1.576  50.554  1.00  0.00    -0.241 NA
HETATM   13  C10 UNL     1      23.859   1.736  51.404  1.00  0.00     0.070 A 
HETATM   14  C11 UNL     1      23.948   1.048  52.585  1.00  0.00     0.035 A 
HETATM   15  C16 UNL     1      24.878   2.610  51.096  1.00  0.00     0.025 A 
HETATM   16  C12 UNL     1      25.040   1.259  53.397  1.00  0.00     0.032 A 
HETATM   17  C13 UNL     1      26.071   2.119  53.122  1.00  0.00     0.037 A 
HETATM   18  C15 UNL     1      25.956   2.797  51.932  1.00  0.00     0.045 A 
BRANCH  17  19
HETATM   19  N3  UNL     1      27.199   2.359  53.927  1.00  0.00    -0.309 N 
HETATM   20  C14 UNL     1      28.539   1.934  53.766  1.00  0.00     0.318 C 
HETATM   21  N4  UNL     1      29.612   2.233  54.645  1.00  0.00    -0.352 N 
HETATM   22  O1  UNL     1      28.825   1.235  52.774  1.00  0.00    -0.247 OA
HETATM   23  H9  UNL     1      30.128   1.664  55.351  1.00  0.00     0.160 HD
HETATM   24  H10 UNL     1      30.144   3.130  54.784  1.00  0.00     0.160 HD
HETATM   25  H8  UNL     1      27.114   2.932  54.799  1.00  0.00     0.170 HD
ENDBRANCH  17  19
ENDBRANCH   7   9
TORSDOF 2
ENDMDL
MODEL 3
REMARK VINA RESULT:      -8.9      3.024      6.494
REMARK  2 active torsions:
REMARK  status: ('A' for Active; 'I' for Inactive)
REMARK    1  A    between atoms: C7_7  and  C8_8 
REMARK    2  A    between atoms: C13_15  and  N3_16 
REMARK       I    between atoms: N3_16  and  C14_17 
REMARK       I    between atoms: C14_17  and  N4_18 
ROOT
HETATM    1  C1  UNL     1      27.922   5.059  48.490  1.00  0.00     0.018 C 
HETATM    2  C2  UNL     1      27.083   4.407  49.066  1.00  0.00    -0.078 C 
HETATM    3  C3  UNL     1      26.096   3.637  49.771  1.00  0.00     0.017 A 
HETATM    4  C4  UNL     1      24.822   3.680  49.254  1.00  0.00     0.020 A 
HETATM    5  C5  UNL     1      23.865   2.944  49.921  1.00  0.00     0.002 A 
HETATM    6  C6  UNL     1      24.129   2.194  51.045  1.00  0.00     0.014 A 
HETATM    7  C7  UNL     1      25.402   2.144  51.571  1.00  0.00    -0.005 A 
HETATM    8  C17 UNL     1      26.362   2.889  50.891  1.00  0.00     0.034 A 
ENDROOT
BRANCH   7   9
HETATM    9  C8  UNL     1      25.948   1.470  52.736  1.00  0.00     0.081 A 
HETATM   10  N1  UNL     1      27.233   1.778  53.062  1.00  0.00    -0.240 NA
HETATM   11  C9  UNL     1      27.879   1.241  54.113  1.00  0.00     0.234 A 
HETATM   12  N2  UNL     1      27.256   0.346  54.913  1.00  0.00    -0.241 NA
HETATM   13  C10 UNL     1      25.986   0.000  54.645  1.00  0.00     0.070 A 
HETATM   14  C11 UNL     1      25.290  -0.891  55.416  1.00  0.00     0.035 A 
HETATM   15  C16 UNL     1      25.335   0.557  53.566  1.00  0.00     0.025 A 
HETATM   16  C12 UNL     1      23.987  -1.184  55.081  1.00  0.00     0.032 A 
HETATM   17  C13 UNL     1      23.308  -0.650  54.018  1.00  0.00     0.037 A 
HETATM   18  C15 UNL     1      24.030   0.241  53.260  1.00  0.00     0.045 A 
BRANCH  17  19
HETATM   19  N3  UNL     1      21.980  -0.926  53.648  1.00  0.00    -0.309 N 
HETATM   20  C14 UNL     1      20.768  -0.373  54.124  1.00  0.00     0.318 C 
HETATM   21  N4  UNL     1      19.467  -0.726  53.681  1.00  0.00    -0.352 N 
HETATM   22  O1  UNL     1      20.823   0.500  55.013  1.00  0.00    -0.247 OA
HETATM   23  H9  UNL     1      18.701  -1.290  54.110  1.00  0.00     0.160 HD
HETATM   24  H10 UNL     1      18.969  -0.486  52.786  1.00  0.00     0.160 HD
HETATM   25  H8  UNL     1      21.773  -1.642  52.911  1.00  0.00     0.170 HD
ENDBRANCH  17  19
ENDBRANCH   7   9
TORSDOF 2
ENDMDL
MODEL 4
REMARK VINA RESULT:      -8.8      3.157      6.964
REMARK  2 active torsions:
REMARK  status: ('A' for Active; 'I' for Inactive)
REMARK    1  A    between atoms: C7_7  and  C8_8 
REMARK    2  A    between atoms: C13_15  and  N3_16 
REMARK       I    between atoms: N3_16  and  C14_17 
REMARK       I    between atoms: C14_17  and  N4_18 
ROOT
HETATM    1  C1  UNL     1      29.434  -2.373  53.282  1.00  0.00     0.018 C 
HETATM    2  C2  UNL     1      28.845  -1.316  53.318  1.00  0.00    -0.078 C 
HETATM    3  C3  UNL     1      28.129  -0.073  53.371  1.00  0.00     0.017 A 
HETATM    4  C4  UNL     1      28.893   1.048  53.597  1.00  0.00     0.020 A 
HETATM    5  C5  UNL     1      28.217   2.250  53.649  1.00  0.00     0.002 A 
HETATM    6  C6  UNL     1      26.855   2.363  53.490  1.00  0.00     0.014 A 
HETATM    7  C7  UNL     1      26.080   1.246  53.264  1.00  0.00    -0.005 A 
HETATM    8  C17 UNL     1      26.770   0.037  53.211  1.00  0.00     0.034 A 
ENDROOT
BRANCH   7   9
HETATM    9  C8  UNL     1      24.648   1.073  53.088  1.00  0.00     0.081 A 
HETATM   10  N1  UNL     1      24.175  -0.196  53.218  1.00  0.00    -0.240 NA
HETATM   11  C9  UNL     1      22.876  -0.519  53.087  1.00  0.00     0.234 A 
HETATM   12  N2  UNL     1      21.959   0.437  52.814  1.00  0.00    -0.241 NA
HETATM   13  C10 UNL     1      22.362   1.711  52.675  1.00  0.00     0.070 A 
HETATM   14  C11 UNL     1      21.489   2.732  52.408  1.00  0.00     0.035 A 
HETATM   15  C16 UNL     1      23.696   2.028  52.811  1.00  0.00     0.025 A 
HETATM   16  C12 UNL     1      21.981   4.013  52.292  1.00  0.00     0.032 A 
HETATM   17  C13 UNL     1      23.298   4.366  52.422  1.00  0.00     0.037 A 
HETATM   18  C15 UNL     1      24.152   3.323  52.689  1.00  0.00     0.045 A 
BRANCH  17  19
HETATM   19  N3  UNL     1      23.833   5.661  52.310  1.00  0.00    -0.309 N 
HETATM   20  C14 UNL     1      24.099   6.440  51.160  1.00  0.00     0.318 C 
HETATM   21  N4  UNL     1      24.646   7.750  51.155  1.00  0.00    -0.352 N 
HETATM   22  O1  UNL     1      23.839   5.954  50.041  1.00  0.00    -0.247 OA
HETATM   23  H9  UNL     1      25.590   8.121  50.912  1.00  0.00     0.160 HD
HETATM   24  H10 UNL     1      24.203   8.669  51.407  1.00  0.00     0.160 HD
HETATM   25  H8  UNL     1      24.103   6.199  53.168  1.00  0.00     0.170 HD
ENDBRANCH  17  19
ENDBRANCH   7   9
TORSDOF 2
ENDMDL
MODEL 5
REMARK VINA RESULT:      -8.7      2.967      6.269
REMARK  2 active torsions:
REMARK  status: ('A' for Active; 'I' for Inactive)
REMARK    1  A    between atoms: C7_7  and  C8_8 
REMARK    2  A    between atoms: C13_15  and  N3_16 
REMARK       I    between atoms: N3_16  and  C14_17 
REMARK       I    between atoms: C14_17  and  N4_18 
ROOT
HETATM    1  C1  UNL     1      28.656  -2.867  53.082  1.00  0.00     0.018 C 
HETATM    2  C2  UNL     1      28.527  -1.667  53.165  1.00  0.00    -0.078 C 
HETATM    3  C3  UNL     1      28.352  -0.245  53.256  1.00  0.00     0.017 A 
HETATM    4  C4  UNL     1      29.057   0.382  54.257  1.00  0.00     0.020 A 
HETATM    5  C5  UNL     1      28.898   1.749  54.355  1.00  0.00     0.002 A 
HETATM    6  C6  UNL     1      28.088   2.482  53.518  1.00  0.00     0.014 A 
HETATM    7  C7  UNL     1      27.376   1.864  52.513  1.00  0.00    -0.005 A 
HETATM    8  C17 UNL     1      27.543   0.485  52.419  1.00  0.00     0.034 A 
ENDROOT
BRANCH   7   9
HETATM    9  C8  UNL     1      26.446   2.376  51.521  1.00  0.00     0.081 A 
HETATM   10  N1  UNL     1      26.962   3.232  50.598  1.00  0.00    -0.240 NA
HETATM   11  C9  UNL     1      26.232   3.788  49.615  1.00  0.00     0.234 A 
HETATM   12  N2  UNL     1      24.914   3.508  49.500  1.00  0.00    -0.241 NA
HETATM   13  C10 UNL     1      24.344   2.668  50.380  1.00  0.00     0.070 A 
HETATM   14  C11 UNL     1      23.018   2.331  50.320  1.00  0.00     0.035 A 
HETATM   15  C16 UNL     1      25.102   2.105  51.383  1.00  0.00     0.025 A 
HETATM   16  C12 UNL     1      22.513   1.453  51.253  1.00  0.00     0.032 A 
HETATM   17  C13 UNL     1      23.236   0.873  52.262  1.00  0.00     0.037 A 
HETATM   18  C15 UNL     1      24.563   1.229  52.300  1.00  0.00     0.045 A 
BRANCH  17  19
HETATM   19  N3  UNL     1      22.753  -0.025  53.229  1.00  0.00    -0.309 N 
HETATM   20  C14 UNL     1      21.566   0.016  53.997  1.00  0.00     0.318 C 
HETATM   21  N4  UNL     1      21.167  -0.951  54.958  1.00  0.00    -0.352 N 
HETATM   22  O1  UNL     1      20.786   0.976  53.835  1.00  0.00    -0.247 OA
HETATM   23  H9  UNL     1      21.152  -0.947  56.001  1.00  0.00     0.160 HD
HETATM   24  H10 UNL     1      20.786  -1.921  54.823  1.00  0.00     0.160 HD
HETATM   25  H8  UNL     1      23.301  -0.883  53.476  1.00  0.00     0.170 HD
ENDBRANCH  17  19
ENDBRANCH   7   9
TORSDOF 2
ENDMDL
MODEL 6
REMARK VINA RESULT:      -8.7      2.672      5.775
REMARK  2 active torsions:
REMARK  status: ('A' for Active; 'I' for Inactive)
REMARK    1  A    between atoms: C7_7  and  C8_8 
REMARK    2  A    between atoms: C13_15  and  N3_16 
REMARK       I    between atoms: N3_16  and  C14_17 
REMARK       I    between atoms: C14_17  and  N4_18 
ROOT
HETATM    1  C1  UNL     1      27.588   4.926  48.560  1.00  0.00     0.018 C 
HETATM    2  C2  UNL     1      26.610   4.966  49.272  1.00  0.00    -0.078 C 
HETATM    3  C3  UNL     1      25.457   4.994  50.127  1.00  0.00     0.017 A 
HETATM    4  C4  UNL     1      25.017   6.243  50.497  1.00  0.00     0.020 A 
HETATM    5  C5  UNL     1      23.909   6.284  51.318  1.00  0.00     0.002 A 
HETATM    6  C6  UNL     1      23.251   5.160  51.764  1.00  0.00     0.014 A 
HETATM    7  C7  UNL     1      23.684   3.904  51.399  1.00  0.00    -0.005 A 
HETATM    8  C17 UNL     1      24.802   3.871  50.570  1.00  0.00     0.034 A 
ENDROOT
BRANCH   7   9
HETATM    9  C8  UNL     1      23.206   2.574  51.735  1.00  0.00     0.081 A 
HETATM   10  N1  UNL     1      22.001   2.218  51.214  1.00  0.00    -0.240 NA
HETATM   11  C9  UNL     1      21.425   1.021  51.430  1.00  0.00     0.234 A 
HETATM   12  N2  UNL     1      22.044   0.094  52.196  1.00  0.00    -0.241 NA
HETATM   13  C10 UNL     1      23.237   0.383  52.739  1.00  0.00     0.070 A 
HETATM   14  C11 UNL     1      23.926  -0.509  53.517  1.00  0.00     0.035 A 
HETATM   15  C16 UNL     1      23.816   1.613  52.511  1.00  0.00     0.025 A 
HETATM   16  C12 UNL     1      25.150  -0.140  54.027  1.00  0.00     0.032 A 
HETATM   17  C13 UNL     1      25.757   1.071  53.820  1.00  0.00     0.037 A 
HETATM   18  C15 UNL     1      25.045   1.948  53.037  1.00  0.00     0.045 A 
BRANCH  17  19
HETATM   19  N3  UNL     1      27.004   1.480  54.325  1.00  0.00    -0.309 N 
HETATM   20  C14 UNL     1      28.135   1.995  53.649  1.00  0.00     0.318 C 
HETATM   21  N4  UNL     1      29.358   2.380  54.257  1.00  0.00    -0.352 N 
HETATM   22  O1  UNL     1      28.076   2.129  52.410  1.00  0.00    -0.247 OA
HETATM   23  H9  UNL     1      30.303   1.939  54.289  1.00  0.00     0.160 HD
HETATM   24  H10 UNL     1      29.589   3.229  54.833  1.00  0.00     0.160 HD
HETATM   25  H8  UNL     1      27.204   1.425  55.351  1.00  0.00     0.170 HD
ENDBRANCH  17  19
ENDBRANCH   7   9
TORSDOF 2
ENDMDL
MODEL 7
REMARK VINA RESULT:      -8.6      3.038      7.086
REMARK  2 active torsions:
REMARK  status: ('A' for Active; 'I' for Inactive)
REMARK    1  A    between atoms: C7_7  and  C8_8 
REMARK    2  A    between atoms: C13_15  and  N3_16 
REMARK       I    between atoms: N3_16  and  C14_17 
REMARK       I    between atoms: C14_17  and  N4_18 
ROOT
HETATM    1  C1  UNL     1      29.310  -1.005  53.498  1.00  0.00     0.018 C 
HETATM    2  C2  UNL     1      28.273  -0.477  53.166  1.00  0.00    -0.078 C 
HETATM    3  C3  UNL     1      27.034   0.145  52.793  1.00  0.00     0.017 A 
HETATM    4  C4  UNL     1      27.135   1.202  51.919  1.00  0.00     0.020 A 
HETATM    5  C5  UNL     1      25.952   1.810  51.553  1.00  0.00     0.002 A 
HETATM    6  C6  UNL     1      24.717   1.410  52.013  1.00  0.00     0.014 A 
HETATM    7  C7  UNL     1      24.605   0.353  52.890  1.00  0.00    -0.005 A 
HETATM    8  C17 UNL     1      25.804  -0.255  53.254  1.00  0.00     0.034 A 
ENDROOT
BRANCH   7   9
HETATM    9  C8  UNL     1      23.458  -0.254  53.543  1.00  0.00     0.081 A 
HETATM   10  N1  UNL     1      23.714  -0.958  54.679  1.00  0.00    -0.240 NA
HETATM   11  C9  UNL     1      22.760  -1.575  55.398  1.00  0.00     0.234 A 
HETATM   12  N2  UNL     1      21.466  -1.516  55.009  1.00  0.00    -0.241 NA
HETATM   13  C10 UNL     1      21.146  -0.835  53.896  1.00  0.00     0.070 A 
HETATM   14  C11 UNL     1      19.858  -0.725  53.448  1.00  0.00     0.035 A 
HETATM   15  C16 UNL     1      22.133  -0.208  53.168  1.00  0.00     0.025 A 
HETATM   16  C12 UNL     1      19.612   0.001  52.304  1.00  0.00     0.032 A 
HETATM   17  C13 UNL     1      20.566   0.638  51.555  1.00  0.00     0.037 A 
HETATM   18  C15 UNL     1      21.850   0.511  52.027  1.00  0.00     0.045 A 
BRANCH  17  19
HETATM   19  N3  UNL     1      20.350   1.387  50.385  1.00  0.00    -0.309 N 
HETATM   20  C14 UNL     1      20.049   2.759  50.224  1.00  0.00     0.318 C 
HETATM   21  N4  UNL     1      19.848   3.423  48.985  1.00  0.00    -0.352 N 
HETATM   22  O1  UNL     1      19.946   3.468  51.245  1.00  0.00    -0.247 OA
HETATM   23  H9  UNL     1      18.993   3.776  48.503  1.00  0.00     0.160 HD
HETATM   24  H10 UNL     1      20.543   3.715  48.253  1.00  0.00     0.160 HD
HETATM   25  H8  UNL     1      20.403   0.926  49.445  1.00  0.00     0.170 HD
ENDBRANCH  17  19
ENDBRANCH   7   9
TORSDOF 2
ENDMDL
MODEL 8
REMARK VINA RESULT:      -8.4      3.191      7.274
REMARK  2 active torsions:
REMARK  status: ('A' for Active; 'I' for Inactive)
REMARK    1  A    between atoms: C7_7  and  C8_8 
REMARK    2  A    between atoms: C13_15  and  N3_16 
REMARK       I    between atoms: N3_16  and  C14_17 
REMARK       I    between atoms: C14_17  and  N4_18 
ROOT
HETATM    1  C1  UNL     1      28.847   5.480  48.202  1.00  0.00     0.018 C 
HETATM    2  C2  UNL     1      27.786   5.113  48.653  1.00  0.00    -0.078 C 
HETATM    3  C3  UNL     1      26.538   4.671  49.208  1.00  0.00     0.017 A 
HETATM    4  C4  UNL     1      25.424   5.374  48.811  1.00  0.00     0.020 A 
HETATM    5  C5  UNL     1      24.218   4.960  49.336  1.00  0.00     0.002 A 
HETATM    6  C6  UNL     1      24.093   3.905  50.212  1.00  0.00     0.014 A 
HETATM    7  C7  UNL     1      25.202   3.195  50.618  1.00  0.00    -0.005 A 
HETATM    8  C17 UNL     1      26.415   3.619  50.082  1.00  0.00     0.034 A 
ENDROOT
BRANCH   7   9
HETATM    9  C8  UNL     1      25.363   2.078  51.532  1.00  0.00     0.081 A 
HETATM   10  N1  UNL     1      26.633   1.814  51.943  1.00  0.00    -0.240 NA
HETATM   11  C9  UNL     1      26.945   0.817  52.791  1.00  0.00     0.234 A 
HETATM   12  N2  UNL     1      25.976   0.013  53.284  1.00  0.00    -0.241 NA
HETATM   13  C10 UNL     1      24.701   0.221  52.918  1.00  0.00     0.070 A 
HETATM   14  C11 UNL     1      23.668  -0.547  53.385  1.00  0.00     0.035 A 
HETATM   15  C16 UNL     1      24.395   1.245  52.049  1.00  0.00     0.025 A 
HETATM   16  C12 UNL     1      22.387  -0.261  52.970  1.00  0.00     0.032 A 
HETATM   17  C13 UNL     1      22.044   0.749  52.110  1.00  0.00     0.037 A 
HETATM   18  C15 UNL     1      23.100   1.503  51.656  1.00  0.00     0.045 A 
BRANCH  17  19
HETATM   19  N3  UNL     1      20.749   1.068  51.667  1.00  0.00    -0.309 N 
HETATM   20  C14 UNL     1      19.879   2.107  52.072  1.00  0.00     0.318 C 
HETATM   21  N4  UNL     1      18.578   2.345  51.557  1.00  0.00    -0.352 N 
HETATM   22  O1  UNL     1      20.266   2.895  52.958  1.00  0.00    -0.247 OA
HETATM   23  H9  UNL     1      17.623   2.183  51.944  1.00  0.00     0.160 HD
HETATM   24  H10 UNL     1      18.279   2.751  50.634  1.00  0.00     0.160 HD
HETATM   25  H8  UNL     1      20.287   0.493  50.923  1.00  0.00     0.170 HD
ENDBRANCH  17  19
ENDBRANCH   7   9
TORSDOF 2
ENDMDL
MODEL 9
REMARK VINA RESULT:      -8.3      2.196      4.429
REMARK  2 active torsions:
REMARK  status: ('A' for Active; 'I' for Inactive)
REMARK    1  A    between atoms: C7_7  and  C8_8 
REMARK    2  A    between atoms: C13_15  and  N3_16 
REMARK       I    between atoms: N3_16  and  C14_17 
REMARK       I    between atoms: C14_17  and  N4_18 
ROOT
HETATM    1  C1  UNL     1      19.082   0.623  50.694  1.00  0.00     0.018 C 
HETATM    2  C2  UNL     1      19.875   0.306  51.551  1.00  0.00    -0.078 C 
HETATM    3  C3  UNL     1      20.829  -0.054  52.561  1.00  0.00     0.017 A 
HETATM    4  C4  UNL     1      20.302  -0.503  53.750  1.00  0.00     0.020 A 
HETATM    5  C5  UNL     1      21.209  -0.853  54.729  1.00  0.00     0.002 A 
HETATM    6  C6  UNL     1      22.573  -0.772  54.566  1.00  0.00     0.014 A 
HETATM    7  C7  UNL     1      23.112  -0.322  53.379  1.00  0.00    -0.005 A 
HETATM    8  C17 UNL     1      22.190   0.027  52.396  1.00  0.00     0.034 A 
ENDROOT
BRANCH   7   9
HETATM    9  C8  UNL     1      24.484  -0.116  52.949  1.00  0.00     0.081 A 
HETATM   10  N1  UNL     1      25.357  -1.124  53.216  1.00  0.00    -0.240 NA
HETATM   11  C9  UNL     1      26.658  -1.086  52.879  1.00  0.00     0.234 A 
HETATM   12  N2  UNL     1      27.166  -0.008  52.239  1.00  0.00    -0.241 NA
HETATM   13  C10 UNL     1      26.356   1.022  51.945  1.00  0.00     0.070 A 
HETATM   14  C11 UNL     1      26.798   2.140  51.290  1.00  0.00     0.035 A 
HETATM   15  C16 UNL     1      25.025   0.970  52.296  1.00  0.00     0.025 A 
HETATM   16  C12 UNL     1      25.901   3.148  51.016  1.00  0.00     0.032 A 
HETATM   17  C13 UNL     1      24.571   3.131  51.347  1.00  0.00     0.037 A 
HETATM   18  C15 UNL     1      24.154   1.998  52.004  1.00  0.00     0.045 A 
BRANCH  17  19
HETATM   19  N3  UNL     1      23.629   4.140  51.083  1.00  0.00    -0.309 N 
HETATM   20  C14 UNL     1      23.098   5.136  51.935  1.00  0.00     0.318 C 
HETATM   21  N4  UNL     1      22.141   6.117  51.565  1.00  0.00    -0.352 N 
HETATM   22  O1  UNL     1      23.489   5.175  53.118  1.00  0.00    -0.247 OA
HETATM   23  H9  UNL     1      21.123   6.224  51.768  1.00  0.00     0.160 HD
HETATM   24  H10 UNL     1      22.252   6.985  50.983  1.00  0.00     0.160 HD
HETATM   25  H8  UNL     1      23.207   4.233  50.128  1.00  0.00     0.170 HD
ENDBRANCH  17  19
ENDBRANCH   7   9
TORSDOF 2
ENDMDL
