MODEL 1
REMARK VINA RESULT:      -6.7      0.000      0.000
REMARK  8 active torsions:
REMARK  status: ('A' for Active; 'I' for Inactive)
REMARK    1  A    between atoms: C2_2  and  N1_3 
REMARK    2  A    between atoms: C2_2  and  C14_19 
REMARK    3  A    between atoms: N1_3  and  C3_4 
REMARK    4  A    between atoms: C5_7  and  C6_8 
REMARK    5  A    between atoms: C7_9  and  C9_11 
REMARK    6  A    between atoms: C9_11  and  C10_13 
REMARK    7  A    between atoms: C10_13  and  C11_14 
REMARK    8  A    between atoms: C11_14  and  C12_15 
ROOT
HETATM    1  C3  UNL     1      25.759   4.291  49.686  1.00  0.00     0.726 A 
HETATM    2  N2  UNL     1      26.782   3.462  50.046  1.00  0.00    -0.074 NA
HETATM    3  C4  UNL     1      26.425   2.450  50.906  1.00  0.00     0.145 A 
HETATM    4  C5  UNL     1      25.094   2.350  51.330  1.00  0.00    -0.016 A 
HETATM    5  C13 UNL     1      24.102   3.212  50.936  1.00  0.00     0.145 A 
HETATM    6  N3  UNL     1      24.464   4.217  50.080  1.00  0.00    -0.074 NA
ENDROOT
BRANCH   4   7
HETATM    7  C6  UNL     1      25.166   1.202  52.212  1.00  0.00     0.081 C 
HETATM    8  C7  UNL     1      24.774   0.293  53.049  1.00  0.00    -0.008 C 
HETATM    9  C8  UNL     1      23.869  -0.505  53.961  1.00  0.00     0.017 C 
BRANCH   8  10
HETATM   10  C9  UNL     1      26.054  -0.440  53.187  1.00  0.00     0.013 C 
HETATM   11 CL1  UNL     1      26.792  -1.879  52.465  1.00  0.00    -0.089 Cl
BRANCH  10  12
HETATM   12  C10 UNL     1      27.192  -0.348  53.899  1.00  0.00    -0.006 C 
BRANCH  12  13
HETATM   13  C11 UNL     1      28.251   0.160  54.805  1.00  0.00     0.043 C 
BRANCH  13  14
HETATM   14  C12 UNL     1      29.281   0.933  54.004  1.00  0.00     0.118 C 
HETATM   15 CL2  UNL     1      28.675   2.568  53.642  1.00  0.00    -0.130 Cl
ENDBRANCH  13  14
ENDBRANCH  12  13
ENDBRANCH  10  12
ENDBRANCH   8  10
ENDBRANCH   4   7
BRANCH   1  16
HETATM   16  N1  UNL     1      25.948   5.392  48.816  1.00  0.00    -0.192 N 
HETATM   17  H3  UNL     1      25.510   5.333  47.863  1.00  0.00     0.184 HD
BRANCH  16  18
HETATM   18  C2  UNL     1      26.648   6.613  49.002  1.00  0.00     0.021 C 
HETATM   19  C1  UNL     1      26.159   7.416  49.935  1.00  0.00     0.039 C 
BRANCH  18  20
HETATM   20  C14 UNL     1      27.847   6.912  48.176  1.00  0.00     0.027 C 
HETATM   21  C15 UNL     1      28.780   5.733  48.288  1.00  0.00     0.016 C 
HETATM   22  C16 UNL     1      28.501   8.200  48.578  1.00  0.00     0.016 C 
ENDBRANCH  18  20
ENDBRANCH  16  18
ENDBRANCH   1  16
TORSDOF 8
ENDMDL
MODEL 2
REMARK VINA RESULT:      -6.5      5.061      7.366
REMARK  8 active torsions:
REMARK  status: ('A' for Active; 'I' for Inactive)
REMARK    1  A    between atoms: C2_2  and  N1_3 
REMARK    2  A    between atoms: C2_2  and  C14_19 
REMARK    3  A    between atoms: N1_3  and  C3_4 
REMARK    4  A    between atoms: C5_7  and  C6_8 
REMARK    5  A    between atoms: C7_9  and  C9_11 
REMARK    6  A    between atoms: C9_11  and  C10_13 
REMARK    7  A    between atoms: C10_13  and  C11_14 
REMARK    8  A    between atoms: C11_14  and  C12_15 
ROOT
HETATM    1  C3  UNL     1      25.054  -0.517  54.380  1.00  0.00     0.726 A 
HETATM    2  N2  UNL     1      24.546   0.088  53.267  1.00  0.00    -0.074 NA
HETATM    3  C4  UNL     1      23.180  -0.008  53.134  1.00  0.00     0.145 A 
HETATM    4  C5  UNL     1      22.444  -0.691  54.110  1.00  0.00    -0.016 A 
HETATM    5  C13 UNL     1      23.006  -1.282  55.213  1.00  0.00     0.145 A 
HETATM    6  N3  UNL     1      24.366  -1.183  55.340  1.00  0.00    -0.074 NA
ENDROOT
BRANCH   4   7
HETATM    7  C6  UNL     1      21.099  -0.574  53.581  1.00  0.00     0.081 C 
HETATM    8  C7  UNL     1      19.841  -0.832  53.408  1.00  0.00    -0.008 C 
HETATM    9  C8  UNL     1      18.492  -1.498  53.560  1.00  0.00     0.017 C 
BRANCH   8  10
HETATM   10  C9  UNL     1      19.537   0.232  52.423  1.00  0.00     0.013 C 
HETATM   11 CL1  UNL     1      18.728   0.329  50.849  1.00  0.00    -0.089 Cl
BRANCH  10  12
HETATM   12  C10 UNL     1      19.731   1.555  52.280  1.00  0.00    -0.006 C 
BRANCH  12  13
HETATM   13  C11 UNL     1      20.337   2.907  52.359  1.00  0.00     0.043 C 
BRANCH  13  14
HETATM   14  C12 UNL     1      21.760   2.862  51.838  1.00  0.00     0.118 C 
HETATM   15 CL2  UNL     1      21.827   1.928  50.323  1.00  0.00    -0.130 Cl
ENDBRANCH  13  14
ENDBRANCH  12  13
ENDBRANCH  10  12
ENDBRANCH   8  10
ENDBRANCH   4   7
BRANCH   1  16
HETATM   16  N1  UNL     1      26.439  -0.526  54.671  1.00  0.00    -0.192 N 
HETATM   17  H3  UNL     1      26.722  -0.389  55.673  1.00  0.00     0.184 HD
BRANCH  16  18
HETATM   18  C2  UNL     1      27.565  -0.694  53.822  1.00  0.00     0.021 C 
HETATM   19  C1  UNL     1      27.406  -1.550  52.825  1.00  0.00     0.039 C 
BRANCH  18  20
HETATM   20  C14 UNL     1      28.811   0.072  54.086  1.00  0.00     0.027 C 
HETATM   21  C15 UNL     1      28.627   1.452  53.505  1.00  0.00     0.016 C 
HETATM   22  C16 UNL     1      30.025  -0.621  53.541  1.00  0.00     0.016 C 
ENDBRANCH  18  20
ENDBRANCH  16  18
ENDBRANCH   1  16
TORSDOF 8
ENDMDL
MODEL 3
REMARK VINA RESULT:      -6.5      5.686      8.034
REMARK  8 active torsions:
REMARK  status: ('A' for Active; 'I' for Inactive)
REMARK    1  A    between atoms: C2_2  and  N1_3 
REMARK    2  A    between atoms: C2_2  and  C14_19 
REMARK    3  A    between atoms: N1_3  and  C3_4 
REMARK    4  A    between atoms: C5_7  and  C6_8 
REMARK    5  A    between atoms: C7_9  and  C9_11 
REMARK    6  A    between atoms: C9_11  and  C10_13 
REMARK    7  A    between atoms: C10_13  and  C11_14 
REMARK    8  A    between atoms: C11_14  and  C12_15 
ROOT
HETATM    1  C3  UNL     1      24.816  -0.240  53.694  1.00  0.00     0.726 A 
HETATM    2  N2  UNL     1      24.657   0.715  52.732  1.00  0.00    -0.074 NA
HETATM    3  C4  UNL     1      23.349   1.041  52.456  1.00  0.00     0.145 A 
HETATM    4  C5  UNL     1      22.322   0.396  53.155  1.00  0.00    -0.016 A 
HETATM    5  C13 UNL     1      22.537  -0.559  54.116  1.00  0.00     0.145 A 
HETATM    6  N3  UNL     1      23.840  -0.879  54.386  1.00  0.00    -0.074 NA
ENDROOT
BRANCH   4   7
HETATM    7  C6  UNL     1      21.150   1.002  52.554  1.00  0.00     0.081 C 
HETATM    8  C7  UNL     1      20.322   1.929  52.185  1.00  0.00    -0.008 C 
HETATM    9  C8  UNL     1      19.718   3.302  51.995  1.00  0.00     0.017 C 
BRANCH   8  10
HETATM   10  C9  UNL     1      19.334   1.071  51.490  1.00  0.00     0.013 C 
HETATM   11 CL1  UNL     1      18.573   1.030  49.891  1.00  0.00    -0.089 Cl
BRANCH  10  12
HETATM   12  C10 UNL     1      18.594  -0.021  51.750  1.00  0.00    -0.006 C 
BRANCH  12  13
HETATM   13  C11 UNL     1      17.592  -0.934  52.353  1.00  0.00     0.043 C 
BRANCH  13  14
HETATM   14  C12 UNL     1      18.222  -1.698  53.502  1.00  0.00     0.118 C 
HETATM   15 CL2  UNL     1      17.442  -3.289  53.680  1.00  0.00    -0.130 Cl
ENDBRANCH  13  14
ENDBRANCH  12  13
ENDBRANCH  10  12
ENDBRANCH   8  10
ENDBRANCH   4   7
BRANCH   1  16
HETATM   16  N1  UNL     1      26.091  -0.704  54.097  1.00  0.00    -0.192 N 
HETATM   17  H3  UNL     1      26.266  -0.798  55.128  1.00  0.00     0.184 HD
BRANCH  16  18
HETATM   18  C2  UNL     1      27.225  -1.083  53.331  1.00  0.00     0.021 C 
HETATM   19  C1  UNL     1      27.030  -2.071  52.471  1.00  0.00     0.039 C 
BRANCH  18  20
HETATM   20  C14 UNL     1      28.518  -0.377  53.525  1.00  0.00     0.027 C 
HETATM   21  C15 UNL     1      29.616  -1.408  53.437  1.00  0.00     0.016 C 
HETATM   22  C16 UNL     1      28.555   0.390  54.813  1.00  0.00     0.016 C 
ENDBRANCH  18  20
ENDBRANCH  16  18
ENDBRANCH   1  16
TORSDOF 8
ENDMDL
MODEL 4
REMARK VINA RESULT:      -6.4      4.653      7.217
REMARK  8 active torsions:
REMARK  status: ('A' for Active; 'I' for Inactive)
REMARK    1  A    between atoms: C2_2  and  N1_3 
REMARK    2  A    between atoms: C2_2  and  C14_19 
REMARK    3  A    between atoms: N1_3  and  C3_4 
REMARK    4  A    between atoms: C5_7  and  C6_8 
REMARK    5  A    between atoms: C7_9  and  C9_11 
REMARK    6  A    between atoms: C9_11  and  C10_13 
REMARK    7  A    between atoms: C10_13  and  C11_14 
REMARK    8  A    between atoms: C11_14  and  C12_15 
ROOT
HETATM    1  C3  UNL     1      25.043   0.290  53.515  1.00  0.00     0.726 A 
HETATM    2  N2  UNL     1      24.755   1.111  52.463  1.00  0.00    -0.074 NA
HETATM    3  C4  UNL     1      23.451   1.054  52.030  1.00  0.00     0.145 A 
HETATM    4  C5  UNL     1      22.554   0.193  52.673  1.00  0.00    -0.016 A 
HETATM    5  C13 UNL     1      22.896  -0.614  53.729  1.00  0.00     0.145 A 
HETATM    6  N3  UNL     1      24.195  -0.552  54.156  1.00  0.00    -0.074 NA
ENDROOT
BRANCH   4   7
HETATM    7  C6  UNL     1      21.345   0.424  51.907  1.00  0.00     0.081 C 
HETATM    8  C7  UNL     1      20.101   0.334  51.554  1.00  0.00    -0.008 C 
HETATM    9  C8  UNL     1      18.650  -0.091  51.555  1.00  0.00     0.017 C 
BRANCH   8  10
HETATM   10  C9  UNL     1      20.137   1.261  50.399  1.00  0.00     0.013 C 
HETATM   11 CL1  UNL     1      19.297   2.746  49.921  1.00  0.00    -0.089 Cl
BRANCH  10  12
HETATM   12  C10 UNL     1      20.797   1.391  49.235  1.00  0.00    -0.006 C 
BRANCH  12  13
HETATM   13  C11 UNL     1      21.856   1.312  48.198  1.00  0.00     0.043 C 
BRANCH  13  14
HETATM   14  C12 UNL     1      22.370   2.704  47.886  1.00  0.00     0.118 C 
HETATM   15 CL2  UNL     1      23.112   3.422  49.337  1.00  0.00    -0.130 Cl
ENDBRANCH  13  14
ENDBRANCH  12  13
ENDBRANCH  10  12
ENDBRANCH   8  10
ENDBRANCH   4   7
BRANCH   1  16
HETATM   16  N1  UNL     1      26.337   0.212  54.082  1.00  0.00    -0.192 N 
HETATM   17  H3  UNL     1      26.507   0.747  54.970  1.00  0.00     0.184 HD
BRANCH  16  18
HETATM   18  C2  UNL     1      27.498  -0.486  53.656  1.00  0.00     0.021 C 
HETATM   19  C1  UNL     1      27.301  -1.409  52.727  1.00  0.00     0.039 C 
BRANCH  18  20
HETATM   20  C14 UNL     1      28.820  -0.155  54.249  1.00  0.00     0.027 C 
HETATM   21  C15 UNL     1      29.018   1.334  54.113  1.00  0.00     0.016 C 
HETATM   22  C16 UNL     1      29.933  -0.940  53.619  1.00  0.00     0.016 C 
ENDBRANCH  18  20
ENDBRANCH  16  18
ENDBRANCH   1  16
TORSDOF 8
ENDMDL
MODEL 5
REMARK VINA RESULT:      -6.3      4.935      7.813
REMARK  8 active torsions:
REMARK  status: ('A' for Active; 'I' for Inactive)
REMARK    1  A    between atoms: C2_2  and  N1_3 
REMARK    2  A    between atoms: C2_2  and  C14_19 
REMARK    3  A    between atoms: N1_3  and  C3_4 
REMARK    4  A    between atoms: C5_7  and  C6_8 
REMARK    5  A    between atoms: C7_9  and  C9_11 
REMARK    6  A    between atoms: C9_11  and  C10_13 
REMARK    7  A    between atoms: C10_13  and  C11_14 
REMARK    8  A    between atoms: C11_14  and  C12_15 
ROOT
HETATM    1  C3  UNL     1      25.552   0.891  53.877  1.00  0.00     0.726 A 
HETATM    2  N2  UNL     1      25.101   1.820  52.984  1.00  0.00    -0.074 NA
HETATM    3  C4  UNL     1      23.875   1.536  52.429  1.00  0.00     0.145 A 
HETATM    4  C5  UNL     1      23.209   0.364  52.806  1.00  0.00    -0.016 A 
HETATM    5  C13 UNL     1      23.708  -0.539  53.710  1.00  0.00     0.145 A 
HETATM    6  N3  UNL     1      24.928  -0.251  54.259  1.00  0.00    -0.074 NA
ENDROOT
BRANCH   4   7
HETATM    7  C6  UNL     1      22.012   0.447  51.991  1.00  0.00     0.081 C 
HETATM    8  C7  UNL     1      21.268   0.670  50.953  1.00  0.00    -0.008 C 
HETATM    9  C8  UNL     1      20.868   1.066  49.551  1.00  0.00     0.017 C 
BRANCH   8  10
HETATM   10  C9  UNL     1      19.968   0.255  51.527  1.00  0.00     0.013 C 
HETATM   11 CL1  UNL     1      19.407  -0.457  53.049  1.00  0.00    -0.089 Cl
BRANCH  10  12
HETATM   12  C10 UNL     1      18.672   0.230  51.166  1.00  0.00    -0.006 C 
BRANCH  12  13
HETATM   13  C11 UNL     1      17.424  -0.049  50.415  1.00  0.00     0.043 C 
BRANCH  13  14
HETATM   14  C12 UNL     1      16.240  -0.025  51.363  1.00  0.00     0.118 C 
HETATM   15 CL2  UNL     1      15.932  -1.660  51.998  1.00  0.00    -0.130 Cl
ENDBRANCH  13  14
ENDBRANCH  12  13
ENDBRANCH  10  12
ENDBRANCH   8  10
ENDBRANCH   4   7
BRANCH   1  16
HETATM   16  N1  UNL     1      26.798   1.016  54.536  1.00  0.00    -0.192 N 
HETATM   17  H3  UNL     1      26.780   1.217  55.567  1.00  0.00     0.184 HD
BRANCH  16  18
HETATM   18  C2  UNL     1      28.125   0.915  54.040  1.00  0.00     0.021 C 
HETATM   19  C1  UNL     1      28.684   2.055  53.666  1.00  0.00     0.039 C 
BRANCH  18  20
HETATM   20  C14 UNL     1      28.791  -0.412  53.973  1.00  0.00     0.027 C 
HETATM   21  C15 UNL     1      30.212  -0.184  53.521  1.00  0.00     0.016 C 
HETATM   22  C16 UNL     1      28.054  -1.369  53.085  1.00  0.00     0.016 C 
ENDBRANCH  18  20
ENDBRANCH  16  18
ENDBRANCH   1  16
TORSDOF 8
ENDMDL
MODEL 6
REMARK VINA RESULT:      -6.2      5.506      8.470
REMARK  8 active torsions:
REMARK  status: ('A' for Active; 'I' for Inactive)
REMARK    1  A    between atoms: C2_2  and  N1_3 
REMARK    2  A    between atoms: C2_2  and  C14_19 
REMARK    3  A    between atoms: N1_3  and  C3_4 
REMARK    4  A    between atoms: C5_7  and  C6_8 
REMARK    5  A    between atoms: C7_9  and  C9_11 
REMARK    6  A    between atoms: C9_11  and  C10_13 
REMARK    7  A    between atoms: C10_13  and  C11_14 
REMARK    8  A    between atoms: C11_14  and  C12_15 
ROOT
HETATM    1  C3  UNL     1      24.731  -0.402  54.208  1.00  0.00     0.726 A 
HETATM    2  N2  UNL     1      24.274   0.353  53.167  1.00  0.00    -0.074 NA
HETATM    3  C4  UNL     1      22.911   0.311  52.982  1.00  0.00     0.145 A 
HETATM    4  C5  UNL     1      22.128  -0.471  53.841  1.00  0.00    -0.016 A 
HETATM    5  C13 UNL     1      22.641  -1.212  54.875  1.00  0.00     0.145 A 
HETATM    6  N3  UNL     1      23.997  -1.166  55.054  1.00  0.00    -0.074 NA
ENDROOT
BRANCH   4   7
HETATM    7  C6  UNL     1      20.805  -0.252  53.291  1.00  0.00     0.081 C 
HETATM    8  C7  UNL     1      19.851   0.320  52.625  1.00  0.00    -0.008 C 
HETATM    9  C8  UNL     1      19.129   1.322  51.753  1.00  0.00     0.017 C 
BRANCH   8  10
HETATM   10  C9  UNL     1      18.778  -0.664  52.897  1.00  0.00     0.013 C 
HETATM   11 CL1  UNL     1      18.640  -2.201  53.767  1.00  0.00    -0.089 Cl
BRANCH  10  12
HETATM   12  C10 UNL     1      17.474  -0.833  52.616  1.00  0.00    -0.006 C 
BRANCH  12  13
HETATM   13  C11 UNL     1      16.177  -0.840  51.896  1.00  0.00     0.043 C 
BRANCH  13  14
HETATM   14  C12 UNL     1      15.116  -0.167  52.746  1.00  0.00     0.118 C 
HETATM   15 CL2  UNL     1      15.132   1.592  52.464  1.00  0.00    -0.130 Cl
ENDBRANCH  13  14
ENDBRANCH  12  13
ENDBRANCH  10  12
ENDBRANCH   8  10
ENDBRANCH   4   7
BRANCH   1  16
HETATM   16  N1  UNL     1      26.106  -0.484  54.537  1.00  0.00    -0.192 N 
HETATM   17  H3  UNL     1      26.366  -0.386  55.549  1.00  0.00     0.184 HD
BRANCH  16  18
HETATM   18  C2  UNL     1      27.246  -0.685  53.715  1.00  0.00     0.021 C 
HETATM   19  C1  UNL     1      27.098  -1.561  52.734  1.00  0.00     0.039 C 
BRANCH  18  20
HETATM   20  C14 UNL     1      28.496   0.073  53.986  1.00  0.00     0.027 C 
HETATM   21  C15 UNL     1      28.372   1.412  53.302  1.00  0.00     0.016 C 
HETATM   22  C16 UNL     1      29.718  -0.680  53.552  1.00  0.00     0.016 C 
ENDBRANCH  18  20
ENDBRANCH  16  18
ENDBRANCH   1  16
TORSDOF 8
ENDMDL
MODEL 7
REMARK VINA RESULT:      -6.2      2.951      7.248
REMARK  8 active torsions:
REMARK  status: ('A' for Active; 'I' for Inactive)
REMARK    1  A    between atoms: C2_2  and  N1_3 
REMARK    2  A    between atoms: C2_2  and  C14_19 
REMARK    3  A    between atoms: N1_3  and  C3_4 
REMARK    4  A    between atoms: C5_7  and  C6_8 
REMARK    5  A    between atoms: C7_9  and  C9_11 
REMARK    6  A    between atoms: C9_11  and  C10_13 
REMARK    7  A    between atoms: C10_13  and  C11_14 
REMARK    8  A    between atoms: C11_14  and  C12_15 
ROOT
HETATM    1  C3  UNL     1      25.857   1.284  52.279  1.00  0.00     0.726 A 
HETATM    2  N2  UNL     1      26.707   1.715  51.302  1.00  0.00    -0.074 NA
HETATM    3  C4  UNL     1      26.311   2.867  50.664  1.00  0.00     0.145 A 
HETATM    4  C5  UNL     1      25.114   3.485  51.048  1.00  0.00    -0.016 A 
HETATM    5  C13 UNL     1      24.295   3.008  52.039  1.00  0.00     0.145 A 
HETATM    6  N3  UNL     1      24.695   1.861  52.671  1.00  0.00    -0.074 NA
ENDROOT
BRANCH   4   7
HETATM    7  C6  UNL     1      25.073   4.609  50.133  1.00  0.00     0.081 C 
HETATM    8  C7  UNL     1      24.625   5.402  49.211  1.00  0.00    -0.008 C 
HETATM    9  C8  UNL     1      23.715   5.977  48.149  1.00  0.00     0.017 C 
BRANCH   8  10
HETATM   10  C9  UNL     1      25.733   6.386  49.216  1.00  0.00     0.013 C 
HETATM   11 CL1  UNL     1      26.206   7.779  50.204  1.00  0.00    -0.089 Cl
BRANCH  10  12
HETATM   12  C10 UNL     1      26.838   6.658  48.500  1.00  0.00    -0.006 C 
BRANCH  12  13
HETATM   13  C11 UNL     1      27.808   7.343  47.610  1.00  0.00     0.043 C 
BRANCH  13  14
HETATM   14  C12 UNL     1      29.222   7.059  48.080  1.00  0.00     0.118 C 
HETATM   15 CL2  UNL     1      29.530   5.305  48.068  1.00  0.00    -0.130 Cl
ENDBRANCH  13  14
ENDBRANCH  12  13
ENDBRANCH  10  12
ENDBRANCH   8  10
ENDBRANCH   4   7
BRANCH   1  16
HETATM   16  N1  UNL     1      26.102   0.110  53.032  1.00  0.00    -0.192 N 
HETATM   17  H3  UNL     1      25.396  -0.149  53.764  1.00  0.00     0.184 HD
BRANCH  16  18
HETATM   18  C2  UNL     1      27.173  -0.822  52.976  1.00  0.00     0.021 C 
HETATM   19  C1  UNL     1      26.870  -2.011  52.478  1.00  0.00     0.039 C 
BRANCH  18  20
HETATM   20  C14 UNL     1      28.522  -0.428  53.457  1.00  0.00     0.027 C 
HETATM   21  C15 UNL     1      29.412  -1.642  53.355  1.00  0.00     0.016 C 
HETATM   22  C16 UNL     1      28.484   0.138  54.845  1.00  0.00     0.016 C 
ENDBRANCH  18  20
ENDBRANCH  16  18
ENDBRANCH   1  16
TORSDOF 8
ENDMDL
MODEL 8
REMARK VINA RESULT:      -6.1      2.097      2.729
REMARK  8 active torsions:
REMARK  status: ('A' for Active; 'I' for Inactive)
REMARK    1  A    between atoms: C2_2  and  N1_3 
REMARK    2  A    between atoms: C2_2  and  C14_19 
REMARK    3  A    between atoms: N1_3  and  C3_4 
REMARK    4  A    between atoms: C5_7  and  C6_8 
REMARK    5  A    between atoms: C7_9  and  C9_11 
REMARK    6  A    between atoms: C9_11  and  C10_13 
REMARK    7  A    between atoms: C10_13  and  C11_14 
REMARK    8  A    between atoms: C11_14  and  C12_15 
ROOT
HETATM    1  C3  UNL     1      24.637   5.092  50.885  1.00  0.00     0.726 A 
HETATM    2  N2  UNL     1      24.863   3.821  50.441  1.00  0.00    -0.074 NA
HETATM    3  C4  UNL     1      24.123   2.851  51.076  1.00  0.00     0.145 A 
HETATM    4  C5  UNL     1      23.230   3.224  52.087  1.00  0.00    -0.016 A 
HETATM    5  C13 UNL     1      23.040   4.520  52.496  1.00  0.00     0.145 A 
HETATM    6  N3  UNL     1      23.779   5.481  51.861  1.00  0.00    -0.074 NA
ENDROOT
BRANCH   4   7
HETATM    7  C6  UNL     1      22.699   1.935  52.483  1.00  0.00     0.081 C 
HETATM    8  C7  UNL     1      21.873   0.938  52.560  1.00  0.00    -0.008 C 
HETATM    9  C8  UNL     1      20.639   0.095  52.336  1.00  0.00     0.017 C 
BRANCH   8  10
HETATM   10  C9  UNL     1      22.681   0.056  53.433  1.00  0.00     0.013 C 
HETATM   11 CL1  UNL     1      22.355  -1.177  54.663  1.00  0.00    -0.089 Cl
BRANCH  10  12
HETATM   12  C10 UNL     1      23.978  -0.198  53.680  1.00  0.00    -0.006 C 
BRANCH  12  13
HETATM   13  C11 UNL     1      25.226  -0.628  54.358  1.00  0.00     0.043 C 
BRANCH  13  14
HETATM   14  C12 UNL     1      26.398   0.177  53.830  1.00  0.00     0.118 C 
HETATM   15 CL2  UNL     1      26.066   1.919  53.993  1.00  0.00    -0.130 Cl
ENDBRANCH  13  14
ENDBRANCH  12  13
ENDBRANCH  10  12
ENDBRANCH   8  10
ENDBRANCH   4   7
BRANCH   1  16
HETATM   16  N1  UNL     1      25.318   6.212  50.352  1.00  0.00    -0.192 N 
HETATM   17  H3  UNL     1      25.525   7.007  51.007  1.00  0.00     0.184 HD
BRANCH  16  18
HETATM   18  C2  UNL     1      25.796   6.471  49.040  1.00  0.00     0.021 C 
HETATM   19  C1  UNL     1      24.867   6.745  48.137  1.00  0.00     0.039 C 
BRANCH  18  20
HETATM   20  C14 UNL     1      27.255   6.426  48.762  1.00  0.00     0.027 C 
HETATM   21  C15 UNL     1      27.517   7.315  47.571  1.00  0.00     0.016 C 
HETATM   22  C16 UNL     1      27.746   5.025  48.549  1.00  0.00     0.016 C 
ENDBRANCH  18  20
ENDBRANCH  16  18
ENDBRANCH   1  16
TORSDOF 8
ENDMDL
MODEL 9
REMARK VINA RESULT:      -6.1      3.457      7.379
REMARK  8 active torsions:
REMARK  status: ('A' for Active; 'I' for Inactive)
REMARK    1  A    between atoms: C2_2  and  N1_3 
REMARK    2  A    between atoms: C2_2  and  C14_19 
REMARK    3  A    between atoms: N1_3  and  C3_4 
REMARK    4  A    between atoms: C5_7  and  C6_8 
REMARK    5  A    between atoms: C7_9  and  C9_11 
REMARK    6  A    between atoms: C9_11  and  C10_13 
REMARK    7  A    between atoms: C10_13  and  C11_14 
REMARK    8  A    between atoms: C11_14  and  C12_15 
ROOT
HETATM    1  C3  UNL     1      26.409   1.257  51.994  1.00  0.00     0.726 A 
HETATM    2  N2  UNL     1      27.130   2.243  51.385  1.00  0.00    -0.074 NA
HETATM    3  C4  UNL     1      26.382   3.130  50.647  1.00  0.00     0.145 A 
HETATM    4  C5  UNL     1      24.994   2.962  50.578  1.00  0.00    -0.016 A 
HETATM    5  C13 UNL     1      24.316   1.951  51.211  1.00  0.00     0.145 A 
HETATM    6  N3  UNL     1      25.067   1.071  51.944  1.00  0.00    -0.074 NA
ENDROOT
BRANCH   4   7
HETATM    7  C6  UNL     1      24.621   4.061  49.709  1.00  0.00     0.081 C 
HETATM    8  C7  UNL     1      24.713   5.191  49.080  1.00  0.00    -0.008 C 
HETATM    9  C8  UNL     1      25.275   6.510  48.603  1.00  0.00     0.017 C 
BRANCH   8  10
HETATM   10  C9  UNL     1      23.424   5.137  48.352  1.00  0.00     0.013 C 
HETATM   11 CL1  UNL     1      22.653   6.048  47.042  1.00  0.00    -0.089 Cl
BRANCH  10  12
HETATM   12  C10 UNL     1      22.297   4.403  48.356  1.00  0.00    -0.006 C 
BRANCH  12  13
HETATM   13  C11 UNL     1      20.922   3.933  48.657  1.00  0.00     0.043 C 
BRANCH  13  14
HETATM   14  C12 UNL     1      20.713   2.553  48.063  1.00  0.00     0.118 C 
HETATM   15 CL2  UNL     1      22.275   1.714  47.899  1.00  0.00    -0.130 Cl
ENDBRANCH  13  14
ENDBRANCH  12  13
ENDBRANCH  10  12
ENDBRANCH   8  10
ENDBRANCH   4   7
BRANCH   1  16
HETATM   16  N1  UNL     1      27.016   0.252  52.784  1.00  0.00    -0.192 N 
HETATM   17  H3  UNL     1      27.247  -0.658  52.313  1.00  0.00     0.184 HD
BRANCH  16  18
HETATM   18  C2  UNL     1      27.389   0.248  54.155  1.00  0.00     0.021 C 
HETATM   19  C1  UNL     1      26.388   0.183  55.019  1.00  0.00     0.039 C 
BRANCH  18  20
HETATM   20  C14 UNL     1      28.825   0.309  54.532  1.00  0.00     0.027 C 
HETATM   21  C15 UNL     1      29.289   1.729  54.320  1.00  0.00     0.016 C 
HETATM   22  C16 UNL     1      29.651  -0.683  53.769  1.00  0.00     0.016 C 
ENDBRANCH  18  20
ENDBRANCH  16  18
ENDBRANCH   1  16
TORSDOF 8
ENDMDL
