MODEL 1
REMARK VINA RESULT:      -8.4      0.000      0.000
REMARK  7 active torsions:
REMARK  status: ('A' for Active; 'I' for Inactive)
REMARK    1  A    between atoms: N1_1  and  C1_2 
REMARK    2  A    between atoms: C4_5  and  N2_6 
REMARK    3  A    between atoms: N2_6  and  C5_7 
REMARK    4  A    between atoms: C8_10  and  N3_11 
REMARK       I    between atoms: N3_11  and  C9_12 
REMARK    5  A    between atoms: C9_12  and  C10_14 
REMARK    6  A    between atoms: C10_14  and  C11_15 
REMARK    7  A    between atoms: C11_15  and  N4_16 
ROOT
HETATM    1  C5  UNL     1      24.902   2.830  52.352  1.00  0.00     0.034 C 
HETATM    2  C6  UNL     1      25.400   2.991  51.132  1.00  0.00    -0.023 C 
HETATM    3  C7  UNL     1      26.563   3.632  50.430  1.00  0.00     0.060 C 
HETATM    4  C8  UNL     1      26.087   4.361  49.326  1.00  0.00     0.132 C 
HETATM    5  N5  UNL     1      24.577   4.584  49.197  1.00  0.00    -0.218 NA
HETATM    6  C16 UNL     1      23.911   4.027  50.204  1.00  0.00     0.106 C 
HETATM    7  C17 UNL     1      24.345   2.527  50.064  1.00  0.00     0.118 C 
HETATM    8  N6  UNL     1      23.106   4.066  51.419  1.00  0.00    -0.372 N 
HETATM    9  C18 UNL     1      23.373   3.014  52.470  1.00  0.00     0.178 C 
HETATM   10  H22 UNL     1      22.569   4.949  51.081  1.00  0.00     0.161 HD
ENDROOT
BRANCH   1  11
HETATM   11  N2  UNL     1      26.133   2.560  53.097  1.00  0.00    -0.358 N 
HETATM   12  H5  UNL     1      26.570   3.353  53.598  1.00  0.00     0.166 HD
BRANCH  11  13
HETATM   13  C4  UNL     1      26.639   1.213  53.081  1.00  0.00     0.034 A 
HETATM   14  C3  UNL     1      25.671   0.247  52.895  1.00  0.00     0.032 A 
HETATM   15  C2  UNL     1      25.987  -1.113  52.852  1.00  0.00     0.033 A 
HETATM   16  C1  UNL     1      27.312  -1.400  53.006  1.00  0.00     0.047 A 
HETATM   17  C20 UNL     1      28.329  -0.487  53.195  1.00  0.00     0.062 A 
HETATM   18  C19 UNL     1      27.975   0.858  53.232  1.00  0.00     0.055 A 
HETATM   19 CL1  UNL     1      30.018  -0.893  53.389  1.00  0.00    -0.082 Cl
BRANCH  16  20
HETATM   20  N1  UNL     1      27.680  -2.781  52.967  1.00  0.00    -0.398 N 
HETATM   21  H1  UNL     1      28.519  -3.144  52.467  1.00  0.00     0.156 HD
HETATM   22  H2  UNL     1      27.197  -3.588  53.405  1.00  0.00     0.156 HD
ENDBRANCH  16  20
ENDBRANCH  11  13
ENDBRANCH   1  11
BRANCH   4  23
HETATM   23  N3  UNL     1      27.200   4.745  48.596  1.00  0.00    -0.312 N 
HETATM   24  C9  UNL     1      27.462   6.144  48.596  1.00  0.00     0.224 C 
HETATM   25  O1  UNL     1      26.755   6.989  49.203  1.00  0.00    -0.273 OA
HETATM   26  H7  UNL     1      27.776   4.036  48.098  1.00  0.00     0.170 HD
BRANCH  24  27
HETATM   27  C10 UNL     1      28.655   6.653  47.823  1.00  0.00     0.133 C 
BRANCH  27  28
HETATM   28  C11 UNL     1      29.773   5.710  48.170  1.00  0.00     0.282 C 
BRANCH  28  29
HETATM   29  N4  UNL     1      30.831   6.294  48.956  1.00  0.00     0.093 N 
HETATM   30  C12 UNL     1      32.016   5.480  48.896  1.00  0.00     0.298 C 
HETATM   31  C13 UNL     1      32.813   5.715  47.633  1.00  0.00     0.198 C 
HETATM   32  O2  UNL     1      33.215   7.050  47.675  1.00  0.00    -0.388 OA
HETATM   33  C14 UNL     1      32.083   7.823  47.480  1.00  0.00     0.198 C 
HETATM   34  C15 UNL     1      31.043   7.651  48.538  1.00  0.00     0.298 C 
ENDBRANCH  28  29
ENDBRANCH  27  28
ENDBRANCH  24  27
ENDBRANCH   4  23
TORSDOF 7
ENDMDL
MODEL 2
REMARK VINA RESULT:      -8.3      2.387      4.425
REMARK  7 active torsions:
REMARK  status: ('A' for Active; 'I' for Inactive)
REMARK    1  A    between atoms: N1_1  and  C1_2 
REMARK    2  A    between atoms: C4_5  and  N2_6 
REMARK    3  A    between atoms: N2_6  and  C5_7 
REMARK    4  A    between atoms: C8_10  and  N3_11 
REMARK       I    between atoms: N3_11  and  C9_12 
REMARK    5  A    between atoms: C9_12  and  C10_14 
REMARK    6  A    between atoms: C10_14  and  C11_15 
REMARK    7  A    between atoms: C11_15  and  N4_16 
ROOT
HETATM    1  C5  UNL     1      26.323   5.582  49.368  1.00  0.00     0.034 C 
HETATM    2  C6  UNL     1      27.241   6.092  48.557  1.00  0.00    -0.023 C 
HETATM    3  C7  UNL     1      28.673   5.887  48.150  1.00  0.00     0.060 C 
HETATM    4  C8  UNL     1      29.337   7.127  48.168  1.00  0.00     0.132 C 
HETATM    5  N5  UNL     1      28.625   8.325  48.805  1.00  0.00    -0.218 NA
HETATM    6  C16 UNL     1      27.426   7.991  49.272  1.00  0.00     0.106 C 
HETATM    7  C17 UNL     1      26.730   7.459  47.972  1.00  0.00     0.118 C 
HETATM    8  N6  UNL     1      26.460   7.743  50.335  1.00  0.00    -0.372 N 
HETATM    9  C18 UNL     1      25.472   6.617  50.135  1.00  0.00     0.178 C 
HETATM   10  H22 UNL     1      26.872   8.539  50.949  1.00  0.00     0.161 HD
ENDROOT
BRANCH   1  11
HETATM   11  N2  UNL     1      26.578   4.153  49.176  1.00  0.00    -0.358 N 
HETATM   12  H5  UNL     1      27.205   3.881  48.399  1.00  0.00     0.166 HD
BRANCH  11  13
HETATM   13  C4  UNL     1      25.943   3.235  50.085  1.00  0.00     0.034 A 
HETATM   14  C3  UNL     1      24.565   3.210  49.992  1.00  0.00     0.032 A 
HETATM   15  C2  UNL     1      23.789   2.376  50.799  1.00  0.00     0.033 A 
HETATM   16  C1  UNL     1      24.496   1.601  51.671  1.00  0.00     0.047 A 
HETATM   17  C20 UNL     1      25.867   1.575  51.816  1.00  0.00     0.062 A 
HETATM   18  C19 UNL     1      26.607   2.421  50.994  1.00  0.00     0.055 A 
HETATM   19 CL1  UNL     1      26.739   0.567  52.946  1.00  0.00    -0.082 Cl
BRANCH  16  20
HETATM   20  N1  UNL     1      23.740   0.730  52.517  1.00  0.00    -0.398 N 
HETATM   21  H1  UNL     1      23.639  -0.295  52.354  1.00  0.00     0.156 HD
HETATM   22  H2  UNL     1      23.205   0.969  53.373  1.00  0.00     0.156 HD
ENDBRANCH  16  20
ENDBRANCH  11  13
ENDBRANCH   1  11
BRANCH   4  23
HETATM   23  N3  UNL     1      30.575   6.920  47.583  1.00  0.00    -0.312 N 
HETATM   24  C9  UNL     1      31.679   6.991  48.479  1.00  0.00     0.224 C 
HETATM   25  O1  UNL     1      31.568   7.219  49.711  1.00  0.00    -0.273 OA
HETATM   26  H7  UNL     1      30.653   6.733  46.563  1.00  0.00     0.170 HD
BRANCH  24  27
HETATM   27  C10 UNL     1      33.069   6.781  47.926  1.00  0.00     0.133 C 
BRANCH  27  28
HETATM   28  C11 UNL     1      33.431   5.374  48.311  1.00  0.00     0.282 C 
BRANCH  28  29
HETATM   29  N4  UNL     1      33.911   4.556  47.224  1.00  0.00     0.093 N 
HETATM   30  C12 UNL     1      34.458   3.322  47.721  1.00  0.00     0.298 C 
HETATM   31  C13 UNL     1      33.388   2.300  48.029  1.00  0.00     0.198 C 
HETATM   32  O2  UNL     1      32.755   2.028  46.816  1.00  0.00    -0.388 OA
HETATM   33  C14 UNL     1      32.026   3.153  46.475  1.00  0.00     0.198 C 
HETATM   34  C15 UNL     1      32.860   4.375  46.264  1.00  0.00     0.298 C 
ENDBRANCH  28  29
ENDBRANCH  27  28
ENDBRANCH  24  27
ENDBRANCH   4  23
TORSDOF 7
ENDMDL
MODEL 3
REMARK VINA RESULT:      -8.2      2.172      3.256
REMARK  7 active torsions:
REMARK  status: ('A' for Active; 'I' for Inactive)
REMARK    1  A    between atoms: N1_1  and  C1_2 
REMARK    2  A    between atoms: C4_5  and  N2_6 
REMARK    3  A    between atoms: N2_6  and  C5_7 
REMARK    4  A    between atoms: C8_10  and  N3_11 
REMARK       I    between atoms: N3_11  and  C9_12 
REMARK    5  A    between atoms: C9_12  and  C10_14 
REMARK    6  A    between atoms: C10_14  and  C11_15 
REMARK    7  A    between atoms: C11_15  and  N4_16 
ROOT
HETATM    1  C5  UNL     1      25.081   4.612  50.232  1.00  0.00     0.034 C 
HETATM    2  C6  UNL     1      25.898   5.025  49.271  1.00  0.00    -0.023 C 
HETATM    3  C7  UNL     1      27.292   4.801  48.757  1.00  0.00     0.060 C 
HETATM    4  C8  UNL     1      27.905   6.048  48.537  1.00  0.00     0.132 C 
HETATM    5  N5  UNL     1      27.210   7.305  49.069  1.00  0.00    -0.218 NA
HETATM    6  C16 UNL     1      26.074   7.011  49.694  1.00  0.00     0.106 C 
HETATM    7  C17 UNL     1      25.280   6.281  48.556  1.00  0.00     0.118 C 
HETATM    8  N6  UNL     1      25.223   6.891  50.872  1.00  0.00    -0.372 N 
HETATM    9  C18 UNL     1      24.266   5.724  50.929  1.00  0.00     0.178 C 
HETATM   10  H22 UNL     1      25.660   7.777  51.325  1.00  0.00     0.161 HD
ENDROOT
BRANCH   1  11
HETATM   11  N2  UNL     1      25.373   3.177  50.216  1.00  0.00    -0.358 N 
HETATM   12  H5  UNL     1      25.270   2.681  49.314  1.00  0.00     0.166 HD
BRANCH  11  13
HETATM   13  C4  UNL     1      25.785   2.568  51.453  1.00  0.00     0.034 A 
HETATM   14  C3  UNL     1      24.772   1.918  52.129  1.00  0.00     0.032 A 
HETATM   15  C2  UNL     1      24.997   1.271  53.346  1.00  0.00     0.033 A 
HETATM   16  C1  UNL     1      26.282   1.334  53.801  1.00  0.00     0.047 A 
HETATM   17  C20 UNL     1      27.339   1.963  53.178  1.00  0.00     0.062 A 
HETATM   18  C19 UNL     1      27.076   2.597  51.968  1.00  0.00     0.055 A 
HETATM   19 CL1  UNL     1      28.975   2.023  53.793  1.00  0.00    -0.082 Cl
BRANCH  16  20
HETATM   20  N1  UNL     1      26.557   0.683  55.044  1.00  0.00    -0.398 N 
HETATM   21  H1  UNL     1      27.337   0.006  55.185  1.00  0.00     0.156 HD
HETATM   22  H2  UNL     1      26.052   0.778  55.945  1.00  0.00     0.156 HD
ENDBRANCH  16  20
ENDBRANCH  11  13
ENDBRANCH   1  11
BRANCH   4  23
HETATM   23  N3  UNL     1      29.090   5.792  47.867  1.00  0.00    -0.312 N 
HETATM   24  C9  UNL     1      30.151   6.693  48.163  1.00  0.00     0.224 C 
HETATM   25  O1  UNL     1      30.050   7.654  48.968  1.00  0.00    -0.273 OA
HETATM   26  H7  UNL     1      29.160   4.994  47.203  1.00  0.00     0.170 HD
BRANCH  24  27
HETATM   27  C10 UNL     1      31.480   6.491  47.474  1.00  0.00     0.133 C 
BRANCH  27  28
HETATM   28  C11 UNL     1      31.727   5.010  47.534  1.00  0.00     0.282 C 
BRANCH  28  29
HETATM   29  N4  UNL     1      32.766   4.536  46.653  1.00  0.00     0.093 N 
HETATM   30  C12 UNL     1      34.009   5.205  46.929  1.00  0.00     0.298 C 
HETATM   31  C13 UNL     1      34.733   4.610  48.115  1.00  0.00     0.198 C 
HETATM   32  O2  UNL     1      35.026   3.292  47.765  1.00  0.00    -0.388 OA
HETATM   33  C14 UNL     1      33.829   2.598  47.747  1.00  0.00     0.198 C 
HETATM   34  C15 UNL     1      32.849   3.106  46.740  1.00  0.00     0.298 C 
ENDBRANCH  28  29
ENDBRANCH  27  28
ENDBRANCH  24  27
ENDBRANCH   4  23
TORSDOF 7
ENDMDL
MODEL 4
REMARK VINA RESULT:      -8.2      2.229      2.850
REMARK  7 active torsions:
REMARK  status: ('A' for Active; 'I' for Inactive)
REMARK    1  A    between atoms: N1_1  and  C1_2 
REMARK    2  A    between atoms: C4_5  and  N2_6 
REMARK    3  A    between atoms: N2_6  and  C5_7 
REMARK    4  A    between atoms: C8_10  and  N3_11 
REMARK       I    between atoms: N3_11  and  C9_12 
REMARK    5  A    between atoms: C9_12  and  C10_14 
REMARK    6  A    between atoms: C10_14  and  C11_15 
REMARK    7  A    between atoms: C11_15  and  N4_16 
ROOT
HETATM    1  C5  UNL     1      23.122   3.543  51.058  1.00  0.00     0.034 C 
HETATM    2  C6  UNL     1      23.833   4.387  50.320  1.00  0.00    -0.023 C 
HETATM    3  C7  UNL     1      25.250   4.645  49.891  1.00  0.00     0.060 C 
HETATM    4  C8  UNL     1      25.543   6.008  50.071  1.00  0.00     0.132 C 
HETATM    5  N5  UNL     1      24.549   6.869  50.858  1.00  0.00    -0.218 NA
HETATM    6  C16 UNL     1      23.507   6.157  51.276  1.00  0.00     0.106 C 
HETATM    7  C17 UNL     1      22.941   5.617  49.917  1.00  0.00     0.118 C 
HETATM    8  N6  UNL     1      22.687   5.517  52.297  1.00  0.00    -0.372 N 
HETATM    9  C18 UNL     1      22.044   4.194  51.952  1.00  0.00     0.178 C 
HETATM   10  H22 UNL     1      22.883   6.313  53.010  1.00  0.00     0.161 HD
ENDROOT
BRANCH   1  11
HETATM   11  N2  UNL     1      23.758   2.278  50.681  1.00  0.00    -0.358 N 
HETATM   12  H5  UNL     1      23.886   2.091  49.672  1.00  0.00     0.166 HD
BRANCH  11  13
HETATM   13  C4  UNL     1      24.162   1.394  51.743  1.00  0.00     0.034 A 
HETATM   14  C3  UNL     1      25.529   1.265  51.883  1.00  0.00     0.032 A 
HETATM   15  C2  UNL     1      26.094   0.448  52.865  1.00  0.00     0.033 A 
HETATM   16  C1  UNL     1      25.194  -0.199  53.660  1.00  0.00     0.047 A 
HETATM   17  C20 UNL     1      23.820  -0.115  53.577  1.00  0.00     0.062 A 
HETATM   18  C19 UNL     1      23.295   0.709  52.586  1.00  0.00     0.055 A 
HETATM   19 CL1  UNL     1      22.698  -0.961  54.616  1.00  0.00    -0.082 Cl
BRANCH  16  20
HETATM   20  N1  UNL     1      25.730  -1.046  54.680  1.00  0.00    -0.398 N 
HETATM   21  H1  UNL     1      25.291  -1.944  54.980  1.00  0.00     0.156 HD
HETATM   22  H2  UNL     1      26.587  -0.907  55.248  1.00  0.00     0.156 HD
ENDBRANCH  16  20
ENDBRANCH  11  13
ENDBRANCH   1  11
BRANCH   4  23
HETATM   23  N3  UNL     1      26.768   6.232  49.465  1.00  0.00    -0.312 N 
HETATM   24  C9  UNL     1      26.703   6.923  48.223  1.00  0.00     0.224 C 
HETATM   25  O1  UNL     1      25.631   7.314  47.694  1.00  0.00    -0.273 OA
HETATM   26  H7  UNL     1      27.647   5.903  49.913  1.00  0.00     0.170 HD
BRANCH  24  27
HETATM   27  C10 UNL     1      27.992   7.208  47.489  1.00  0.00     0.133 C 
BRANCH  27  28
HETATM   28  C11 UNL     1      29.008   6.300  48.123  1.00  0.00     0.282 C 
BRANCH  28  29
HETATM   29  N4  UNL     1      30.364   6.512  47.682  1.00  0.00     0.093 N 
HETATM   30  C12 UNL     1      30.738   7.892  47.838  1.00  0.00     0.298 C 
HETATM   31  C13 UNL     1      31.140   8.223  49.257  1.00  0.00     0.198 C 
HETATM   32  O2  UNL     1      32.263   7.443  49.531  1.00  0.00    -0.388 OA
HETATM   33  C14 UNL     1      31.836   6.130  49.624  1.00  0.00     0.198 C 
HETATM   34  C15 UNL     1      31.236   5.598  48.363  1.00  0.00     0.298 C 
ENDBRANCH  28  29
ENDBRANCH  27  28
ENDBRANCH  24  27
ENDBRANCH   4  23
TORSDOF 7
ENDMDL
MODEL 5
REMARK VINA RESULT:      -8.2      1.695      1.967
REMARK  7 active torsions:
REMARK  status: ('A' for Active; 'I' for Inactive)
REMARK    1  A    between atoms: N1_1  and  C1_2 
REMARK    2  A    between atoms: C4_5  and  N2_6 
REMARK    3  A    between atoms: N2_6  and  C5_7 
REMARK    4  A    between atoms: C8_10  and  N3_11 
REMARK       I    between atoms: N3_11  and  C9_12 
REMARK    5  A    between atoms: C9_12  and  C10_14 
REMARK    6  A    between atoms: C10_14  and  C11_15 
REMARK    7  A    between atoms: C11_15  and  N4_16 
ROOT
HETATM    1  C5  UNL     1      25.297   3.526  50.705  1.00  0.00     0.034 C 
HETATM    2  C6  UNL     1      25.614   4.353  49.716  1.00  0.00    -0.023 C 
HETATM    3  C7  UNL     1      26.817   4.956  49.048  1.00  0.00     0.060 C 
HETATM    4  C8  UNL     1      26.614   6.339  48.899  1.00  0.00     0.132 C 
HETATM    5  N5  UNL     1      25.426   6.983  49.622  1.00  0.00    -0.218 NA
HETATM    6  C16 UNL     1      24.734   6.089  50.321  1.00  0.00     0.106 C 
HETATM    7  C17 UNL     1      24.319   5.077  49.197  1.00  0.00     0.118 C 
HETATM    8  N6  UNL     1      24.259   5.481  51.558  1.00  0.00    -0.372 N 
HETATM    9  C18 UNL     1      24.112   3.977  51.588  1.00  0.00     0.178 C 
HETATM   10  H22 UNL     1      24.199   6.445  52.055  1.00  0.00     0.161 HD
ENDROOT
BRANCH   1  11
HETATM   11  N2  UNL     1      26.319   2.495  50.514  1.00  0.00    -0.358 N 
HETATM   12  H5  UNL     1      26.647   2.323  49.547  1.00  0.00     0.166 HD
BRANCH  11  13
HETATM   13  C4  UNL     1      26.793   1.803  51.683  1.00  0.00     0.034 A 
HETATM   14  C3  UNL     1      26.148   0.609  51.935  1.00  0.00     0.032 A 
HETATM   15  C2  UNL     1      26.484  -0.193  53.028  1.00  0.00     0.033 A 
HETATM   16  C1  UNL     1      27.487   0.297  53.812  1.00  0.00     0.047 A 
HETATM   17  C20 UNL     1      28.172   1.478  53.620  1.00  0.00     0.062 A 
HETATM   18  C19 UNL     1      27.809   2.250  52.520  1.00  0.00     0.055 A 
HETATM   19 CL1  UNL     1      29.454   2.074  54.648  1.00  0.00    -0.082 Cl
BRANCH  16  20
HETATM   20  N1  UNL     1      27.863  -0.492  54.944  1.00  0.00    -0.398 N 
HETATM   21  H1  UNL     1      28.287  -0.099  55.811  1.00  0.00     0.156 HD
HETATM   22  H2  UNL     1      27.779  -1.518  55.069  1.00  0.00     0.156 HD
ENDBRANCH  16  20
ENDBRANCH  11  13
ENDBRANCH   1  11
BRANCH   4  23
HETATM   23  N3  UNL     1      27.640   6.804  48.093  1.00  0.00    -0.312 N 
HETATM   24  C9  UNL     1      28.281   7.985  48.564  1.00  0.00     0.224 C 
HETATM   25  O1  UNL     1      27.963   8.580  49.625  1.00  0.00    -0.273 OA
HETATM   26  H7  UNL     1      27.893   6.303  47.217  1.00  0.00     0.170 HD
BRANCH  24  27
HETATM   27  C10 UNL     1      29.410   8.565  47.746  1.00  0.00     0.133 C 
BRANCH  27  28
HETATM   28  C11 UNL     1      30.454   7.485  47.704  1.00  0.00     0.282 C 
BRANCH  28  29
HETATM   29  N4  UNL     1      31.121   7.242  48.960  1.00  0.00     0.093 N 
HETATM   30  C12 UNL     1      31.451   5.849  49.098  1.00  0.00     0.298 C 
HETATM   31  C13 UNL     1      32.711   5.478  48.348  1.00  0.00     0.198 C 
HETATM   32  O2  UNL     1      33.738   6.221  48.932  1.00  0.00    -0.388 OA
HETATM   33  C14 UNL     1      33.539   7.543  48.577  1.00  0.00     0.198 C 
HETATM   34  C15 UNL     1      32.252   8.117  49.076  1.00  0.00     0.298 C 
ENDBRANCH  28  29
ENDBRANCH  27  28
ENDBRANCH  24  27
ENDBRANCH   4  23
TORSDOF 7
ENDMDL
MODEL 6
REMARK VINA RESULT:      -8.0      2.385      2.895
REMARK  7 active torsions:
REMARK  status: ('A' for Active; 'I' for Inactive)
REMARK    1  A    between atoms: N1_1  and  C1_2 
REMARK    2  A    between atoms: C4_5  and  N2_6 
REMARK    3  A    between atoms: N2_6  and  C5_7 
REMARK    4  A    between atoms: C8_10  and  N3_11 
REMARK       I    between atoms: N3_11  and  C9_12 
REMARK    5  A    between atoms: C9_12  and  C10_14 
REMARK    6  A    between atoms: C10_14  and  C11_15 
REMARK    7  A    between atoms: C11_15  and  N4_16 
ROOT
HETATM    1  C5  UNL     1      23.113   3.472  51.028  1.00  0.00     0.034 C 
HETATM    2  C6  UNL     1      23.885   4.257  50.286  1.00  0.00    -0.023 C 
HETATM    3  C7  UNL     1      25.319   4.409  49.863  1.00  0.00     0.060 C 
HETATM    4  C8  UNL     1      25.707   5.750  50.031  1.00  0.00     0.132 C 
HETATM    5  N5  UNL     1      24.772   6.687  50.803  1.00  0.00    -0.218 NA
HETATM    6  C16 UNL     1      23.680   6.055  51.222  1.00  0.00     0.106 C 
HETATM    7  C17 UNL     1      23.085   5.542  49.866  1.00  0.00     0.118 C 
HETATM    8  N6  UNL     1      22.812   5.485  52.245  1.00  0.00    -0.372 N 
HETATM    9  C18 UNL     1      22.080   4.207  51.909  1.00  0.00     0.178 C 
HETATM   10  H22 UNL     1      23.060   6.273  52.951  1.00  0.00     0.161 HD
ENDROOT
BRANCH   1  11
HETATM   11  N2  UNL     1      23.660   2.162  50.668  1.00  0.00    -0.358 N 
HETATM   12  H5  UNL     1      23.600   1.878  49.675  1.00  0.00     0.166 HD
BRANCH  11  13
HETATM   13  C4  UNL     1      24.243   1.372  51.721  1.00  0.00     0.034 A 
HETATM   14  C3  UNL     1      23.321   0.739  52.530  1.00  0.00     0.032 A 
HETATM   15  C2  UNL     1      23.712  -0.070  53.600  1.00  0.00     0.033 A 
HETATM   16  C1  UNL     1      25.061  -0.178  53.773  1.00  0.00     0.047 A 
HETATM   17  C20 UNL     1      26.035   0.425  53.005  1.00  0.00     0.062 A 
HETATM   18  C19 UNL     1      25.606   1.223  51.948  1.00  0.00     0.055 A 
HETATM   19 CL1  UNL     1      27.757   0.263  53.258  1.00  0.00    -0.082 Cl
BRANCH  16  20
HETATM   20  N1  UNL     1      25.507  -0.997  54.857  1.00  0.00    -0.398 N 
HETATM   21  H1  UNL     1      26.061  -0.640  55.665  1.00  0.00     0.156 HD
HETATM   22  H2  UNL     1      25.358  -2.013  54.999  1.00  0.00     0.156 HD
ENDBRANCH  16  20
ENDBRANCH  11  13
ENDBRANCH   1  11
BRANCH   4  23
HETATM   23  N3  UNL     1      26.947   5.880  49.429  1.00  0.00    -0.312 N 
HETATM   24  C9  UNL     1      26.975   6.739  48.295  1.00  0.00     0.224 C 
HETATM   25  O1  UNL     1      25.967   7.347  47.852  1.00  0.00    -0.273 OA
HETATM   26  H7  UNL     1      27.773   5.371  49.805  1.00  0.00     0.170 HD
BRANCH  24  27
HETATM   27  C10 UNL     1      28.287   6.938  47.574  1.00  0.00     0.133 C 
BRANCH  27  28
HETATM   28  C11 UNL     1      28.551   8.416  47.649  1.00  0.00     0.282 C 
BRANCH  28  29
HETATM   29  N4  UNL     1      28.870   8.904  48.968  1.00  0.00     0.093 N 
HETATM   30  C12 UNL     1      30.292   8.889  49.184  1.00  0.00     0.298 C 
HETATM   31  C13 UNL     1      30.982  10.084  48.565  1.00  0.00     0.198 C 
HETATM   32  O2  UNL     1      30.464  11.205  49.213  1.00  0.00    -0.388 OA
HETATM   33  C14 UNL     1      29.152  11.349  48.795  1.00  0.00     0.198 C 
HETATM   34  C15 UNL     1      28.273  10.196  49.155  1.00  0.00     0.298 C 
ENDBRANCH  28  29
ENDBRANCH  27  28
ENDBRANCH  24  27
ENDBRANCH   4  23
TORSDOF 7
ENDMDL
MODEL 7
REMARK VINA RESULT:      -7.9      2.679      3.410
REMARK  7 active torsions:
REMARK  status: ('A' for Active; 'I' for Inactive)
REMARK    1  A    between atoms: N1_1  and  C1_2 
REMARK    2  A    between atoms: C4_5  and  N2_6 
REMARK    3  A    between atoms: N2_6  and  C5_7 
REMARK    4  A    between atoms: C8_10  and  N3_11 
REMARK       I    between atoms: N3_11  and  C9_12 
REMARK    5  A    between atoms: C9_12  and  C10_14 
REMARK    6  A    between atoms: C10_14  and  C11_15 
REMARK    7  A    between atoms: C11_15  and  N4_16 
ROOT
HETATM    1  C5  UNL     1      23.057   3.542  50.905  1.00  0.00     0.034 C 
HETATM    2  C6  UNL     1      23.862   4.320  50.192  1.00  0.00    -0.023 C 
HETATM    3  C7  UNL     1      25.314   4.473  49.839  1.00  0.00     0.060 C 
HETATM    4  C8  UNL     1      25.688   5.818  50.008  1.00  0.00     0.132 C 
HETATM    5  N5  UNL     1      24.713   6.761  50.720  1.00  0.00    -0.218 NA
HETATM    6  C16 UNL     1      23.604   6.130  51.093  1.00  0.00     0.106 C 
HETATM    7  C17 UNL     1      23.079   5.597  49.715  1.00  0.00     0.118 C 
HETATM    8  N6  UNL     1      22.687   5.570  52.078  1.00  0.00    -0.372 N 
HETATM    9  C18 UNL     1      21.978   4.284  51.724  1.00  0.00     0.178 C 
HETATM   10  H22 UNL     1      22.897   6.368  52.785  1.00  0.00     0.161 HD
ENDROOT
BRANCH   1  11
HETATM   11  N2  UNL     1      23.626   2.230  50.591  1.00  0.00    -0.358 N 
HETATM   12  H5  UNL     1      23.740   1.988  49.591  1.00  0.00     0.166 HD
BRANCH  11  13
HETATM   13  C4  UNL     1      23.986   1.379  51.694  1.00  0.00     0.034 A 
HETATM   14  C3  UNL     1      25.346   1.274  51.907  1.00  0.00     0.032 A 
HETATM   15  C2  UNL     1      25.872   0.491  52.937  1.00  0.00     0.033 A 
HETATM   16  C1  UNL     1      24.941  -0.150  53.702  1.00  0.00     0.047 A 
HETATM   17  C20 UNL     1      23.572  -0.089  53.546  1.00  0.00     0.062 A 
HETATM   18  C19 UNL     1      23.087   0.702  52.509  1.00  0.00     0.055 A 
HETATM   19 CL1  UNL     1      22.410  -0.926  54.548  1.00  0.00    -0.082 Cl
BRANCH  16  20
HETATM   20  N1  UNL     1      25.435  -0.963  54.770  1.00  0.00    -0.398 N 
HETATM   21  H1  UNL     1      26.346  -0.800  55.250  1.00  0.00     0.156 HD
HETATM   22  H2  UNL     1      24.991  -1.793  55.205  1.00  0.00     0.156 HD
ENDBRANCH  16  20
ENDBRANCH  11  13
ENDBRANCH   1  11
BRANCH   4  23
HETATM   23  N3  UNL     1      26.957   5.946  49.468  1.00  0.00    -0.312 N 
HETATM   24  C9  UNL     1      27.025   6.725  48.278  1.00  0.00     0.224 C 
HETATM   25  O1  UNL     1      26.027   7.268  47.738  1.00  0.00    -0.273 OA
HETATM   26  H7  UNL     1      27.774   5.491  49.924  1.00  0.00     0.170 HD
BRANCH  24  27
HETATM   27  C10 UNL     1      28.370   6.915  47.618  1.00  0.00     0.133 C 
BRANCH  27  28
HETATM   28  C11 UNL     1      28.381   8.347  47.164  1.00  0.00     0.282 C 
BRANCH  28  29
HETATM   29  N4  UNL     1      29.688   8.952  47.111  1.00  0.00     0.093 N 
HETATM   30  C12 UNL     1      29.581  10.377  46.941  1.00  0.00     0.298 C 
HETATM   31  C13 UNL     1      29.294  11.092  48.242  1.00  0.00     0.198 C 
HETATM   32  O2  UNL     1      30.390  10.841  49.069  1.00  0.00    -0.388 OA
HETATM   33  C14 UNL     1      30.335   9.506  49.426  1.00  0.00     0.198 C 
HETATM   34  C15 UNL     1      30.441   8.565  48.270  1.00  0.00     0.298 C 
ENDBRANCH  28  29
ENDBRANCH  27  28
ENDBRANCH  24  27
ENDBRANCH   4  23
TORSDOF 7
ENDMDL
MODEL 8
REMARK VINA RESULT:      -7.8      3.512      6.107
REMARK  7 active torsions:
REMARK  status: ('A' for Active; 'I' for Inactive)
REMARK    1  A    between atoms: N1_1  and  C1_2 
REMARK    2  A    between atoms: C4_5  and  N2_6 
REMARK    3  A    between atoms: N2_6  and  C5_7 
REMARK    4  A    between atoms: C8_10  and  N3_11 
REMARK       I    between atoms: N3_11  and  C9_12 
REMARK    5  A    between atoms: C9_12  and  C10_14 
REMARK    6  A    between atoms: C10_14  and  C11_15 
REMARK    7  A    between atoms: C11_15  and  N4_16 
ROOT
HETATM    1  C5  UNL     1      27.215   7.811  48.775  1.00  0.00     0.034 C 
HETATM    2  C6  UNL     1      28.411   7.930  48.212  1.00  0.00    -0.023 C 
HETATM    3  C7  UNL     1      29.611   7.101  47.851  1.00  0.00     0.060 C 
HETATM    4  C8  UNL     1      30.774   7.765  48.280  1.00  0.00     0.132 C 
HETATM    5  N5  UNL     1      30.620   8.979  49.203  1.00  0.00    -0.218 NA
HETATM    6  C16 UNL     1      29.343   9.231  49.473  1.00  0.00     0.106 C 
HETATM    7  C17 UNL     1      28.763   9.451  48.033  1.00  0.00     0.118 C 
HETATM    8  N6  UNL     1      28.182   9.295  50.352  1.00  0.00    -0.372 N 
HETATM    9  C18 UNL     1      26.837   8.936  49.764  1.00  0.00     0.178 C 
HETATM   10  H22 UNL     1      28.791   9.594  51.200  1.00  0.00     0.161 HD
ENDROOT
BRANCH   1  11
HETATM   11  N2  UNL     1      26.777   6.547  48.179  1.00  0.00    -0.358 N 
HETATM   12  H5  UNL     1      26.872   6.446  47.154  1.00  0.00     0.166 HD
BRANCH  11  13
HETATM   13  C4  UNL     1      26.252   5.541  49.064  1.00  0.00     0.034 A 
HETATM   14  C3  UNL     1      26.970   4.362  49.070  1.00  0.00     0.032 A 
HETATM   15  C2  UNL     1      26.602   3.280  49.873  1.00  0.00     0.033 A 
HETATM   16  C1  UNL     1      25.490   3.484  50.637  1.00  0.00     0.047 A 
HETATM   17  C20 UNL     1      24.728   4.633  50.680  1.00  0.00     0.062 A 
HETATM   18  C19 UNL     1      25.127   5.689  49.867  1.00  0.00     0.055 A 
HETATM   19 CL1  UNL     1      23.308   4.858  51.674  1.00  0.00    -0.082 Cl
BRANCH  16  20
HETATM   20  N1  UNL     1      25.077   2.402  51.475  1.00  0.00    -0.398 N 
HETATM   21  H1  UNL     1      24.304   1.744  51.236  1.00  0.00     0.156 HD
HETATM   22  H2  UNL     1      25.459   2.120  52.397  1.00  0.00     0.156 HD
ENDBRANCH  16  20
ENDBRANCH  11  13
ENDBRANCH   1  11
BRANCH   4  23
HETATM   23  N3  UNL     1      31.846   7.076  47.737  1.00  0.00    -0.312 N 
HETATM   24  C9  UNL     1      32.470   7.720  46.631  1.00  0.00     0.224 C 
HETATM   25  O1  UNL     1      32.101   8.827  46.165  1.00  0.00    -0.273 OA
HETATM   26  H7  UNL     1      32.141   6.160  48.132  1.00  0.00     0.170 HD
BRANCH  24  27
HETATM   27  C10 UNL     1      33.647   7.038  45.974  1.00  0.00     0.133 C 
BRANCH  27  28
HETATM   28  C11 UNL     1      33.892   5.805  46.798  1.00  0.00     0.282 C 
BRANCH  28  29
HETATM   29  N4  UNL     1      34.068   4.595  46.034  1.00  0.00     0.093 N 
HETATM   30  C12 UNL     1      34.802   3.618  46.793  1.00  0.00     0.298 C 
HETATM   31  C13 UNL     1      33.928   2.879  47.780  1.00  0.00     0.198 C 
HETATM   32  O2  UNL     1      32.977   2.200  47.018  1.00  0.00    -0.388 OA
HETATM   33  C14 UNL     1      32.121   3.151  46.491  1.00  0.00     0.198 C 
HETATM   34  C15 UNL     1      32.789   4.128  45.580  1.00  0.00     0.298 C 
ENDBRANCH  28  29
ENDBRANCH  27  28
ENDBRANCH  24  27
ENDBRANCH   4  23
TORSDOF 7
ENDMDL
MODEL 9
REMARK VINA RESULT:      -7.8      3.397      8.078
REMARK  7 active torsions:
REMARK  status: ('A' for Active; 'I' for Inactive)
REMARK    1  A    between atoms: N1_1  and  C1_2 
REMARK    2  A    between atoms: C4_5  and  N2_6 
REMARK    3  A    between atoms: N2_6  and  C5_7 
REMARK    4  A    between atoms: C8_10  and  N3_11 
REMARK       I    between atoms: N3_11  and  C9_12 
REMARK    5  A    between atoms: C9_12  and  C10_14 
REMARK    6  A    between atoms: C10_14  and  C11_15 
REMARK    7  A    between atoms: C11_15  and  N4_16 
ROOT
HETATM    1  C5  UNL     1      27.007   6.266  48.336  1.00  0.00     0.034 C 
HETATM    2  C6  UNL     1      26.395   5.555  49.274  1.00  0.00    -0.023 C 
HETATM    3  C7  UNL     1      26.164   4.127  49.681  1.00  0.00     0.060 C 
HETATM    4  C8  UNL     1      24.797   3.944  49.958  1.00  0.00     0.132 C 
HETATM    5  N5  UNL     1      23.820   5.058  49.569  1.00  0.00    -0.218 NA
HETATM    6  C16 UNL     1      24.446   6.081  48.995  1.00  0.00     0.106 C 
HETATM    7  C17 UNL     1      25.458   6.490  50.121  1.00  0.00     0.118 C 
HETATM    8  N6  UNL     1      24.783   6.940  47.866  1.00  0.00    -0.372 N 
HETATM    9  C18 UNL     1      26.199   7.459  47.779  1.00  0.00     0.178 C 
HETATM   10  H22 UNL     1      23.780   6.861  47.456  1.00  0.00     0.161 HD
ENDROOT
BRANCH   1  11
HETATM   11  N2  UNL     1      28.260   5.516  48.223  1.00  0.00    -0.358 N 
HETATM   12  H5  UNL     1      28.191   4.493  48.080  1.00  0.00     0.166 HD
BRANCH  11  13
HETATM   13  C4  UNL     1      29.490   6.258  48.315  1.00  0.00     0.034 A 
HETATM   14  C3  UNL     1      30.618   5.523  48.010  1.00  0.00     0.032 A 
HETATM   15  C2  UNL     1      31.896   6.086  48.047  1.00  0.00     0.033 A 
HETATM   16  C1  UNL     1      31.932   7.402  48.403  1.00  0.00     0.047 A 
HETATM   17  C20 UNL     1      30.848   8.194  48.719  1.00  0.00     0.062 A 
HETATM   18  C19 UNL     1      29.592   7.597  48.671  1.00  0.00     0.055 A 
HETATM   19 CL1  UNL     1      30.935   9.880  49.171  1.00  0.00    -0.082 Cl
BRANCH  16  20
HETATM   20  N1  UNL     1      33.221   8.020  48.453  1.00  0.00    -0.398 N 
HETATM   21  H1  UNL     1      34.114   7.493  48.566  1.00  0.00     0.156 HD
HETATM   22  H2  UNL     1      33.454   9.029  48.390  1.00  0.00     0.156 HD
ENDBRANCH  16  20
ENDBRANCH  11  13
ENDBRANCH   1  11
BRANCH   4  23
HETATM   23  N3  UNL     1      24.675   2.690  50.532  1.00  0.00    -0.312 N 
HETATM   24  C9  UNL     1      24.318   2.695  51.910  1.00  0.00     0.224 C 
HETATM   25  O1  UNL     1      24.119   3.742  52.578  1.00  0.00    -0.273 OA
HETATM   26  H7  UNL     1      24.843   1.831  49.968  1.00  0.00     0.170 HD
BRANCH  24  27
HETATM   27  C10 UNL     1      24.165   1.370  52.619  1.00  0.00     0.133 C 
BRANCH  27  28
HETATM   28  C11 UNL     1      25.374   0.572  52.215  1.00  0.00     0.282 C 
BRANCH  28  29
HETATM   29  N4  UNL     1      25.641  -0.577  53.043  1.00  0.00     0.093 N 
HETATM   30  C12 UNL     1      26.852  -1.232  52.626  1.00  0.00     0.298 C 
HETATM   31  C13 UNL     1      28.090  -0.549  53.160  1.00  0.00     0.198 C 
HETATM   32  O2  UNL     1      28.011  -0.642  54.550  1.00  0.00    -0.388 OA
HETATM   33  C14 UNL     1      26.989   0.197  54.958  1.00  0.00     0.198 C 
HETATM   34  C15 UNL     1      25.647  -0.180  54.423  1.00  0.00     0.298 C 
ENDBRANCH  28  29
ENDBRANCH  27  28
ENDBRANCH  24  27
ENDBRANCH   4  23
TORSDOF 7
ENDMDL
