MODEL 1
REMARK VINA RESULT:      -6.9      0.000      0.000
REMARK  9 active torsions:
REMARK  status: ('A' for Active; 'I' for Inactive)
REMARK    1  A    between atoms: C5_5  and  S1_6 
REMARK    2  A    between atoms: S1_6  and  N1_9 
REMARK    3  A    between atoms: N1_9  and  C6_10 
REMARK    4  A    between atoms: C6_10  and  C7_11 
REMARK    5  A    between atoms: C7_11  and  C8_12 
REMARK    6  A    between atoms: C8_12  and  C9_13 
REMARK    7  A    between atoms: C9_13  and  O3_14 
REMARK    8  A    between atoms: C9_13  and  C10_15 
REMARK    9  A    between atoms: C11_16  and  C12_17 
ROOT
HETATM    1  N1  UNL     1      25.550   1.216  53.755  1.00  0.00    -0.216 NA
HETATM    2  H6  UNL     1      24.745   1.860  53.988  1.00  0.00     0.139 HD
ENDROOT
BRANCH   1   3
HETATM    3  S1  UNL     1      25.040  -0.429  53.951  1.00  0.00     0.241 S 
HETATM    4  O1  UNL     1      25.451  -0.874  55.309  1.00  0.00    -0.206 OA
HETATM    5  O2  UNL     1      25.748  -1.234  52.917  1.00  0.00    -0.206 OA
BRANCH   3   6
HETATM    6  C5  UNL     1      23.286  -0.512  53.725  1.00  0.00     0.074 A 
HETATM    7  C4  UNL     1      22.690   0.109  52.632  1.00  0.00     0.025 A 
HETATM    8  C3  UNL     1      21.317   0.025  52.486  1.00  0.00     0.008 A 
HETATM    9  C2  UNL     1      20.535  -0.657  53.393  1.00  0.00    -0.062 A 
HETATM   10  C1  UNL     1      19.057  -0.802  53.321  1.00  0.00     0.048 C 
HETATM   11  C14 UNL     1      21.168  -1.264  54.471  1.00  0.00     0.008 A 
HETATM   12  C13 UNL     1      22.538  -1.207  54.660  1.00  0.00     0.025 A 
ENDBRANCH   3   6
ENDBRANCH   1   3
BRANCH   1  13
HETATM   13  C6  UNL     1      25.915   1.471  52.354  1.00  0.00     0.104 C 
BRANCH  13  14
HETATM   14  C7  UNL     1      27.354   1.879  52.347  1.00  0.00     0.018 C 
BRANCH  14  15
HETATM   15  C8  UNL     1      27.839   2.440  53.665  1.00  0.00     0.037 C 
BRANCH  15  16
HETATM   16  C9  UNL     1      29.102   1.641  54.003  1.00  0.00     0.140 C 
BRANCH  16  17
HETATM   17  O3  UNL     1      29.902   2.532  54.730  1.00  0.00    -0.392 OA
HETATM   18  H14 UNL     1      29.810   2.282  55.690  1.00  0.00     0.210 HD
ENDBRANCH  16  17
BRANCH  16  19
HETATM   19  C10 UNL     1      28.685   0.509  54.839  1.00  0.00     0.003 C 
HETATM   20  C11 UNL     1      28.939  -0.738  54.472  1.00  0.00     0.002 C 
BRANCH  20  21
HETATM   21  C12 UNL     1      29.644  -1.139  53.226  1.00  0.00     0.249 C 
HETATM   22  F1  UNL     1      29.422  -2.490  53.002  1.00  0.00    -0.251 F 
ENDBRANCH  20  21
ENDBRANCH  16  19
ENDBRANCH  15  16
ENDBRANCH  14  15
ENDBRANCH  13  14
ENDBRANCH   1  13
TORSDOF 9
ENDMDL
MODEL 2
REMARK VINA RESULT:      -6.8      4.258      6.758
REMARK  9 active torsions:
REMARK  status: ('A' for Active; 'I' for Inactive)
REMARK    1  A    between atoms: C5_5  and  S1_6 
REMARK    2  A    between atoms: S1_6  and  N1_9 
REMARK    3  A    between atoms: N1_9  and  C6_10 
REMARK    4  A    between atoms: C6_10  and  C7_11 
REMARK    5  A    between atoms: C7_11  and  C8_12 
REMARK    6  A    between atoms: C8_12  and  C9_13 
REMARK    7  A    between atoms: C9_13  and  O3_14 
REMARK    8  A    between atoms: C9_13  and  C10_15 
REMARK    9  A    between atoms: C11_16  and  C12_17 
ROOT
HETATM    1  N1  UNL     1      25.210   3.246  52.097  1.00  0.00    -0.216 NA
HETATM    2  H6  UNL     1      26.241   3.476  52.124  1.00  0.00     0.139 HD
ENDROOT
BRANCH   1   3
HETATM    3  S1  UNL     1      24.482   4.046  50.743  1.00  0.00     0.241 S 
HETATM    4  O1  UNL     1      23.477   5.007  51.270  1.00  0.00    -0.206 OA
HETATM    5  O2  UNL     1      23.804   3.000  49.928  1.00  0.00    -0.206 OA
BRANCH   3   6
HETATM    6  C5  UNL     1      25.750   4.853  49.808  1.00  0.00     0.074 A 
HETATM    7  C4  UNL     1      26.828   4.125  49.316  1.00  0.00     0.025 A 
HETATM    8  C3  UNL     1      27.802   4.786  48.589  1.00  0.00     0.008 A 
HETATM    9  C2  UNL     1      27.725   6.141  48.345  1.00  0.00    -0.062 A 
HETATM   10  C1  UNL     1      28.718   6.937  47.578  1.00  0.00     0.048 C 
HETATM   11  C14 UNL     1      26.632   6.833  48.854  1.00  0.00     0.008 A 
HETATM   12  C13 UNL     1      25.633   6.214  49.586  1.00  0.00     0.025 A 
ENDBRANCH   3   6
ENDBRANCH   1   3
BRANCH   1  13
HETATM   13  C6  UNL     1      25.097   1.788  51.946  1.00  0.00     0.104 C 
BRANCH  13  14
HETATM   14  C7  UNL     1      26.475   1.271  51.679  1.00  0.00     0.018 C 
BRANCH  14  15
HETATM   15  C8  UNL     1      26.656  -0.194  52.012  1.00  0.00     0.037 C 
BRANCH  15  16
HETATM   16  C9  UNL     1      27.186  -0.218  53.449  1.00  0.00     0.140 C 
BRANCH  16  17
HETATM   17  O3  UNL     1      26.503  -1.277  54.062  1.00  0.00    -0.392 OA
HETATM   18  H14 UNL     1      26.505  -2.033  53.413  1.00  0.00     0.210 HD
ENDBRANCH  16  17
BRANCH  16  19
HETATM   19  C10 UNL     1      28.625  -0.497  53.373  1.00  0.00     0.003 C 
HETATM   20  C11 UNL     1      29.513   0.386  53.804  1.00  0.00     0.002 C 
BRANCH  20  21
HETATM   21  C12 UNL     1      29.189   1.711  54.393  1.00  0.00     0.249 C 
HETATM   22  F1  UNL     1      28.998   2.624  53.366  1.00  0.00    -0.251 F 
ENDBRANCH  20  21
ENDBRANCH  16  19
ENDBRANCH  15  16
ENDBRANCH  14  15
ENDBRANCH  13  14
ENDBRANCH   1  13
TORSDOF 9
ENDMDL
MODEL 3
REMARK VINA RESULT:      -6.7      2.576      2.984
REMARK  9 active torsions:
REMARK  status: ('A' for Active; 'I' for Inactive)
REMARK    1  A    between atoms: C5_5  and  S1_6 
REMARK    2  A    between atoms: S1_6  and  N1_9 
REMARK    3  A    between atoms: N1_9  and  C6_10 
REMARK    4  A    between atoms: C6_10  and  C7_11 
REMARK    5  A    between atoms: C7_11  and  C8_12 
REMARK    6  A    between atoms: C8_12  and  C9_13 
REMARK    7  A    between atoms: C9_13  and  O3_14 
REMARK    8  A    between atoms: C9_13  and  C10_15 
REMARK    9  A    between atoms: C11_16  and  C12_17 
ROOT
HETATM    1  N1  UNL     1      25.045   3.288  52.271  1.00  0.00    -0.216 NA
HETATM    2  H6  UNL     1      25.195   4.307  52.507  1.00  0.00     0.139 HD
ENDROOT
BRANCH   1   3
HETATM    3  S1  UNL     1      23.411   3.060  51.740  1.00  0.00     0.241 S 
HETATM    4  O1  UNL     1      23.431   2.917  50.259  1.00  0.00    -0.206 OA
HETATM    5  O2  UNL     1      22.650   4.282  52.121  1.00  0.00    -0.206 OA
BRANCH   3   6
HETATM    6  C5  UNL     1      22.746   1.627  52.538  1.00  0.00     0.074 A 
HETATM    7  C4  UNL     1      21.386   1.548  52.818  1.00  0.00     0.025 A 
HETATM    8  C3  UNL     1      20.899   0.414  53.443  1.00  0.00     0.008 A 
HETATM    9  C2  UNL     1      21.729  -0.630  53.792  1.00  0.00    -0.062 A 
HETATM   10  C1  UNL     1      21.301  -1.885  54.464  1.00  0.00     0.048 C 
HETATM   11  C14 UNL     1      23.082  -0.514  53.495  1.00  0.00     0.008 A 
HETATM   12  C13 UNL     1      23.615   0.601  52.870  1.00  0.00     0.025 A 
ENDBRANCH   3   6
ENDBRANCH   1   3
BRANCH   1  13
HETATM   13  C6  UNL     1      25.982   2.953  51.189  1.00  0.00     0.104 C 
BRANCH  13  14
HETATM   14  C7  UNL     1      26.842   1.836  51.690  1.00  0.00     0.018 C 
BRANCH  14  15
HETATM   15  C8  UNL     1      27.786   2.239  52.801  1.00  0.00     0.037 C 
BRANCH  15  16
HETATM   16  C9  UNL     1      27.595   1.182  53.894  1.00  0.00     0.140 C 
BRANCH  16  17
HETATM   17  O3  UNL     1      26.457   1.600  54.597  1.00  0.00    -0.392 OA
HETATM   18  H14 UNL     1      26.581   1.309  55.542  1.00  0.00     0.210 HD
ENDBRANCH  16  17
BRANCH  16  19
HETATM   19  C10 UNL     1      27.353  -0.098  53.219  1.00  0.00     0.003 C 
HETATM   20  C11 UNL     1      28.273  -1.050  53.217  1.00  0.00     0.002 C 
BRANCH  20  21
HETATM   21  C12 UNL     1      29.608  -0.956  53.864  1.00  0.00     0.249 C 
HETATM   22  F1  UNL     1      30.457  -0.235  53.038  1.00  0.00    -0.251 F 
ENDBRANCH  20  21
ENDBRANCH  16  19
ENDBRANCH  15  16
ENDBRANCH  14  15
ENDBRANCH  13  14
ENDBRANCH   1  13
TORSDOF 9
ENDMDL
MODEL 4
REMARK VINA RESULT:      -6.7      3.957      6.295
REMARK  9 active torsions:
REMARK  status: ('A' for Active; 'I' for Inactive)
REMARK    1  A    between atoms: C5_5  and  S1_6 
REMARK    2  A    between atoms: S1_6  and  N1_9 
REMARK    3  A    between atoms: N1_9  and  C6_10 
REMARK    4  A    between atoms: C6_10  and  C7_11 
REMARK    5  A    between atoms: C7_11  and  C8_12 
REMARK    6  A    between atoms: C8_12  and  C9_13 
REMARK    7  A    between atoms: C9_13  and  O3_14 
REMARK    8  A    between atoms: C9_13  and  C10_15 
REMARK    9  A    between atoms: C11_16  and  C12_17 
ROOT
HETATM    1  N1  UNL     1      24.364   3.899  52.498  1.00  0.00    -0.216 NA
HETATM    2  H6  UNL     1      25.341   4.273  52.645  1.00  0.00     0.139 HD
ENDROOT
BRANCH   1   3
HETATM    3  S1  UNL     1      23.995   3.919  50.805  1.00  0.00     0.241 S 
HETATM    4  O1  UNL     1      22.732   4.684  50.624  1.00  0.00    -0.206 OA
HETATM    5  O2  UNL     1      23.796   2.505  50.382  1.00  0.00    -0.206 OA
BRANCH   3   6
HETATM    6  C5  UNL     1      25.350   4.654  49.934  1.00  0.00     0.074 A 
HETATM    7  C4  UNL     1      26.434   3.878  49.541  1.00  0.00     0.025 A 
HETATM    8  C3  UNL     1      27.476   4.483  48.863  1.00  0.00     0.008 A 
HETATM    9  C2  UNL     1      27.461   5.830  48.572  1.00  0.00    -0.062 A 
HETATM   10  C1  UNL     1      28.530   6.570  47.850  1.00  0.00     0.048 C 
HETATM   11  C14 UNL     1      26.360   6.573  48.981  1.00  0.00     0.008 A 
HETATM   12  C13 UNL     1      25.294   6.011  49.662  1.00  0.00     0.025 A 
ENDBRANCH   3   6
ENDBRANCH   1   3
BRANCH   1  13
HETATM   13  C6  UNL     1      24.350   2.518  53.004  1.00  0.00     0.104 C 
BRANCH  13  14
HETATM   14  C7  UNL     1      25.751   2.193  53.417  1.00  0.00     0.018 C 
BRANCH  14  15
HETATM   15  C8  UNL     1      26.513   1.369  52.403  1.00  0.00     0.037 C 
BRANCH  15  16
HETATM   16  C9  UNL     1      27.980   1.450  52.840  1.00  0.00     0.140 C 
BRANCH  16  17
HETATM   17  O3  UNL     1      28.281   2.818  52.822  1.00  0.00    -0.392 OA
HETATM   18  H14 UNL     1      27.550   3.279  53.319  1.00  0.00     0.210 HD
ENDBRANCH  16  17
BRANCH  16  19
HETATM   19  C10 UNL     1      28.053   0.915  54.204  1.00  0.00     0.003 C 
HETATM   20  C11 UNL     1      28.910  -0.046  54.513  1.00  0.00     0.002 C 
BRANCH  20  21
HETATM   21  C12 UNL     1      29.865  -0.681  53.568  1.00  0.00     0.249 C 
HETATM   22  F1  UNL     1      29.576  -2.036  53.483  1.00  0.00    -0.251 F 
ENDBRANCH  20  21
ENDBRANCH  16  19
ENDBRANCH  15  16
ENDBRANCH  14  15
ENDBRANCH  13  14
ENDBRANCH   1  13
TORSDOF 9
ENDMDL
MODEL 5
REMARK VINA RESULT:      -6.5      3.257      6.136
REMARK  9 active torsions:
REMARK  status: ('A' for Active; 'I' for Inactive)
REMARK    1  A    between atoms: C5_5  and  S1_6 
REMARK    2  A    between atoms: S1_6  and  N1_9 
REMARK    3  A    between atoms: N1_9  and  C6_10 
REMARK    4  A    between atoms: C6_10  and  C7_11 
REMARK    5  A    between atoms: C7_11  and  C8_12 
REMARK    6  A    between atoms: C8_12  and  C9_13 
REMARK    7  A    between atoms: C9_13  and  O3_14 
REMARK    8  A    between atoms: C9_13  and  C10_15 
REMARK    9  A    between atoms: C11_16  and  C12_17 
ROOT
HETATM    1  N1  UNL     1      26.190   0.028  52.812  1.00  0.00    -0.216 NA
HETATM    2  H6  UNL     1      25.610  -0.166  51.950  1.00  0.00     0.139 HD
ENDROOT
BRANCH   1   3
HETATM    3  S1  UNL     1      26.437   1.737  52.960  1.00  0.00     0.241 S 
HETATM    4  O1  UNL     1      27.733   2.067  52.308  1.00  0.00    -0.206 OA
HETATM    5  O2  UNL     1      26.509   2.046  54.415  1.00  0.00    -0.206 OA
BRANCH   3   6
HETATM    6  C5  UNL     1      25.077   2.578  52.201  1.00  0.00     0.074 A 
HETATM    7  C4  UNL     1      24.121   3.214  52.986  1.00  0.00     0.025 A 
HETATM    8  C3  UNL     1      23.070   3.862  52.362  1.00  0.00     0.008 A 
HETATM    9  C2  UNL     1      22.953   3.889  50.989  1.00  0.00    -0.062 A 
HETATM   10  C1  UNL     1      21.864   4.556  50.228  1.00  0.00     0.048 C 
HETATM   11  C14 UNL     1      23.928   3.242  50.239  1.00  0.00     0.008 A 
HETATM   12  C13 UNL     1      24.998   2.581  50.819  1.00  0.00     0.025 A 
ENDBRANCH   3   6
ENDBRANCH   1   3
BRANCH   1  13
HETATM   13  C6  UNL     1      25.431  -0.477  53.966  1.00  0.00     0.104 C 
BRANCH  13  14
HETATM   14  C7  UNL     1      24.006  -0.597  53.530  1.00  0.00     0.018 C 
BRANCH  14  15
HETATM   15  C8  UNL     1      23.044  -0.905  54.656  1.00  0.00     0.037 C 
BRANCH  15  16
HETATM   16  C9  UNL     1      21.657  -0.933  54.004  1.00  0.00     0.140 C 
BRANCH  16  17
HETATM   17  O3  UNL     1      20.890  -1.759  54.837  1.00  0.00    -0.392 OA
HETATM   18  H14 UNL     1      20.981  -1.397  55.761  1.00  0.00     0.210 HD
ENDBRANCH  16  17
BRANCH  16  19
HETATM   19  C10 UNL     1      21.147   0.443  54.017  1.00  0.00     0.003 C 
HETATM   20  C11 UNL     1      20.777   1.042  52.895  1.00  0.00     0.002 C 
BRANCH  20  21
HETATM   21  C12 UNL     1      20.825   0.432  51.540  1.00  0.00     0.249 C 
HETATM   22  F1  UNL     1      22.100   0.601  51.019  1.00  0.00    -0.251 F 
ENDBRANCH  20  21
ENDBRANCH  16  19
ENDBRANCH  15  16
ENDBRANCH  14  15
ENDBRANCH  13  14
ENDBRANCH   1  13
TORSDOF 9
ENDMDL
MODEL 6
REMARK VINA RESULT:      -6.5      5.076      7.248
REMARK  9 active torsions:
REMARK  status: ('A' for Active; 'I' for Inactive)
REMARK    1  A    between atoms: C5_5  and  S1_6 
REMARK    2  A    between atoms: S1_6  and  N1_9 
REMARK    3  A    between atoms: N1_9  and  C6_10 
REMARK    4  A    between atoms: C6_10  and  C7_11 
REMARK    5  A    between atoms: C7_11  and  C8_12 
REMARK    6  A    between atoms: C8_12  and  C9_13 
REMARK    7  A    between atoms: C9_13  and  O3_14 
REMARK    8  A    between atoms: C9_13  and  C10_15 
REMARK    9  A    between atoms: C11_16  and  C12_17 
ROOT
HETATM    1  N1  UNL     1      25.625   3.631  51.079  1.00  0.00    -0.216 NA
HETATM    2  H6  UNL     1      24.768   4.015  50.594  1.00  0.00     0.139 HD
ENDROOT
BRANCH   1   3
HETATM    3  S1  UNL     1      25.139   2.434  52.234  1.00  0.00     0.241 S 
HETATM    4  O1  UNL     1      24.081   1.599  51.606  1.00  0.00    -0.206 OA
HETATM    5  O2  UNL     1      24.582   3.158  53.409  1.00  0.00    -0.206 OA
BRANCH   3   6
HETATM    6  C5  UNL     1      26.557   1.478  52.695  1.00  0.00     0.074 A 
HETATM    7  C4  UNL     1      27.667   2.098  53.259  1.00  0.00     0.025 A 
HETATM    8  C3  UNL     1      28.757   1.322  53.608  1.00  0.00     0.008 A 
HETATM    9  C2  UNL     1      28.766  -0.042  53.408  1.00  0.00    -0.062 A 
HETATM   10  C1  UNL     1      29.887  -0.956  53.749  1.00  0.00     0.048 C 
HETATM   11  C14 UNL     1      27.638  -0.624  52.842  1.00  0.00     0.008 A 
HETATM   12  C13 UNL     1      26.523   0.111  52.478  1.00  0.00     0.025 A 
ENDBRANCH   3   6
ENDBRANCH   1   3
BRANCH   1  13
HETATM   13  C6  UNL     1      26.471   3.021  50.041  1.00  0.00     0.104 C 
BRANCH  13  14
HETATM   14  C7  UNL     1      26.988   4.138  49.192  1.00  0.00     0.018 C 
BRANCH  14  15
HETATM   15  C8  UNL     1      26.014   5.284  49.024  1.00  0.00     0.037 C 
BRANCH  15  16
HETATM   16  C9  UNL     1      26.880   6.503  48.691  1.00  0.00     0.140 C 
BRANCH  16  17
HETATM   17  O3  UNL     1      26.924   7.243  49.880  1.00  0.00    -0.392 OA
HETATM   18  H14 UNL     1      26.957   8.204  49.619  1.00  0.00     0.210 HD
ENDBRANCH  16  17
BRANCH  16  19
HETATM   19  C10 UNL     1      28.212   6.001  48.336  1.00  0.00     0.003 C 
HETATM   20  C11 UNL     1      29.012   6.697  47.542  1.00  0.00     0.002 C 
BRANCH  20  21
HETATM   21  C12 UNL     1      28.685   8.014  46.935  1.00  0.00     0.249 C 
HETATM   22  F1  UNL     1      29.157   9.020  47.767  1.00  0.00    -0.251 F 
ENDBRANCH  20  21
ENDBRANCH  16  19
ENDBRANCH  15  16
ENDBRANCH  14  15
ENDBRANCH  13  14
ENDBRANCH   1  13
TORSDOF 9
ENDMDL
MODEL 7
REMARK VINA RESULT:      -6.5      3.665      5.807
REMARK  9 active torsions:
REMARK  status: ('A' for Active; 'I' for Inactive)
REMARK    1  A    between atoms: C5_5  and  S1_6 
REMARK    2  A    between atoms: S1_6  and  N1_9 
REMARK    3  A    between atoms: N1_9  and  C6_10 
REMARK    4  A    between atoms: C6_10  and  C7_11 
REMARK    5  A    between atoms: C7_11  and  C8_12 
REMARK    6  A    between atoms: C8_12  and  C9_13 
REMARK    7  A    between atoms: C9_13  and  O3_14 
REMARK    8  A    between atoms: C9_13  and  C10_15 
REMARK    9  A    between atoms: C11_16  and  C12_17 
ROOT
HETATM    1  N1  UNL     1      23.822   2.665  52.611  1.00  0.00    -0.216 NA
HETATM    2  H6  UNL     1      24.835   2.915  52.783  1.00  0.00     0.139 HD
ENDROOT
BRANCH   1   3
HETATM    3  S1  UNL     1      23.290   3.419  51.144  1.00  0.00     0.241 S 
HETATM    4  O1  UNL     1      22.291   4.459  51.504  1.00  0.00    -0.206 OA
HETATM    5  O2  UNL     1      22.646   2.362  50.316  1.00  0.00    -0.206 OA
BRANCH   3   6
HETATM    6  C5  UNL     1      24.695   4.104  50.312  1.00  0.00     0.074 A 
HETATM    7  C4  UNL     1      24.724   5.454  49.981  1.00  0.00     0.025 A 
HETATM    8  C3  UNL     1      25.837   5.957  49.332  1.00  0.00     0.008 A 
HETATM    9  C2  UNL     1      26.908   5.153  49.008  1.00  0.00    -0.062 A 
HETATM   10  C1  UNL     1      28.144   5.600  48.313  1.00  0.00     0.048 C 
HETATM   11  C14 UNL     1      26.842   3.809  49.356  1.00  0.00     0.008 A 
HETATM   12  C13 UNL     1      25.750   3.261  50.007  1.00  0.00     0.025 A 
ENDBRANCH   3   6
ENDBRANCH   1   3
BRANCH   1  13
HETATM   13  C6  UNL     1      23.754   1.202  52.484  1.00  0.00     0.104 C 
BRANCH  13  14
HETATM   14  C7  UNL     1      24.957   0.649  53.180  1.00  0.00     0.018 C 
BRANCH  14  15
HETATM   15  C8  UNL     1      26.187   0.563  52.304  1.00  0.00     0.037 C 
BRANCH  15  16
HETATM   16  C9  UNL     1      27.282   1.310  53.072  1.00  0.00     0.140 C 
BRANCH  16  17
HETATM   17  O3  UNL     1      26.747   2.584  53.304  1.00  0.00    -0.392 OA
HETATM   18  H14 UNL     1      27.487   3.236  53.160  1.00  0.00     0.210 HD
ENDBRANCH  16  17
BRANCH  16  19
HETATM   19  C10 UNL     1      27.490   0.591  54.335  1.00  0.00     0.003 C 
HETATM   20  C11 UNL     1      28.611  -0.075  54.562  1.00  0.00     0.002 C 
BRANCH  20  21
HETATM   21  C12 UNL     1      29.754  -0.180  53.617  1.00  0.00     0.249 C 
HETATM   22  F1  UNL     1      29.727  -1.432  53.019  1.00  0.00    -0.251 F 
ENDBRANCH  20  21
ENDBRANCH  16  19
ENDBRANCH  15  16
ENDBRANCH  14  15
ENDBRANCH  13  14
ENDBRANCH   1  13
TORSDOF 9
ENDMDL
MODEL 8
REMARK VINA RESULT:      -6.5      3.251      4.597
REMARK  9 active torsions:
REMARK  status: ('A' for Active; 'I' for Inactive)
REMARK    1  A    between atoms: C5_5  and  S1_6 
REMARK    2  A    between atoms: S1_6  and  N1_9 
REMARK    3  A    between atoms: N1_9  and  C6_10 
REMARK    4  A    between atoms: C6_10  and  C7_11 
REMARK    5  A    between atoms: C7_11  and  C8_12 
REMARK    6  A    between atoms: C8_12  and  C9_13 
REMARK    7  A    between atoms: C9_13  and  O3_14 
REMARK    8  A    between atoms: C9_13  and  C10_15 
REMARK    9  A    between atoms: C11_16  and  C12_17 
ROOT
HETATM    1  N1  UNL     1      27.020   0.583  52.339  1.00  0.00    -0.216 NA
HETATM    2  H6  UNL     1      27.994   0.203  52.190  1.00  0.00     0.139 HD
ENDROOT
BRANCH   1   3
HETATM    3  S1  UNL     1      26.600   0.433  54.014  1.00  0.00     0.241 S 
HETATM    4  O1  UNL     1      26.749   1.773  54.641  1.00  0.00    -0.206 OA
HETATM    5  O2  UNL     1      27.564  -0.523  54.625  1.00  0.00    -0.206 OA
BRANCH   3   6
HETATM    6  C5  UNL     1      24.942  -0.177  54.134  1.00  0.00     0.074 A 
HETATM    7  C4  UNL     1      24.560  -0.957  55.221  1.00  0.00     0.025 A 
HETATM    8  C3  UNL     1      23.257  -1.418  55.284  1.00  0.00     0.008 A 
HETATM    9  C2  UNL     1      22.339  -1.123  54.299  1.00  0.00    -0.062 A 
HETATM   10  C1  UNL     1      20.922  -1.572  54.278  1.00  0.00     0.048 C 
HETATM   11  C14 UNL     1      22.760  -0.342  53.229  1.00  0.00     0.008 A 
HETATM   12  C13 UNL     1      24.052   0.143  53.123  1.00  0.00     0.025 A 
ENDBRANCH   3   6
ENDBRANCH   1   3
BRANCH   1  13
HETATM   13  C6  UNL     1      27.044   2.000  51.947  1.00  0.00     0.104 C 
BRANCH  13  14
HETATM   14  C7  UNL     1      26.342   2.097  50.630  1.00  0.00     0.018 C 
BRANCH  14  15
HETATM   15  C8  UNL     1      26.569   3.408  49.909  1.00  0.00     0.037 C 
BRANCH  15  16
HETATM   16  C9  UNL     1      25.440   4.329  50.384  1.00  0.00     0.140 C 
BRANCH  16  17
HETATM   17  O3  UNL     1      25.465   5.410  49.492  1.00  0.00    -0.392 OA
HETATM   18  H14 UNL     1      24.667   5.311  48.902  1.00  0.00     0.210 HD
ENDBRANCH  16  17
BRANCH  16  19
HETATM   19  C10 UNL     1      24.188   3.576  50.261  1.00  0.00     0.003 C 
HETATM   20  C11 UNL     1      23.321   3.528  51.262  1.00  0.00     0.002 C 
BRANCH  20  21
HETATM   21  C12 UNL     1      23.492   4.197  52.578  1.00  0.00     0.249 C 
HETATM   22  F1  UNL     1      24.248   3.377  53.402  1.00  0.00    -0.251 F 
ENDBRANCH  20  21
ENDBRANCH  16  19
ENDBRANCH  15  16
ENDBRANCH  14  15
ENDBRANCH  13  14
ENDBRANCH   1  13
TORSDOF 9
ENDMDL
MODEL 9
REMARK VINA RESULT:      -6.3      4.144      6.364
REMARK  9 active torsions:
REMARK  status: ('A' for Active; 'I' for Inactive)
REMARK    1  A    between atoms: C5_5  and  S1_6 
REMARK    2  A    between atoms: S1_6  and  N1_9 
REMARK    3  A    between atoms: N1_9  and  C6_10 
REMARK    4  A    between atoms: C6_10  and  C7_11 
REMARK    5  A    between atoms: C7_11  and  C8_12 
REMARK    6  A    between atoms: C8_12  and  C9_13 
REMARK    7  A    between atoms: C9_13  and  O3_14 
REMARK    8  A    between atoms: C9_13  and  C10_15 
REMARK    9  A    between atoms: C11_16  and  C12_17 
ROOT
HETATM    1  N1  UNL     1      23.928   1.660  51.225  1.00  0.00    -0.216 NA
HETATM    2  H6  UNL     1      24.802   1.526  50.647  1.00  0.00     0.139 HD
ENDROOT
BRANCH   1   3
HETATM    3  S1  UNL     1      24.336   1.578  52.907  1.00  0.00     0.241 S 
HETATM    4  O1  UNL     1      23.219   0.897  53.613  1.00  0.00    -0.206 OA
HETATM    5  O2  UNL     1      24.467   2.978  53.395  1.00  0.00    -0.206 OA
BRANCH   3   6
HETATM    6  C5  UNL     1      25.866   0.703  53.080  1.00  0.00     0.074 A 
HETATM    7  C4  UNL     1      26.017  -0.561  52.520  1.00  0.00     0.025 A 
HETATM    8  C3  UNL     1      27.225  -1.218  52.674  1.00  0.00     0.008 A 
HETATM    9  C2  UNL     1      28.272  -0.649  53.367  1.00  0.00    -0.062 A 
HETATM   10  C1  UNL     1      29.603  -1.274  53.585  1.00  0.00     0.048 C 
HETATM   11  C14 UNL     1      28.082   0.616  53.912  1.00  0.00     0.008 A 
HETATM   12  C13 UNL     1      26.892   1.311  53.783  1.00  0.00     0.025 A 
ENDBRANCH   3   6
ENDBRANCH   1   3
BRANCH   1  13
HETATM   13  C6  UNL     1      23.393   2.990  50.896  1.00  0.00     0.104 C 
BRANCH  13  14
HETATM   14  C7  UNL     1      23.924   3.349  49.545  1.00  0.00     0.018 C 
BRANCH  14  15
HETATM   15  C8  UNL     1      25.374   2.974  49.336  1.00  0.00     0.037 C 
BRANCH  15  16
HETATM   16  C9  UNL     1      26.180   4.125  49.948  1.00  0.00     0.140 C 
BRANCH  16  17
HETATM   17  O3  UNL     1      26.676   3.609  51.153  1.00  0.00    -0.392 OA
HETATM   18  H14 UNL     1      27.435   3.009  50.916  1.00  0.00     0.210 HD
ENDBRANCH  16  17
BRANCH  16  19
HETATM   19  C10 UNL     1      27.274   4.428  49.018  1.00  0.00     0.003 C 
HETATM   20  C11 UNL     1      27.391   5.629  48.474  1.00  0.00     0.002 C 
BRANCH  20  21
HETATM   21  C12 UNL     1      26.478   6.776  48.720  1.00  0.00     0.249 C 
HETATM   22  F1  UNL     1      25.263   6.521  48.101  1.00  0.00    -0.251 F 
ENDBRANCH  20  21
ENDBRANCH  16  19
ENDBRANCH  15  16
ENDBRANCH  14  15
ENDBRANCH  13  14
ENDBRANCH   1  13
TORSDOF 9
ENDMDL
