MODEL 1
REMARK VINA RESULT:      -8.0      0.000      0.000
REMARK  7 active torsions:
REMARK  status: ('A' for Active; 'I' for Inactive)
REMARK    1  A    between atoms: O1_2  and  C2_3 
REMARK    2  A    between atoms: C2_3  and  C3_4 
REMARK    3  A    between atoms: C4_5  and  C5_6 
REMARK       I    between atoms: C5_6  and  N1_8 
REMARK    4  A    between atoms: N1_8  and  C6_9 
REMARK    5  A    between atoms: C7_10  and  C8_11 
REMARK    6  A    between atoms: C11_14  and  N2_15 
REMARK    7  A    between atoms: N2_15  and  C12_16 
ROOT
HETATM    1  C8  UNL     1      24.663   2.562  51.122  1.00  0.00     0.029 C 
HETATM    2  C9  UNL     1      24.183   1.680  51.969  1.00  0.00     0.040 A 
HETATM    3  C10 UNL     1      22.754   1.795  52.397  1.00  0.00     0.118 A 
HETATM    4  C11 UNL     1      22.392   0.738  53.344  1.00  0.00     0.037 A 
HETATM    5  C18 UNL     1      23.224  -0.189  53.759  1.00  0.00     0.085 A 
HETATM    6  C19 UNL     1      22.734  -1.152  54.680  1.00  0.00     0.103 C 
HETATM    7  N3  UNL     1      22.356  -1.935  55.413  1.00  0.00    -0.191 NA
HETATM    8  C20 UNL     1      24.610  -0.252  53.306  1.00  0.00     0.141 A 
HETATM    9  N4  UNL     1      25.034   0.634  52.468  1.00  0.00    -0.264 NA
ENDROOT
BRANCH   4  10
HETATM   10  N2  UNL     1      21.030   0.915  53.716  1.00  0.00    -0.358 N 
HETATM   11  H12 UNL     1      20.634   1.423  54.564  1.00  0.00     0.166 HD
BRANCH  10  12
HETATM   12  C12 UNL     1      19.912   0.434  53.004  1.00  0.00     0.033 A 
HETATM   13  C13 UNL     1      19.306   0.944  51.890  1.00  0.00     0.029 A 
HETATM   14  C14 UNL     1      18.224   0.392  51.251  1.00  0.00     0.004 A 
HETATM   15  C15 UNL     1      17.674  -0.785  51.755  1.00  0.00     0.019 A 
HETATM   16  C16 UNL     1      18.263  -1.318  52.874  1.00  0.00     0.013 A 
HETATM   17 BR1  UNL     1      17.484  -2.933  53.534  1.00  0.00    -0.051 Br
HETATM   18  C17 UNL     1      19.355  -0.750  53.508  1.00  0.00     0.048 A 
ENDBRANCH  10  12
ENDBRANCH   4  10
BRANCH   1  19
HETATM   19  C7  UNL     1      26.019   2.601  50.601  1.00  0.00     0.019 C 
HETATM   20  C6  UNL     1      26.385   3.728  50.035  1.00  0.00     0.092 C 
BRANCH  20  21
HETATM   21  N1  UNL     1      27.376   4.471  49.383  1.00  0.00    -0.326 N 
HETATM   22  C5  UNL     1      27.483   5.621  48.593  1.00  0.00     0.300 C 
HETATM   23  O2  UNL     1      26.453   6.259  48.320  1.00  0.00    -0.258 OA
HETATM   24  H6  UNL     1      28.238   3.895  49.631  1.00  0.00     0.169 HD
BRANCH  22  25
HETATM   25  C4  UNL     1      28.804   5.982  48.151  1.00  0.00    -0.003 C 
HETATM   26  C3  UNL     1      29.907   6.306  47.779  1.00  0.00    -0.070 C 
BRANCH  26  27
HETATM   27  C2  UNL     1      31.257   6.714  47.325  1.00  0.00     0.261 C 
BRANCH  27  28
HETATM   28  O1  UNL     1      32.205   6.349  48.282  1.00  0.00    -0.384 OA
HETATM   29  C1  UNL     1      32.510   4.999  48.031  1.00  0.00     0.202 C 
ENDBRANCH  27  28
ENDBRANCH  26  27
ENDBRANCH  22  25
ENDBRANCH  20  21
ENDBRANCH   1  19
TORSDOF 7
ENDMDL
MODEL 2
REMARK VINA RESULT:      -7.7      5.659     11.300
REMARK  7 active torsions:
REMARK  status: ('A' for Active; 'I' for Inactive)
REMARK    1  A    between atoms: O1_2  and  C2_3 
REMARK    2  A    between atoms: C2_3  and  C3_4 
REMARK    3  A    between atoms: C4_5  and  C5_6 
REMARK       I    between atoms: C5_6  and  N1_8 
REMARK    4  A    between atoms: N1_8  and  C6_9 
REMARK    5  A    between atoms: C7_10  and  C8_11 
REMARK    6  A    between atoms: C11_14  and  N2_15 
REMARK    7  A    between atoms: N2_15  and  C12_16 
ROOT
HETATM    1  C8  UNL     1      22.648  -0.027  54.117  1.00  0.00     0.029 C 
HETATM    2  C9  UNL     1      23.039   0.764  53.144  1.00  0.00     0.040 A 
HETATM    3  C10 UNL     1      24.503   0.882  52.854  1.00  0.00     0.118 A 
HETATM    4  C11 UNL     1      24.757   1.807  51.748  1.00  0.00     0.037 A 
HETATM    5  C18 UNL     1      23.813   2.448  51.098  1.00  0.00     0.085 A 
HETATM    6  C19 UNL     1      24.207   3.315  50.046  1.00  0.00     0.103 C 
HETATM    7  N3  UNL     1      24.505   4.009  49.195  1.00  0.00    -0.191 NA
HETATM    8  C20 UNL     1      22.398   2.294  51.425  1.00  0.00     0.141 A 
HETATM    9  N4  UNL     1      22.063   1.500  52.386  1.00  0.00    -0.264 NA
ENDROOT
BRANCH   4  10
HETATM   10  N2  UNL     1      26.162   1.879  51.536  1.00  0.00    -0.358 N 
HETATM   11  H12 UNL     1      26.687   2.273  50.698  1.00  0.00     0.166 HD
BRANCH  10  12
HETATM   12  C12 UNL     1      27.154   1.428  52.430  1.00  0.00     0.033 A 
HETATM   13  C13 UNL     1      27.881   2.131  53.349  1.00  0.00     0.029 A 
HETATM   14  C14 UNL     1      28.821   1.598  54.195  1.00  0.00     0.004 A 
HETATM   15  C15 UNL     1      29.080   0.230  54.137  1.00  0.00     0.019 A 
HETATM   16  C16 UNL     1      28.364  -0.500  53.221  1.00  0.00     0.013 A 
HETATM   17 BR1  UNL     1      28.742  -2.372  53.173  1.00  0.00    -0.051 Br
HETATM   18  C17 UNL     1      27.418   0.052  52.374  1.00  0.00     0.048 A 
ENDBRANCH  10  12
ENDBRANCH   4  10
BRANCH   1  19
HETATM   19  C7  UNL     1      21.276  -0.261  54.533  1.00  0.00     0.019 C 
HETATM   20  C6  UNL     1      20.701  -1.334  54.040  1.00  0.00     0.092 C 
BRANCH  20  21
HETATM   21  N1  UNL     1      19.568  -2.152  53.957  1.00  0.00    -0.326 N 
HETATM   22  C5  UNL     1      18.219  -2.052  53.602  1.00  0.00     0.300 C 
HETATM   23  O2  UNL     1      17.776  -0.951  53.235  1.00  0.00    -0.258 OA
HETATM   24  H6  UNL     1      19.981  -3.080  54.284  1.00  0.00     0.169 HD
BRANCH  22  25
HETATM   25  C4  UNL     1      17.434  -3.254  53.692  1.00  0.00    -0.003 C 
HETATM   26  C3  UNL     1      16.769  -4.258  53.787  1.00  0.00    -0.070 C 
BRANCH  26  27
HETATM   27  C2  UNL     1      15.948  -5.486  53.912  1.00  0.00     0.261 C 
BRANCH  27  28
HETATM   28  O1  UNL     1      14.910  -5.266  54.820  1.00  0.00    -0.384 OA
HETATM   29  C1  UNL     1      14.978  -6.319  55.749  1.00  0.00     0.202 C 
ENDBRANCH  27  28
ENDBRANCH  26  27
ENDBRANCH  22  25
ENDBRANCH  20  21
ENDBRANCH   1  19
TORSDOF 7
ENDMDL
MODEL 3
REMARK VINA RESULT:      -7.6      3.324      5.262
REMARK  7 active torsions:
REMARK  status: ('A' for Active; 'I' for Inactive)
REMARK    1  A    between atoms: O1_2  and  C2_3 
REMARK    2  A    between atoms: C2_3  and  C3_4 
REMARK    3  A    between atoms: C4_5  and  C5_6 
REMARK       I    between atoms: C5_6  and  N1_8 
REMARK    4  A    between atoms: N1_8  and  C6_9 
REMARK    5  A    between atoms: C7_10  and  C8_11 
REMARK    6  A    between atoms: C11_14  and  N2_15 
REMARK    7  A    between atoms: N2_15  and  C12_16 
ROOT
HETATM    1  C8  UNL     1      27.289   4.969  48.652  1.00  0.00     0.029 C 
HETATM    2  C9  UNL     1      26.219   4.855  49.405  1.00  0.00     0.040 A 
HETATM    3  C10 UNL     1      25.662   3.491  49.666  1.00  0.00     0.118 A 
HETATM    4  C11 UNL     1      24.470   3.552  50.515  1.00  0.00     0.037 A 
HETATM    5  C18 UNL     1      23.963   4.669  50.985  1.00  0.00     0.085 A 
HETATM    6  C19 UNL     1      22.803   4.576  51.797  1.00  0.00     0.103 C 
HETATM    7  N3  UNL     1      21.877   4.520  52.455  1.00  0.00    -0.191 NA
HETATM    8  C20 UNL     1      24.551   5.974  50.698  1.00  0.00     0.141 A 
HETATM    9  N4  UNL     1      25.606   6.033  49.957  1.00  0.00    -0.264 NA
ENDROOT
BRANCH   4  10
HETATM   10  N2  UNL     1      23.989   2.227  50.710  1.00  0.00    -0.358 N 
HETATM   11  H12 UNL     1      23.270   1.692  50.136  1.00  0.00     0.166 HD
BRANCH  10  12
HETATM   12  C12 UNL     1      24.390   1.347  51.736  1.00  0.00     0.033 A 
HETATM   13  C13 UNL     1      25.648   0.987  52.128  1.00  0.00     0.029 A 
HETATM   14  C14 UNL     1      25.943   0.129  53.159  1.00  0.00     0.004 A 
HETATM   15  C15 UNL     1      24.896  -0.438  53.883  1.00  0.00     0.019 A 
HETATM   16  C16 UNL     1      23.622  -0.094  53.508  1.00  0.00     0.013 A 
HETATM   17 BR1  UNL     1      22.213  -0.887  54.526  1.00  0.00    -0.051 Br
HETATM   18  C17 UNL     1      23.339   0.774  52.466  1.00  0.00     0.048 A 
ENDBRANCH  10  12
ENDBRANCH   4  10
BRANCH   1  19
HETATM   19  C7  UNL     1      27.962   6.207  48.299  1.00  0.00     0.019 C 
HETATM   20  C6  UNL     1      29.274   6.175  48.321  1.00  0.00     0.092 C 
BRANCH  20  21
HETATM   21  N1  UNL     1      30.489   6.845  48.137  1.00  0.00    -0.326 N 
HETATM   22  C5  UNL     1      31.028   8.122  48.323  1.00  0.00     0.300 C 
HETATM   23  O2  UNL     1      30.301   9.018  48.782  1.00  0.00    -0.258 OA
HETATM   24  H6  UNL     1      31.083   6.053  47.738  1.00  0.00     0.169 HD
BRANCH  22  25
HETATM   25  C4  UNL     1      32.409   8.302  47.960  1.00  0.00    -0.003 C 
HETATM   26  C3  UNL     1      33.563   8.449  47.636  1.00  0.00    -0.070 C 
BRANCH  26  27
HETATM   27  C2  UNL     1      34.977   8.627  47.227  1.00  0.00     0.261 C 
BRANCH  27  28
HETATM   28  O1  UNL     1      35.813   8.426  48.327  1.00  0.00    -0.384 OA
HETATM   29  C1  UNL     1      35.782   7.045  48.590  1.00  0.00     0.202 C 
ENDBRANCH  27  28
ENDBRANCH  26  27
ENDBRANCH  22  25
ENDBRANCH  20  21
ENDBRANCH   1  19
TORSDOF 7
ENDMDL
MODEL 4
REMARK VINA RESULT:      -7.4      5.173     12.543
REMARK  7 active torsions:
REMARK  status: ('A' for Active; 'I' for Inactive)
REMARK    1  A    between atoms: O1_2  and  C2_3 
REMARK    2  A    between atoms: C2_3  and  C3_4 
REMARK    3  A    between atoms: C4_5  and  C5_6 
REMARK       I    between atoms: C5_6  and  N1_8 
REMARK    4  A    between atoms: N1_8  and  C6_9 
REMARK    5  A    between atoms: C7_10  and  C8_11 
REMARK    6  A    between atoms: C11_14  and  N2_15 
REMARK    7  A    between atoms: N2_15  and  C12_16 
ROOT
HETATM    1  C8  UNL     1      27.802   4.838  48.577  1.00  0.00     0.029 C 
HETATM    2  C9  UNL     1      28.374   6.000  48.357  1.00  0.00     0.040 A 
HETATM    3  C10 UNL     1      29.708   6.031  47.680  1.00  0.00     0.118 A 
HETATM    4  C11 UNL     1      30.197   7.403  47.523  1.00  0.00     0.037 A 
HETATM    5  C18 UNL     1      29.540   8.465  47.928  1.00  0.00     0.085 A 
HETATM    6  C19 UNL     1      30.137   9.734  47.709  1.00  0.00     0.103 C 
HETATM    7  N3  UNL     1      30.598  10.759  47.536  1.00  0.00    -0.191 NA
HETATM    8  C20 UNL     1      28.239   8.374  48.584  1.00  0.00     0.141 A 
HETATM    9  N4  UNL     1      27.715   7.209  48.772  1.00  0.00    -0.264 NA
ENDROOT
BRANCH   4  10
HETATM   10  N2  UNL     1      31.469   7.356  46.887  1.00  0.00    -0.358 N 
HETATM   11  H12 UNL     1      31.779   7.834  45.987  1.00  0.00     0.166 HD
BRANCH  10  12
HETATM   12  C12 UNL     1      32.595   6.644  47.347  1.00  0.00     0.033 A 
HETATM   13  C13 UNL     1      33.214   6.690  48.564  1.00  0.00     0.029 A 
HETATM   14  C14 UNL     1      34.304   5.940  48.930  1.00  0.00     0.004 A 
HETATM   15  C15 UNL     1      34.848   5.048  48.007  1.00  0.00     0.019 A 
HETATM   16  C16 UNL     1      34.246   4.983  46.776  1.00  0.00     0.013 A 
HETATM   17 BR1  UNL     1      35.015   3.748  45.538  1.00  0.00    -0.051 Br
HETATM   18  C17 UNL     1      33.146   5.746  46.421  1.00  0.00     0.048 A 
ENDBRANCH  10  12
ENDBRANCH   4  10
BRANCH   1  19
HETATM   19  C7  UNL     1      26.515   4.623  49.216  1.00  0.00     0.019 C 
HETATM   20  C6  UNL     1      26.417   3.545  49.960  1.00  0.00     0.092 C 
BRANCH  20  21
HETATM   21  N1  UNL     1      25.636   2.735  50.793  1.00  0.00    -0.326 N 
HETATM   22  C5  UNL     1      25.804   1.686  51.704  1.00  0.00     0.300 C 
HETATM   23  O2  UNL     1      26.950   1.259  51.919  1.00  0.00    -0.258 OA
HETATM   24  H6  UNL     1      24.666   3.123  50.578  1.00  0.00     0.169 HD
BRANCH  22  25
HETATM   25  C4  UNL     1      24.615   1.177  52.332  1.00  0.00    -0.003 C 
HETATM   26  C3  UNL     1      23.604   0.757  52.844  1.00  0.00    -0.070 C 
BRANCH  26  27
HETATM   27  C2  UNL     1      22.358   0.246  53.463  1.00  0.00     0.261 C 
BRANCH  27  28
HETATM   28  O1  UNL     1      22.327  -1.147  53.375  1.00  0.00    -0.384 OA
HETATM   29  C1  UNL     1      21.474  -1.582  54.405  1.00  0.00     0.202 C 
ENDBRANCH  27  28
ENDBRANCH  26  27
ENDBRANCH  22  25
ENDBRANCH  20  21
ENDBRANCH   1  19
TORSDOF 7
ENDMDL
MODEL 5
REMARK VINA RESULT:      -7.3      2.628      3.898
REMARK  7 active torsions:
REMARK  status: ('A' for Active; 'I' for Inactive)
REMARK    1  A    between atoms: O1_2  and  C2_3 
REMARK    2  A    between atoms: C2_3  and  C3_4 
REMARK    3  A    between atoms: C4_5  and  C5_6 
REMARK       I    between atoms: C5_6  and  N1_8 
REMARK    4  A    between atoms: N1_8  and  C6_9 
REMARK    5  A    between atoms: C7_10  and  C8_11 
REMARK    6  A    between atoms: C11_14  and  N2_15 
REMARK    7  A    between atoms: N2_15  and  C12_16 
ROOT
HETATM    1  C8  UNL     1      25.237   3.727  49.460  1.00  0.00     0.029 C 
HETATM    2  C9  UNL     1      24.049   3.640  50.015  1.00  0.00     0.040 A 
HETATM    3  C10 UNL     1      23.486   2.284  50.303  1.00  0.00     0.118 A 
HETATM    4  C11 UNL     1      22.157   2.375  50.913  1.00  0.00     0.037 A 
HETATM    5  C18 UNL     1      21.546   3.508  51.170  1.00  0.00     0.085 A 
HETATM    6  C19 UNL     1      20.259   3.444  51.764  1.00  0.00     0.103 C 
HETATM    7  N3  UNL     1      19.229   3.411  52.246  1.00  0.00    -0.191 NA
HETATM    8  C20 UNL     1      22.146   4.804  50.867  1.00  0.00     0.141 A 
HETATM    9  N4  UNL     1      23.318   4.838  50.327  1.00  0.00    -0.264 NA
ENDROOT
BRANCH   4  10
HETATM   10  N2  UNL     1      21.679   1.055  51.147  1.00  0.00    -0.358 N 
HETATM   11  H12 UNL     1      21.164   0.407  50.477  1.00  0.00     0.166 HD
BRANCH  10  12
HETATM   12  C12 UNL     1      21.805   0.336  52.353  1.00  0.00     0.033 A 
HETATM   13  C13 UNL     1      20.836  -0.241  53.125  1.00  0.00     0.029 A 
HETATM   14  C14 UNL     1      21.058  -0.943  54.284  1.00  0.00     0.004 A 
HETATM   15  C15 UNL     1      22.367  -1.097  54.738  1.00  0.00     0.019 A 
HETATM   16  C16 UNL     1      23.359  -0.526  53.981  1.00  0.00     0.013 A 
HETATM   17 BR1  UNL     1      25.140  -0.761  54.631  1.00  0.00    -0.051 Br
HETATM   18  C17 UNL     1      23.120   0.179  52.813  1.00  0.00     0.048 A 
ENDBRANCH  10  12
ENDBRANCH   4  10
BRANCH   1  19
HETATM   19  C7  UNL     1      25.934   4.954  49.113  1.00  0.00     0.019 C 
HETATM   20  C6  UNL     1      27.243   4.874  49.052  1.00  0.00     0.092 C 
BRANCH  20  21
HETATM   21  N1  UNL     1      28.470   5.507  48.820  1.00  0.00    -0.326 N 
HETATM   22  C5  UNL     1      28.988   6.551  48.046  1.00  0.00     0.300 C 
HETATM   23  O2  UNL     1      28.222   7.180  47.299  1.00  0.00    -0.258 OA
HETATM   24  H6  UNL     1      29.100   4.940  49.467  1.00  0.00     0.169 HD
BRANCH  22  25
HETATM   25  C4  UNL     1      30.395   6.820  48.181  1.00  0.00    -0.003 C 
HETATM   26  C3  UNL     1      31.580   7.026  48.299  1.00  0.00    -0.070 C 
BRANCH  26  27
HETATM   27  C2  UNL     1      33.035   7.266  48.445  1.00  0.00     0.261 C 
BRANCH  27  28
HETATM   28  O1  UNL     1      33.669   6.086  48.836  1.00  0.00    -0.384 OA
HETATM   29  C1  UNL     1      34.385   5.641  47.710  1.00  0.00     0.202 C 
ENDBRANCH  27  28
ENDBRANCH  26  27
ENDBRANCH  22  25
ENDBRANCH  20  21
ENDBRANCH   1  19
TORSDOF 7
ENDMDL
MODEL 6
REMARK VINA RESULT:      -7.3      5.457     12.399
REMARK  7 active torsions:
REMARK  status: ('A' for Active; 'I' for Inactive)
REMARK    1  A    between atoms: O1_2  and  C2_3 
REMARK    2  A    between atoms: C2_3  and  C3_4 
REMARK    3  A    between atoms: C4_5  and  C5_6 
REMARK       I    between atoms: C5_6  and  N1_8 
REMARK    4  A    between atoms: N1_8  and  C6_9 
REMARK    5  A    between atoms: C7_10  and  C8_11 
REMARK    6  A    between atoms: C11_14  and  N2_15 
REMARK    7  A    between atoms: N2_15  and  C12_16 
ROOT
HETATM    1  C8  UNL     1      27.324   5.448  48.582  1.00  0.00     0.029 C 
HETATM    2  C9  UNL     1      28.454   5.971  48.162  1.00  0.00     0.040 A 
HETATM    3  C10 UNL     1      28.455   7.383  47.667  1.00  0.00     0.118 A 
HETATM    4  C11 UNL     1      29.791   7.798  47.234  1.00  0.00     0.037 A 
HETATM    5  C18 UNL     1      30.849   7.021  47.278  1.00  0.00     0.085 A 
HETATM    6  C19 UNL     1      32.082   7.558  46.825  1.00  0.00     0.103 C 
HETATM    7  N3  UNL     1      33.079   7.975  46.471  1.00  0.00    -0.191 NA
HETATM    8  C20 UNL     1      30.788   5.649  47.772  1.00  0.00     0.141 A 
HETATM    9  N4  UNL     1      29.656   5.182  48.180  1.00  0.00    -0.264 NA
ENDROOT
BRANCH   4  10
HETATM   10  N2  UNL     1      29.715   9.140  46.767  1.00  0.00    -0.358 N 
HETATM   11  H12 UNL     1      29.594   9.489  45.768  1.00  0.00     0.166 HD
BRANCH  10  12
HETATM   12  C12 UNL     1      29.788  10.297  47.569  1.00  0.00     0.033 A 
HETATM   13  C13 UNL     1      30.792  10.721  48.392  1.00  0.00     0.029 A 
HETATM   14  C14 UNL     1      30.780  11.881  49.127  1.00  0.00     0.004 A 
HETATM   15  C15 UNL     1      29.666  12.715  49.049  1.00  0.00     0.019 A 
HETATM   16  C16 UNL     1      28.643  12.312  48.230  1.00  0.00     0.013 A 
HETATM   17 BR1  UNL     1      27.135  13.482  48.144  1.00  0.00    -0.051 Br
HETATM   18  C17 UNL     1      28.669  11.139  47.494  1.00  0.00     0.048 A 
ENDBRANCH  10  12
ENDBRANCH   4  10
BRANCH   1  19
HETATM   19  C7  UNL     1      27.141   4.100  49.094  1.00  0.00     0.019 C 
HETATM   20  C6  UNL     1      26.127   3.929  49.910  1.00  0.00     0.092 C 
BRANCH  20  21
HETATM   21  N1  UNL     1      25.376   3.067  50.718  1.00  0.00    -0.326 N 
HETATM   22  C5  UNL     1      25.581   1.999  51.598  1.00  0.00     0.300 C 
HETATM   23  O2  UNL     1      26.741   1.605  51.801  1.00  0.00    -0.258 OA
HETATM   24  H6  UNL     1      24.392   3.427  50.514  1.00  0.00     0.169 HD
BRANCH  22  25
HETATM   25  C4  UNL     1      24.410   1.429  52.209  1.00  0.00    -0.003 C 
HETATM   26  C3  UNL     1      23.437   0.951  52.742  1.00  0.00    -0.070 C 
BRANCH  26  27
HETATM   27  C2  UNL     1      22.248   0.365  53.405  1.00  0.00     0.261 C 
BRANCH  27  28
HETATM   28  O1  UNL     1      22.296  -1.027  53.313  1.00  0.00    -0.384 OA
HETATM   29  C1  UNL     1      21.770  -1.514  54.523  1.00  0.00     0.202 C 
ENDBRANCH  27  28
ENDBRANCH  26  27
ENDBRANCH  22  25
ENDBRANCH  20  21
ENDBRANCH   1  19
TORSDOF 7
ENDMDL
MODEL 7
REMARK VINA RESULT:      -7.2      3.265      4.378
REMARK  7 active torsions:
REMARK  status: ('A' for Active; 'I' for Inactive)
REMARK    1  A    between atoms: O1_2  and  C2_3 
REMARK    2  A    between atoms: C2_3  and  C3_4 
REMARK    3  A    between atoms: C4_5  and  C5_6 
REMARK       I    between atoms: C5_6  and  N1_8 
REMARK    4  A    between atoms: N1_8  and  C6_9 
REMARK    5  A    between atoms: C7_10  and  C8_11 
REMARK    6  A    between atoms: C11_14  and  N2_15 
REMARK    7  A    between atoms: N2_15  and  C12_16 
ROOT
HETATM    1  C8  UNL     1      26.169   2.958  49.885  1.00  0.00     0.029 C 
HETATM    2  C9  UNL     1      26.390   2.301  51.001  1.00  0.00     0.040 A 
HETATM    3  C10 UNL     1      25.484   1.165  51.360  1.00  0.00     0.118 A 
HETATM    4  C11 UNL     1      25.871   0.553  52.633  1.00  0.00     0.037 A 
HETATM    5  C18 UNL     1      26.886   0.957  53.360  1.00  0.00     0.085 A 
HETATM    6  C19 UNL     1      27.145   0.269  54.574  1.00  0.00     0.103 C 
HETATM    7  N3  UNL     1      27.369  -0.276  55.547  1.00  0.00    -0.191 NA
HETATM    8  C20 UNL     1      27.738   2.073  52.959  1.00  0.00     0.141 A 
HETATM    9  N4  UNL     1      27.484   2.685  51.851  1.00  0.00    -0.264 NA
ENDROOT
BRANCH   4  10
HETATM   10  N2  UNL     1      24.964  -0.506  52.916  1.00  0.00    -0.358 N 
HETATM   11  H12 UNL     1      25.102  -1.552  52.777  1.00  0.00     0.166 HD
BRANCH  10  12
HETATM   12  C12 UNL     1      23.669  -0.360  53.455  1.00  0.00     0.033 A 
HETATM   13  C13 UNL     1      23.085  -1.016  54.501  1.00  0.00     0.029 A 
HETATM   14  C14 UNL     1      21.813  -0.792  54.969  1.00  0.00     0.004 A 
HETATM   15  C15 UNL     1      21.029   0.177  54.346  1.00  0.00     0.019 A 
HETATM   16  C16 UNL     1      21.592   0.850  53.291  1.00  0.00     0.013 A 
HETATM   17 BR1  UNL     1      20.488   2.174  52.465  1.00  0.00    -0.051 Br
HETATM   18  C17 UNL     1      22.876   0.613  52.831  1.00  0.00     0.048 A 
ENDBRANCH  10  12
ENDBRANCH   4  10
BRANCH   1  19
HETATM   19  C7  UNL     1      26.945   4.080  49.383  1.00  0.00     0.019 C 
HETATM   20  C6  UNL     1      26.372   5.258  49.468  1.00  0.00     0.092 C 
BRANCH  20  21
HETATM   21  N1  UNL     1      26.438   6.638  49.242  1.00  0.00    -0.326 N 
HETATM   22  C5  UNL     1      25.894   7.819  49.759  1.00  0.00     0.300 C 
HETATM   23  O2  UNL     1      25.096   7.745  50.708  1.00  0.00    -0.258 OA
HETATM   24  H6  UNL     1      27.121   6.664  48.423  1.00  0.00     0.169 HD
BRANCH  22  25
HETATM   25  C4  UNL     1      26.310   9.049  49.141  1.00  0.00    -0.003 C 
HETATM   26  C3  UNL     1      26.640  10.091  48.626  1.00  0.00    -0.070 C 
BRANCH  26  27
HETATM   27  C2  UNL     1      27.036  11.374  47.999  1.00  0.00     0.261 C 
BRANCH  27  28
HETATM   28  O1  UNL     1      28.428  11.475  47.973  1.00  0.00    -0.384 OA
HETATM   29  C1  UNL     1      28.769  12.389  48.986  1.00  0.00     0.202 C 
ENDBRANCH  27  28
ENDBRANCH  26  27
ENDBRANCH  22  25
ENDBRANCH  20  21
ENDBRANCH   1  19
TORSDOF 7
ENDMDL
MODEL 8
REMARK VINA RESULT:      -7.1      6.476     12.195
REMARK  7 active torsions:
REMARK  status: ('A' for Active; 'I' for Inactive)
REMARK    1  A    between atoms: O1_2  and  C2_3 
REMARK    2  A    between atoms: C2_3  and  C3_4 
REMARK    3  A    between atoms: C4_5  and  C5_6 
REMARK       I    between atoms: C5_6  and  N1_8 
REMARK    4  A    between atoms: N1_8  and  C6_9 
REMARK    5  A    between atoms: C7_10  and  C8_11 
REMARK    6  A    between atoms: C11_14  and  N2_15 
REMARK    7  A    between atoms: N2_15  and  C12_16 
ROOT
HETATM    1  C8  UNL     1      19.991  -0.579  53.568  1.00  0.00     0.029 C 
HETATM    2  C9  UNL     1      20.819   0.131  52.835  1.00  0.00     0.040 A 
HETATM    3  C10 UNL     1      22.132   0.543  53.422  1.00  0.00     0.118 A 
HETATM    4  C11 UNL     1      22.920   1.330  52.472  1.00  0.00     0.037 A 
HETATM    5  C18 UNL     1      22.517   1.630  51.258  1.00  0.00     0.085 A 
HETATM    6  C19 UNL     1      23.388   2.401  50.445  1.00  0.00     0.103 C 
HETATM    7  N3  UNL     1      24.077   3.013  49.778  1.00  0.00    -0.191 NA
HETATM    8  C20 UNL     1      21.223   1.200  50.738  1.00  0.00     0.141 A 
HETATM    9  N4  UNL     1      20.448   0.499  51.495  1.00  0.00    -0.264 NA
ENDROOT
BRANCH   4  10
HETATM   10  N2  UNL     1      24.144   1.696  53.098  1.00  0.00    -0.358 N 
HETATM   11  H12 UNL     1      24.368   2.577  53.652  1.00  0.00     0.166 HD
BRANCH  10  12
HETATM   12  C12 UNL     1      25.329   0.932  53.102  1.00  0.00     0.033 A 
HETATM   13  C13 UNL     1      25.535  -0.353  52.687  1.00  0.00     0.029 A 
HETATM   14  C14 UNL     1      26.738  -1.013  52.713  1.00  0.00     0.004 A 
HETATM   15  C15 UNL     1      27.862  -0.346  53.198  1.00  0.00     0.019 A 
HETATM   16  C16 UNL     1      27.682   0.947  53.623  1.00  0.00     0.013 A 
HETATM   17 BR1  UNL     1      29.244   1.832  54.276  1.00  0.00    -0.051 Br
HETATM   18  C17 UNL     1      26.461   1.600  53.589  1.00  0.00     0.048 A 
ENDBRANCH  10  12
ENDBRANCH   4  10
BRANCH   1  19
HETATM   19  C7  UNL     1      18.684  -1.063  53.161  1.00  0.00     0.019 C 
HETATM   20  C6  UNL     1      18.233  -2.112  53.808  1.00  0.00     0.092 C 
BRANCH  20  21
HETATM   21  N1  UNL     1      17.214  -3.055  53.996  1.00  0.00    -0.326 N 
HETATM   22  C5  UNL     1      16.906  -4.365  53.616  1.00  0.00     0.300 C 
HETATM   23  O2  UNL     1      17.704  -4.981  52.890  1.00  0.00    -0.258 OA
HETATM   24  H6  UNL     1      16.549  -2.493  54.613  1.00  0.00     0.169 HD
BRANCH  22  25
HETATM   25  C4  UNL     1      15.667  -4.908  54.105  1.00  0.00    -0.003 C 
HETATM   26  C3  UNL     1      14.632  -5.383  54.510  1.00  0.00    -0.070 C 
BRANCH  26  27
HETATM   27  C2  UNL     1      13.367  -5.976  55.004  1.00  0.00     0.261 C 
BRANCH  27  28
HETATM   28  O1  UNL     1      13.316  -5.881  56.396  1.00  0.00    -0.384 OA
HETATM   29  C1  UNL     1      14.168  -6.888  56.885  1.00  0.00     0.202 C 
ENDBRANCH  27  28
ENDBRANCH  26  27
ENDBRANCH  22  25
ENDBRANCH  20  21
ENDBRANCH   1  19
TORSDOF 7
ENDMDL
MODEL 9
REMARK VINA RESULT:      -6.9      5.538      8.211
REMARK  7 active torsions:
REMARK  status: ('A' for Active; 'I' for Inactive)
REMARK    1  A    between atoms: O1_2  and  C2_3 
REMARK    2  A    between atoms: C2_3  and  C3_4 
REMARK    3  A    between atoms: C4_5  and  C5_6 
REMARK       I    between atoms: C5_6  and  N1_8 
REMARK    4  A    between atoms: N1_8  and  C6_9 
REMARK    5  A    between atoms: C7_10  and  C8_11 
REMARK    6  A    between atoms: C11_14  and  N2_15 
REMARK    7  A    between atoms: N2_15  and  C12_16 
ROOT
HETATM    1  C8  UNL     1      19.070  -0.728  53.377  1.00  0.00     0.029 C 
HETATM    2  C9  UNL     1      17.920  -1.327  53.166  1.00  0.00     0.040 A 
HETATM    3  C10 UNL     1      16.748  -0.505  52.729  1.00  0.00     0.118 A 
HETATM    4  C11 UNL     1      15.552  -1.331  52.548  1.00  0.00     0.037 A 
HETATM    5  C18 UNL     1      15.522  -2.629  52.746  1.00  0.00     0.085 A 
HETATM    6  C19 UNL     1      14.291  -3.301  52.532  1.00  0.00     0.103 C 
HETATM    7  N3  UNL     1      13.314  -3.857  52.358  1.00  0.00    -0.191 NA
HETATM    8  C20 UNL     1      16.699  -3.380  53.173  1.00  0.00     0.141 A 
HETATM    9  N4  UNL     1      17.808  -2.747  53.362  1.00  0.00    -0.264 NA
ENDROOT
BRANCH   4  10
HETATM   10  N2  UNL     1      14.479  -0.487  52.146  1.00  0.00    -0.358 N 
HETATM   11  H12 UNL     1      14.138  -0.271  51.161  1.00  0.00     0.166 HD
BRANCH  10  12
HETATM   12  C12 UNL     1      13.640   0.246  53.010  1.00  0.00     0.033 A 
HETATM   13  C13 UNL     1      12.850  -0.195  54.033  1.00  0.00     0.029 A 
HETATM   14  C14 UNL     1      12.073   0.601  54.838  1.00  0.00     0.004 A 
HETATM   15  C15 UNL     1      12.067   1.978  54.617  1.00  0.00     0.019 A 
HETATM   16  C16 UNL     1      12.852   2.447  53.594  1.00  0.00     0.013 A 
HETATM   17 BR1  UNL     1      12.822   4.338  53.324  1.00  0.00    -0.051 Br
HETATM   18  C17 UNL     1      13.631   1.631  52.791  1.00  0.00     0.048 A 
ENDBRANCH  10  12
ENDBRANCH   4  10
BRANCH   1  19
HETATM   19  C7  UNL     1      20.304  -1.366  53.801  1.00  0.00     0.019 C 
HETATM   20  C6  UNL     1      21.406  -0.685  53.587  1.00  0.00     0.092 C 
BRANCH  20  21
HETATM   21  N1  UNL     1      22.800  -0.605  53.687  1.00  0.00    -0.326 N 
HETATM   22  C5  UNL     1      23.812  -0.921  54.599  1.00  0.00     0.300 C 
HETATM   23  O2  UNL     1      23.500  -1.431  55.687  1.00  0.00    -0.258 OA
HETATM   24  H6  UNL     1      23.032  -0.160  52.746  1.00  0.00     0.169 HD
BRANCH  22  25
HETATM   25  C4  UNL     1      25.162  -0.625  54.198  1.00  0.00    -0.003 C 
HETATM   26  C3  UNL     1      26.294  -0.392  53.846  1.00  0.00    -0.070 C 
BRANCH  26  27
HETATM   27  C2  UNL     1      27.681  -0.112  53.405  1.00  0.00     0.261 C 
BRANCH  27  28
HETATM   28  O1  UNL     1      28.581  -0.780  54.235  1.00  0.00    -0.384 OA
HETATM   29  C1  UNL     1      29.330  -1.625  53.396  1.00  0.00     0.202 C 
ENDBRANCH  27  28
ENDBRANCH  26  27
ENDBRANCH  22  25
ENDBRANCH  20  21
ENDBRANCH   1  19
TORSDOF 7
ENDMDL
