MODEL 1
REMARK VINA RESULT:      -6.6      0.000      0.000
REMARK  7 active torsions:
REMARK  status: ('A' for Active; 'I' for Inactive)
REMARK    1  A    between atoms: C2_3  and  C3_4 
REMARK    2  A    between atoms: C2_3  and  C10_13 
REMARK    3  A    between atoms: N2_5  and  C4_6 
REMARK    4  A    between atoms: C5_7  and  C6_8 
REMARK    5  A    between atoms: C7_9  and  C8_10 
REMARK    6  A    between atoms: C8_10  and  S1_11 
REMARK    7  A    between atoms: C13_17  and  N4_18 
ROOT
HETATM    1  C1  UNL     1      23.540   5.793  51.456  1.00  0.00     0.178 C 
HETATM    2  N1  UNL     1      24.532   4.935  50.891  1.00  0.00    -0.291 NA
HETATM    3  C2  UNL     1      24.410   3.843  50.296  1.00  0.00     0.097 C 
ENDROOT
BRANCH   3   4
HETATM    4  C3  UNL     1      25.812   3.577  50.023  1.00  0.00     0.149 C 
HETATM    5  N2  UNL     1      26.728   2.886  50.574  1.00  0.00    -0.271 NA
BRANCH   5   6
HETATM    6  C4  UNL     1      26.543   2.116  51.747  1.00  0.00     0.116 C 
HETATM    7  C5  UNL     1      26.531   0.791  51.505  1.00  0.00     0.019 C 
BRANCH   7   8
HETATM    8  C6  UNL     1      26.369  -0.332  52.416  1.00  0.00    -0.002 C 
HETATM    9  C7  UNL     1      26.665  -0.508  53.668  1.00  0.00    -0.017 C 
BRANCH   9  10
HETATM   10  C8  UNL     1      27.295   0.448  54.593  1.00  0.00     0.100 C 
BRANCH  10  11
HETATM   11  S1  UNL     1      29.067   0.612  54.308  1.00  0.00    -0.170 SA
HETATM   12  C9  UNL     1      29.823  -0.886  53.658  1.00  0.00     0.090 C 
ENDBRANCH  10  11
ENDBRANCH   9  10
ENDBRANCH   7   8
ENDBRANCH   5   6
ENDBRANCH   3   4
BRANCH   3  13
HETATM   13  C10 UNL     1      23.399   2.909  49.878  1.00  0.00     0.107 A 
HETATM   14  C11 UNL     1      23.171   2.695  48.538  1.00  0.00     0.054 A 
HETATM   15  C12 UNL     1      22.195   1.790  48.180  1.00  0.00     0.139 A 
HETATM   16  N3  UNL     1      21.521   1.165  49.136  1.00  0.00    -0.075 NA
HETATM   17  C13 UNL     1      21.723   1.356  50.459  1.00  0.00     0.729 A 
HETATM   18  N5  UNL     1      22.686   2.249  50.799  1.00  0.00    -0.060 NA
BRANCH  17  19
HETATM   19  N4  UNL     1      21.006   0.690  51.497  1.00  0.00    -0.180 N 
HETATM   20  C14 UNL     1      19.619   0.483  51.868  1.00  0.00     0.176 A 
HETATM   21  C15 UNL     1      20.265  -0.265  52.977  1.00  0.00     0.019 A 
HETATM   22  C16 UNL     1      21.515  -0.052  52.600  1.00  0.00     0.023 A 
HETATM   23  C17 UNL     1      22.837  -0.448  53.143  1.00  0.00     0.068 C 
ENDBRANCH  17  19
ENDBRANCH   3  13
TORSDOF 7
ENDMDL
MODEL 2
REMARK VINA RESULT:      -6.6      3.310      6.402
REMARK  7 active torsions:
REMARK  status: ('A' for Active; 'I' for Inactive)
REMARK    1  A    between atoms: C2_3  and  C3_4 
REMARK    2  A    between atoms: C2_3  and  C10_13 
REMARK    3  A    between atoms: N2_5  and  C4_6 
REMARK    4  A    between atoms: C5_7  and  C6_8 
REMARK    5  A    between atoms: C7_9  and  C8_10 
REMARK    6  A    between atoms: C8_10  and  S1_11 
REMARK    7  A    between atoms: C13_17  and  N4_18 
ROOT
HETATM    1  C1  UNL     1      23.546   4.721  53.024  1.00  0.00     0.178 C 
HETATM    2  N1  UNL     1      23.877   4.069  51.797  1.00  0.00    -0.291 NA
HETATM    3  C2  UNL     1      24.291   2.909  51.586  1.00  0.00     0.097 C 
ENDROOT
BRANCH   3   4
HETATM    4  C3  UNL     1      24.399   2.968  50.139  1.00  0.00     0.149 C 
HETATM    5  N2  UNL     1      25.245   3.439  49.311  1.00  0.00    -0.271 NA
BRANCH   5   6
HETATM    6  C4  UNL     1      26.435   4.105  49.687  1.00  0.00     0.116 C 
HETATM    7  C5  UNL     1      27.162   4.510  48.629  1.00  0.00     0.019 C 
BRANCH   7   8
HETATM    8  C6  UNL     1      28.432   5.220  48.574  1.00  0.00    -0.002 C 
HETATM    9  C7  UNL     1      28.763   6.416  48.193  1.00  0.00    -0.017 C 
BRANCH   9  10
HETATM   10  C8  UNL     1      27.886   7.475  47.669  1.00  0.00     0.100 C 
BRANCH  10  11
HETATM   11  S1  UNL     1      27.350   8.619  48.954  1.00  0.00    -0.170 SA
HETATM   12  C9  UNL     1      26.169   7.893  50.102  1.00  0.00     0.090 C 
ENDBRANCH  10  11
ENDBRANCH   9  10
ENDBRANCH   7   8
ENDBRANCH   5   6
ENDBRANCH   3   4
BRANCH   3  13
HETATM   13  C10 UNL     1      24.645   1.707  52.293  1.00  0.00     0.107 A 
HETATM   14  C11 UNL     1      23.661   0.861  52.748  1.00  0.00     0.054 A 
HETATM   15  C12 UNL     1      24.043  -0.282  53.418  1.00  0.00     0.139 A 
HETATM   16  N3  UNL     1      25.337  -0.517  53.594  1.00  0.00    -0.075 NA
HETATM   17  C13 UNL     1      26.324   0.297  53.158  1.00  0.00     0.729 A 
HETATM   18  N5  UNL     1      25.936   1.418  52.501  1.00  0.00    -0.060 NA
BRANCH  17  19
HETATM   19  N4  UNL     1      27.719   0.055  53.340  1.00  0.00    -0.180 N 
HETATM   20  C14 UNL     1      28.607  -1.092  53.349  1.00  0.00     0.176 A 
HETATM   21  C15 UNL     1      29.608  -0.027  53.613  1.00  0.00     0.019 A 
HETATM   22  C16 UNL     1      28.762   0.990  53.595  1.00  0.00     0.023 A 
HETATM   23  C17 UNL     1      28.906   2.455  53.772  1.00  0.00     0.068 C 
ENDBRANCH  17  19
ENDBRANCH   3  13
TORSDOF 7
ENDMDL
MODEL 3
REMARK VINA RESULT:      -6.3      2.832      6.551
REMARK  7 active torsions:
REMARK  status: ('A' for Active; 'I' for Inactive)
REMARK    1  A    between atoms: C2_3  and  C3_4 
REMARK    2  A    between atoms: C2_3  and  C10_13 
REMARK    3  A    between atoms: N2_5  and  C4_6 
REMARK    4  A    between atoms: C5_7  and  C6_8 
REMARK    5  A    between atoms: C7_9  and  C8_10 
REMARK    6  A    between atoms: C8_10  and  S1_11 
REMARK    7  A    between atoms: C13_17  and  N4_18 
ROOT
HETATM    1  C1  UNL     1      26.423   3.159  50.062  1.00  0.00     0.178 C 
HETATM    2  N1  UNL     1      25.357   3.361  50.990  1.00  0.00    -0.291 NA
HETATM    3  C2  UNL     1      24.958   2.640  51.930  1.00  0.00     0.097 C 
ENDROOT
BRANCH   3   4
HETATM    4  C3  UNL     1      23.870   3.476  52.408  1.00  0.00     0.149 C 
HETATM    5  N2  UNL     1      22.644   3.630  52.103  1.00  0.00    -0.271 NA
BRANCH   5   6
HETATM    6  C4  UNL     1      21.986   2.911  51.077  1.00  0.00     0.116 C 
HETATM    7  C5  UNL     1      21.143   1.976  51.553  1.00  0.00     0.019 C 
BRANCH   7   8
HETATM    8  C6  UNL     1      20.286   1.033  50.849  1.00  0.00    -0.002 C 
HETATM    9  C7  UNL     1      19.371   0.201  51.244  1.00  0.00    -0.017 C 
BRANCH   9  10
HETATM   10  C8  UNL     1      18.903  -0.045  52.618  1.00  0.00     0.100 C 
BRANCH  10  11
HETATM   11  S1  UNL     1      20.108  -0.958  53.599  1.00  0.00    -0.170 SA
HETATM   12  C9  UNL     1      21.016   0.081  54.754  1.00  0.00     0.090 C 
ENDBRANCH  10  11
ENDBRANCH   9  10
ENDBRANCH   7   8
ENDBRANCH   5   6
ENDBRANCH   3   4
BRANCH   3  13
HETATM   13  C10 UNL     1      25.243   1.382  52.567  1.00  0.00     0.107 A 
HETATM   14  C11 UNL     1      24.211   0.582  53.000  1.00  0.00     0.054 A 
HETATM   15  C12 UNL     1      24.526  -0.618  53.602  1.00  0.00     0.139 A 
HETATM   16  N3  UNL     1      25.804  -0.949  53.738  1.00  0.00    -0.075 NA
HETATM   17  C13 UNL     1      26.836  -0.181  53.322  1.00  0.00     0.729 A 
HETATM   18  N5  UNL     1      26.514   0.996  52.731  1.00  0.00    -0.060 NA
BRANCH  17  19
HETATM   19  N4  UNL     1      28.215  -0.526  53.460  1.00  0.00    -0.180 N 
HETATM   20  C14 UNL     1      29.049  -1.688  53.220  1.00  0.00     0.176 A 
HETATM   21  C15 UNL     1      30.092  -0.760  53.730  1.00  0.00     0.019 A 
HETATM   22  C16 UNL     1      29.293   0.275  53.932  1.00  0.00     0.023 A 
HETATM   23  C17 UNL     1      29.499   1.654  54.437  1.00  0.00     0.068 C 
ENDBRANCH  17  19
ENDBRANCH   3  13
TORSDOF 7
ENDMDL
MODEL 4
REMARK VINA RESULT:      -6.3      3.375      5.999
REMARK  7 active torsions:
REMARK  status: ('A' for Active; 'I' for Inactive)
REMARK    1  A    between atoms: C2_3  and  C3_4 
REMARK    2  A    between atoms: C2_3  and  C10_13 
REMARK    3  A    between atoms: N2_5  and  C4_6 
REMARK    4  A    between atoms: C5_7  and  C6_8 
REMARK    5  A    between atoms: C7_9  and  C8_10 
REMARK    6  A    between atoms: C8_10  and  S1_11 
REMARK    7  A    between atoms: C13_17  and  N4_18 
ROOT
HETATM    1  C1  UNL     1      21.962   1.697  48.260  1.00  0.00     0.178 C 
HETATM    2  N1  UNL     1      22.523   2.645  49.169  1.00  0.00    -0.291 NA
HETATM    3  C2  UNL     1      22.947   2.492  50.334  1.00  0.00     0.097 C 
ENDROOT
BRANCH   3   4
HETATM    4  C3  UNL     1      23.349   3.860  50.608  1.00  0.00     0.149 C 
HETATM    5  N2  UNL     1      24.406   4.548  50.429  1.00  0.00    -0.271 NA
BRANCH   5   6
HETATM    6  C4  UNL     1      25.588   4.045  49.837  1.00  0.00     0.116 C 
HETATM    7  C5  UNL     1      26.354   5.012  49.298  1.00  0.00     0.019 C 
BRANCH   7   8
HETATM    8  C6  UNL     1      27.630   4.926  48.604  1.00  0.00    -0.002 C 
HETATM    9  C7  UNL     1      28.493   5.818  48.220  1.00  0.00    -0.017 C 
BRANCH   9  10
HETATM   10  C8  UNL     1      28.422   7.278  48.390  1.00  0.00     0.100 C 
BRANCH  10  11
HETATM   11  S1  UNL     1      27.760   8.107  46.932  1.00  0.00    -0.170 SA
HETATM   12  C9  UNL     1      28.944   8.219  45.581  1.00  0.00     0.090 C 
ENDBRANCH  10  11
ENDBRANCH   9  10
ENDBRANCH   7   8
ENDBRANCH   5   6
ENDBRANCH   3   4
BRANCH   3  13
HETATM   13  C10 UNL     1      23.112   1.472  51.335  1.00  0.00     0.107 A 
HETATM   14  C11 UNL     1      22.042   0.686  51.699  1.00  0.00     0.054 A 
HETATM   15  C12 UNL     1      22.244  -0.282  52.659  1.00  0.00     0.139 A 
HETATM   16  N3  UNL     1      23.452  -0.417  53.188  1.00  0.00    -0.075 NA
HETATM   17  C13 UNL     1      24.520   0.341  52.849  1.00  0.00     0.729 A 
HETATM   18  N5  UNL     1      24.310   1.290  51.904  1.00  0.00    -0.060 NA
BRANCH  17  19
HETATM   19  N4  UNL     1      25.826   0.205  53.409  1.00  0.00    -0.180 N 
HETATM   20  C14 UNL     1      26.681   0.958  54.307  1.00  0.00     0.176 A 
HETATM   21  C15 UNL     1      27.590  -0.185  54.031  1.00  0.00     0.019 A 
HETATM   22  C16 UNL     1      26.776  -0.837  53.218  1.00  0.00     0.023 A 
HETATM   23  C17 UNL     1      26.874  -2.110  52.463  1.00  0.00     0.068 C 
ENDBRANCH  17  19
ENDBRANCH   3  13
TORSDOF 7
ENDMDL
MODEL 5
REMARK VINA RESULT:      -6.2      2.792      6.303
REMARK  7 active torsions:
REMARK  status: ('A' for Active; 'I' for Inactive)
REMARK    1  A    between atoms: C2_3  and  C3_4 
REMARK    2  A    between atoms: C2_3  and  C10_13 
REMARK    3  A    between atoms: N2_5  and  C4_6 
REMARK    4  A    between atoms: C5_7  and  C6_8 
REMARK    5  A    between atoms: C7_9  and  C8_10 
REMARK    6  A    between atoms: C8_10  and  S1_11 
REMARK    7  A    between atoms: C13_17  and  N4_18 
ROOT
HETATM    1  C1  UNL     1      21.934   1.431  48.678  1.00  0.00     0.178 C 
HETATM    2  N1  UNL     1      21.923   2.104  49.938  1.00  0.00    -0.291 NA
HETATM    3  C2  UNL     1      22.858   2.624  50.583  1.00  0.00     0.097 C 
ENDROOT
BRANCH   3   4
HETATM    4  C3  UNL     1      22.104   3.097  51.731  1.00  0.00     0.149 C 
HETATM    5  N2  UNL     1      21.518   4.183  52.047  1.00  0.00    -0.271 NA
BRANCH   5   6
HETATM    6  C4  UNL     1      21.476   5.330  51.219  1.00  0.00     0.116 C 
HETATM    7  C5  UNL     1      22.587   6.084  51.316  1.00  0.00     0.019 C 
BRANCH   7   8
HETATM    8  C6  UNL     1      22.943   7.327  50.647  1.00  0.00    -0.002 C 
HETATM    9  C7  UNL     1      24.078   7.849  50.293  1.00  0.00    -0.017 C 
BRANCH   9  10
HETATM   10  C8  UNL     1      25.428   7.294  50.480  1.00  0.00     0.100 C 
BRANCH  10  11
HETATM   11  S1  UNL     1      26.679   8.211  49.562  1.00  0.00    -0.170 SA
HETATM   12  C9  UNL     1      27.681   7.167  48.491  1.00  0.00     0.090 C 
ENDBRANCH  10  11
ENDBRANCH   9  10
ENDBRANCH   7   8
ENDBRANCH   5   6
ENDBRANCH   3   4
BRANCH   3  13
HETATM   13  C10 UNL     1      24.278   2.841  50.507  1.00  0.00     0.107 A 
HETATM   14  C11 UNL     1      24.803   3.614  49.497  1.00  0.00     0.054 A 
HETATM   15  C12 UNL     1      26.168   3.801  49.463  1.00  0.00     0.139 A 
HETATM   16  N3  UNL     1      26.915   3.230  50.398  1.00  0.00    -0.075 NA
HETATM   17  C13 UNL     1      26.426   2.466  51.401  1.00  0.00     0.729 A 
HETATM   18  N5  UNL     1      25.082   2.290  51.425  1.00  0.00    -0.060 NA
BRANCH  17  19
HETATM   19  N4  UNL     1      27.218   1.848  52.415  1.00  0.00    -0.180 N 
HETATM   20  C14 UNL     1      28.169   2.270  53.425  1.00  0.00     0.176 A 
HETATM   21  C15 UNL     1      28.182   0.809  53.697  1.00  0.00     0.019 A 
HETATM   22  C16 UNL     1      27.309   0.471  52.762  1.00  0.00     0.023 A 
HETATM   23  C17 UNL     1      26.720  -0.816  52.319  1.00  0.00     0.068 C 
ENDBRANCH  17  19
ENDBRANCH   3  13
TORSDOF 7
ENDMDL
MODEL 6
REMARK VINA RESULT:      -6.1      1.484      4.554
REMARK  7 active torsions:
REMARK  status: ('A' for Active; 'I' for Inactive)
REMARK    1  A    between atoms: C2_3  and  C3_4 
REMARK    2  A    between atoms: C2_3  and  C10_13 
REMARK    3  A    between atoms: N2_5  and  C4_6 
REMARK    4  A    between atoms: C5_7  and  C6_8 
REMARK    5  A    between atoms: C7_9  and  C8_10 
REMARK    6  A    between atoms: C8_10  and  S1_11 
REMARK    7  A    between atoms: C13_17  and  N4_18 
ROOT
HETATM    1  C1  UNL     1      18.372  -0.333  52.047  1.00  0.00     0.178 C 
HETATM    2  N1  UNL     1      19.543  -0.095  52.830  1.00  0.00    -0.291 NA
HETATM    3  C2  UNL     1      20.603   0.497  52.536  1.00  0.00     0.097 C 
ENDROOT
BRANCH   3   4
HETATM    4  C3  UNL     1      21.305   0.342  53.798  1.00  0.00     0.149 C 
HETATM    5  N2  UNL     1      22.456  -0.075  54.151  1.00  0.00    -0.271 NA
BRANCH   5   6
HETATM    6  C4  UNL     1      23.439  -0.545  53.248  1.00  0.00     0.116 C 
HETATM    7  C5  UNL     1      24.486   0.293  53.136  1.00  0.00     0.019 C 
BRANCH   7   8
HETATM    8  C6  UNL     1      25.693   0.190  52.328  1.00  0.00    -0.002 C 
HETATM    9  C7  UNL     1      26.925   0.552  52.524  1.00  0.00    -0.017 C 
BRANCH   9  10
HETATM   10  C8  UNL     1      27.496   1.218  53.705  1.00  0.00     0.100 C 
BRANCH  10  11
HETATM   11  S1  UNL     1      28.598   0.136  54.635  1.00  0.00    -0.170 SA
HETATM   12  C9  UNL     1      29.535  -0.990  53.590  1.00  0.00     0.090 C 
ENDBRANCH  10  11
ENDBRANCH   9  10
ENDBRANCH   7   8
ENDBRANCH   5   6
ENDBRANCH   3   4
BRANCH   3  13
HETATM   13  C10 UNL     1      21.227   1.185  51.437  1.00  0.00     0.107 A 
HETATM   14  C11 UNL     1      21.254   0.607  50.189  1.00  0.00     0.054 A 
HETATM   15  C12 UNL     1      21.859   1.301  49.163  1.00  0.00     0.139 A 
HETATM   16  N3  UNL     1      22.387   2.490  49.420  1.00  0.00    -0.075 NA
HETATM   17  C13 UNL     1      22.375   3.081  50.636  1.00  0.00     0.729 A 
HETATM   18  N5  UNL     1      21.777   2.390  51.637  1.00  0.00    -0.060 NA
BRANCH  17  19
HETATM   19  N4  UNL     1      22.937   4.361  50.925  1.00  0.00    -0.180 N 
HETATM   20  C14 UNL     1      22.494   5.606  51.521  1.00  0.00     0.176 A 
HETATM   21  C15 UNL     1      23.896   5.988  51.213  1.00  0.00     0.019 A 
HETATM   22  C16 UNL     1      24.256   4.834  50.677  1.00  0.00     0.023 A 
HETATM   23  C17 UNL     1      25.516   4.319  50.088  1.00  0.00     0.068 C 
ENDBRANCH  17  19
ENDBRANCH   3  13
TORSDOF 7
ENDMDL
MODEL 7
REMARK VINA RESULT:      -6.0      3.477      6.370
REMARK  7 active torsions:
REMARK  status: ('A' for Active; 'I' for Inactive)
REMARK    1  A    between atoms: C2_3  and  C3_4 
REMARK    2  A    between atoms: C2_3  and  C10_13 
REMARK    3  A    between atoms: N2_5  and  C4_6 
REMARK    4  A    between atoms: C5_7  and  C6_8 
REMARK    5  A    between atoms: C7_9  and  C8_10 
REMARK    6  A    between atoms: C8_10  and  S1_11 
REMARK    7  A    between atoms: C13_17  and  N4_18 
ROOT
HETATM    1  C1  UNL     1      23.469   4.593  52.877  1.00  0.00     0.178 C 
HETATM    2  N1  UNL     1      23.864   3.890  51.698  1.00  0.00    -0.291 NA
HETATM    3  C2  UNL     1      24.356   2.750  51.566  1.00  0.00     0.097 C 
ENDROOT
BRANCH   3   4
HETATM    4  C3  UNL     1      24.486   2.727  50.119  1.00  0.00     0.149 C 
HETATM    5  N2  UNL     1      25.223   3.319  49.266  1.00  0.00    -0.271 NA
BRANCH   5   6
HETATM    6  C4  UNL     1      26.219   4.267  49.601  1.00  0.00     0.116 C 
HETATM    7  C5  UNL     1      26.180   5.362  48.820  1.00  0.00     0.019 C 
BRANCH   7   8
HETATM    8  C6  UNL     1      27.014   6.556  48.828  1.00  0.00    -0.002 C 
HETATM    9  C7  UNL     1      28.248   6.777  48.492  1.00  0.00    -0.017 C 
BRANCH   9  10
HETATM   10  C8  UNL     1      29.231   5.816  47.968  1.00  0.00     0.100 C 
BRANCH  10  11
HETATM   11  S1  UNL     1      30.658   6.630  47.226  1.00  0.00    -0.170 SA
HETATM   12  C9  UNL     1      32.168   5.659  47.342  1.00  0.00     0.090 C 
ENDBRANCH  10  11
ENDBRANCH   9  10
ENDBRANCH   7   8
ENDBRANCH   5   6
ENDBRANCH   3   4
BRANCH   3  13
HETATM   13  C10 UNL     1      24.775   1.619  52.351  1.00  0.00     0.107 A 
HETATM   14  C11 UNL     1      23.835   0.794  52.925  1.00  0.00     0.054 A 
HETATM   15  C12 UNL     1      24.279  -0.281  53.666  1.00  0.00     0.139 A 
HETATM   16  N3  UNL     1      25.585  -0.473  53.794  1.00  0.00    -0.075 NA
HETATM   17  C13 UNL     1      26.528   0.321  53.242  1.00  0.00     0.729 A 
HETATM   18  N5  UNL     1      26.081   1.374  52.514  1.00  0.00    -0.060 NA
BRANCH  17  19
HETATM   19  N4  UNL     1      27.936   0.124  53.370  1.00  0.00    -0.180 N 
HETATM   20  C14 UNL     1      29.109   0.947  53.599  1.00  0.00     0.176 A 
HETATM   21  C15 UNL     1      29.775  -0.378  53.506  1.00  0.00     0.019 A 
HETATM   22  C16 UNL     1      28.678  -1.089  53.300  1.00  0.00     0.023 A 
HETATM   23  C17 UNL     1      28.409  -2.532  53.093  1.00  0.00     0.068 C 
ENDBRANCH  17  19
ENDBRANCH   3  13
TORSDOF 7
ENDMDL
MODEL 8
REMARK VINA RESULT:      -6.0      2.258      5.619
REMARK  7 active torsions:
REMARK  status: ('A' for Active; 'I' for Inactive)
REMARK    1  A    between atoms: C2_3  and  C3_4 
REMARK    2  A    between atoms: C2_3  and  C10_13 
REMARK    3  A    between atoms: N2_5  and  C4_6 
REMARK    4  A    between atoms: C5_7  and  C6_8 
REMARK    5  A    between atoms: C7_9  and  C8_10 
REMARK    6  A    between atoms: C8_10  and  S1_11 
REMARK    7  A    between atoms: C13_17  and  N4_18 
ROOT
HETATM    1  C1  UNL     1      21.566   1.191  49.063  1.00  0.00     0.178 C 
HETATM    2  N1  UNL     1      21.356   2.107  50.138  1.00  0.00    -0.291 NA
HETATM    3  C2  UNL     1      21.653   2.013  51.348  1.00  0.00     0.097 C 
ENDROOT
BRANCH   3   4
HETATM    4  C3  UNL     1      21.141   3.293  51.806  1.00  0.00     0.149 C 
HETATM    5  N2  UNL     1      21.649   4.430  52.072  1.00  0.00    -0.271 NA
BRANCH   5   6
HETATM    6  C4  UNL     1      23.028   4.727  51.963  1.00  0.00     0.116 C 
HETATM    7  C5  UNL     1      23.261   5.889  51.325  1.00  0.00     0.019 C 
BRANCH   7   8
HETATM    8  C6  UNL     1      24.517   6.553  51.006  1.00  0.00    -0.002 C 
HETATM    9  C7  UNL     1      25.423   6.348  50.099  1.00  0.00    -0.017 C 
BRANCH   9  10
HETATM   10  C8  UNL     1      25.442   5.309  49.056  1.00  0.00     0.100 C 
BRANCH  10  11
HETATM   11  S1  UNL     1      26.630   4.002  49.412  1.00  0.00    -0.170 SA
HETATM   12  C9  UNL     1      26.252   3.090  50.916  1.00  0.00     0.090 C 
ENDBRANCH  10  11
ENDBRANCH   9  10
ENDBRANCH   7   8
ENDBRANCH   5   6
ENDBRANCH   3   4
BRANCH   3  13
HETATM   13  C10 UNL     1      22.269   1.103  52.276  1.00  0.00     0.107 A 
HETATM   14  C11 UNL     1      21.503   0.460  53.221  1.00  0.00     0.054 A 
HETATM   15  C12 UNL     1      22.132  -0.407  54.089  1.00  0.00     0.139 A 
HETATM   16  N3  UNL     1      23.442  -0.585  53.978  1.00  0.00    -0.075 NA
HETATM   17  C13 UNL     1      24.218   0.034  53.060  1.00  0.00     0.729 A 
HETATM   18  N5  UNL     1      23.588   0.884  52.211  1.00  0.00    -0.060 NA
BRANCH  17  19
HETATM   19  N4  UNL     1      25.628  -0.149  52.928  1.00  0.00    -0.180 N 
HETATM   20  C14 UNL     1      26.564  -0.464  51.867  1.00  0.00     0.176 A 
HETATM   21  C15 UNL     1      27.526  -0.350  52.993  1.00  0.00     0.019 A 
HETATM   22  C16 UNL     1      26.636  -0.064  53.929  1.00  0.00     0.023 A 
HETATM   23  C17 UNL     1      26.722   0.216  55.383  1.00  0.00     0.068 C 
ENDBRANCH  17  19
ENDBRANCH   3  13
TORSDOF 7
ENDMDL
MODEL 9
REMARK VINA RESULT:      -5.9      3.005      6.772
REMARK  7 active torsions:
REMARK  status: ('A' for Active; 'I' for Inactive)
REMARK    1  A    between atoms: C2_3  and  C3_4 
REMARK    2  A    between atoms: C2_3  and  C10_13 
REMARK    3  A    between atoms: N2_5  and  C4_6 
REMARK    4  A    between atoms: C5_7  and  C6_8 
REMARK    5  A    between atoms: C7_9  and  C8_10 
REMARK    6  A    between atoms: C8_10  and  S1_11 
REMARK    7  A    between atoms: C13_17  and  N4_18 
ROOT
HETATM    1  C1  UNL     1      26.375   3.341  49.816  1.00  0.00     0.178 C 
HETATM    2  N1  UNL     1      24.992   3.100  50.079  1.00  0.00    -0.291 NA
HETATM    3  C2  UNL     1      24.450   2.331  50.902  1.00  0.00     0.097 C 
ENDROOT
BRANCH   3   4
HETATM    4  C3  UNL     1      23.059   2.621  50.597  1.00  0.00     0.149 C 
HETATM    5  N2  UNL     1      22.278   3.610  50.781  1.00  0.00    -0.271 NA
BRANCH   5   6
HETATM    6  C4  UNL     1      22.661   4.814  51.417  1.00  0.00     0.116 C 
HETATM    7  C5  UNL     1      22.849   5.826  50.549  1.00  0.00     0.019 C 
BRANCH   7   8
HETATM    8  C6  UNL     1      23.241   7.208  50.783  1.00  0.00    -0.002 C 
HETATM    9  C7  UNL     1      24.367   7.843  50.664  1.00  0.00    -0.017 C 
BRANCH   9  10
HETATM   10  C8  UNL     1      25.666   7.308  50.224  1.00  0.00     0.100 C 
BRANCH  10  11
HETATM   11  S1  UNL     1      25.763   7.129  48.433  1.00  0.00    -0.170 SA
HETATM   12  C9  UNL     1      24.768   8.336  47.545  1.00  0.00     0.090 C 
ENDBRANCH  10  11
ENDBRANCH   9  10
ENDBRANCH   7   8
ENDBRANCH   5   6
ENDBRANCH   3   4
BRANCH   3  13
HETATM   13  C10 UNL     1      24.786   1.369  51.917  1.00  0.00     0.107 A 
HETATM   14  C11 UNL     1      23.789   0.725  52.612  1.00  0.00     0.054 A 
HETATM   15  C12 UNL     1      24.154  -0.193  53.574  1.00  0.00     0.139 A 
HETATM   16  N3  UNL     1      25.444  -0.416  53.788  1.00  0.00    -0.075 NA
HETATM   17  C13 UNL     1      26.443   0.203  53.120  1.00  0.00     0.729 A 
HETATM   18  N5  UNL     1      26.073   1.103  52.176  1.00  0.00    -0.060 NA
BRANCH  17  19
HETATM   19  N4  UNL     1      27.835  -0.029  53.339  1.00  0.00    -0.180 N 
HETATM   20  C14 UNL     1      28.730  -1.170  53.372  1.00  0.00     0.176 A 
HETATM   21  C15 UNL     1      29.716  -0.098  53.664  1.00  0.00     0.019 A 
HETATM   22  C16 UNL     1      28.863   0.912  53.623  1.00  0.00     0.023 A 
HETATM   23  C17 UNL     1      28.992   2.379  53.805  1.00  0.00     0.068 C 
ENDBRANCH  17  19
ENDBRANCH   3  13
TORSDOF 7
ENDMDL
