MODEL 1
REMARK VINA RESULT:      -8.2      0.000      0.000
REMARK  4 active torsions:
REMARK  status: ('A' for Active; 'I' for Inactive)
REMARK    1  A    between atoms: O1_1  and  C1_2 
REMARK    2  A    between atoms: C3_5  and  N1_6 
REMARK    3  A    between atoms: C4_8  and  C5_9 
REMARK    4  A    between atoms: C11_17  and  C12_18 
ROOT
HETATM    1  N1  UNL     1      23.313   1.452  52.345  1.00  0.00    -0.236 N 
HETATM    2  N2  UNL     1      22.541   1.835  51.274  1.00  0.00    -0.173 NA
HETATM    3  C4  UNL     1      23.249   2.522  50.415  1.00  0.00     0.070 C 
HETATM    4  C10 UNL     1      24.664   2.645  50.913  1.00  0.00     0.094 C 
HETATM    5  C11 UNL     1      24.514   2.219  52.350  1.00  0.00     0.151 C 
ENDROOT
BRANCH   1   6
HETATM    6  C3  UNL     1      22.834   0.400  53.252  1.00  0.00     0.192 A 
HETATM    7  S1  UNL     1      21.034  -0.141  52.964  1.00  0.00    -0.058 SA
HETATM    8  C2  UNL     1      21.257  -1.363  54.401  1.00  0.00     0.111 A 
HETATM    9  C1  UNL     1      22.511  -1.159  54.790  1.00  0.00     0.171 A 
HETATM   10  N3  UNL     1      23.148  -0.247  54.110  1.00  0.00    -0.198 NA
BRANCH   9  11
HETATM   11  O1  UNL     1      23.156  -1.837  55.841  1.00  0.00    -0.344 OA
HETATM   12  H1  UNL     1      22.678  -2.419  56.499  1.00  0.00     0.219 HD
ENDBRANCH   9  11
ENDBRANCH   1   6
BRANCH   5  13
HETATM   13  C12 UNL     1      25.694   1.467  52.839  1.00  0.00    -0.033 A 
HETATM   14  C13 UNL     1      26.333   1.578  54.066  1.00  0.00     0.011 A 
HETATM   15  C14 UNL     1      27.415   0.798  54.345  1.00  0.00     0.019 A 
HETATM   16  C15 UNL     1      27.904  -0.112  53.437  1.00  0.00     0.011 A 
HETATM   17 BR1  UNL     1      29.413  -1.175  53.872  1.00  0.00    -0.051 Br
HETATM   18  C16 UNL     1      27.277  -0.240  52.198  1.00  0.00     0.019 A 
HETATM   19  C17 UNL     1      26.173   0.563  51.924  1.00  0.00     0.011 A 
ENDBRANCH   5  13
BRANCH   3  20
HETATM   20  C5  UNL     1      22.786   3.098  49.158  1.00  0.00     0.012 A 
HETATM   21  S2  UNL     1      22.676   4.712  48.939  1.00  0.00    -0.102 SA
HETATM   22  C6  UNL     1      22.138   5.163  47.466  1.00  0.00     0.073 A 
HETATM   23  C7  UNL     1      21.810   4.123  46.496  1.00  0.00     0.037 A 
HETATM   24 CL1  UNL     1      21.230   4.561  44.903  1.00  0.00    -0.084 Cl
HETATM   25  C8  UNL     1      21.962   2.880  46.851  1.00  0.00     0.003 A 
HETATM   26  C9  UNL     1      22.407   2.169  48.050  1.00  0.00     0.077 A 
ENDBRANCH   3  20
TORSDOF 4
ENDMDL
MODEL 2
REMARK VINA RESULT:      -8.0      1.634      2.221
REMARK  4 active torsions:
REMARK  status: ('A' for Active; 'I' for Inactive)
REMARK    1  A    between atoms: O1_1  and  C1_2 
REMARK    2  A    between atoms: C3_5  and  N1_6 
REMARK    3  A    between atoms: C4_8  and  C5_9 
REMARK    4  A    between atoms: C11_17  and  C12_18 
ROOT
HETATM    1  N1  UNL     1      23.050   1.822  53.011  1.00  0.00    -0.236 N 
HETATM    2  N2  UNL     1      22.160   2.587  52.294  1.00  0.00    -0.173 NA
HETATM    3  C4  UNL     1      22.791   3.469  51.564  1.00  0.00     0.070 C 
HETATM    4  C10 UNL     1      24.275   3.326  51.773  1.00  0.00     0.094 C 
HETATM    5  C11 UNL     1      24.323   2.462  53.005  1.00  0.00     0.151 C 
ENDROOT
BRANCH   1   6
HETATM    6  C3  UNL     1      22.602   0.565  53.626  1.00  0.00     0.192 A 
HETATM    7  S1  UNL     1      20.943  -0.096  52.973  1.00  0.00    -0.058 SA
HETATM    8  C2  UNL     1      21.140  -1.550  54.179  1.00  0.00     0.111 A 
HETATM    9  C1  UNL     1      22.295  -1.295  54.786  1.00  0.00     0.171 A 
HETATM   10  N3  UNL     1      22.886  -0.203  54.389  1.00  0.00    -0.198 NA
BRANCH   9  11
HETATM   11  O1  UNL     1      22.883  -2.097  55.781  1.00  0.00    -0.344 OA
HETATM   12  H1  UNL     1      22.599  -3.036  55.974  1.00  0.00     0.219 HD
ENDBRANCH   9  11
ENDBRANCH   1   6
BRANCH   5  13
HETATM   13  C12 UNL     1      25.461   1.514  52.983  1.00  0.00    -0.033 A 
HETATM   14  C13 UNL     1      25.803   0.608  51.989  1.00  0.00     0.011 A 
HETATM   15  C14 UNL     1      26.896  -0.193  52.140  1.00  0.00     0.019 A 
HETATM   16  C15 UNL     1      27.686  -0.131  53.265  1.00  0.00     0.011 A 
HETATM   17 BR1  UNL     1      29.197  -1.266  53.430  1.00  0.00    -0.051 Br
HETATM   18  C16 UNL     1      27.362   0.772  54.275  1.00  0.00     0.019 A 
HETATM   19  C17 UNL     1      26.242   1.585  54.110  1.00  0.00     0.011 A 
ENDBRANCH   5  13
BRANCH   3  20
HETATM   20  C5  UNL     1      22.197   4.457  50.671  1.00  0.00     0.012 A 
HETATM   21  S2  UNL     1      21.926   4.139  49.093  1.00  0.00    -0.102 SA
HETATM   22  C6  UNL     1      21.253   5.370  48.258  1.00  0.00     0.073 A 
HETATM   23  C7  UNL     1      20.958   6.611  48.964  1.00  0.00     0.037 A 
HETATM   24 CL1  UNL     1      20.236   7.957  48.108  1.00  0.00    -0.084 Cl
HETATM   25  C8  UNL     1      21.245   6.682  50.232  1.00  0.00     0.003 A 
HETATM   26  C9  UNL     1      21.829   5.792  51.235  1.00  0.00     0.077 A 
ENDBRANCH   3  20
TORSDOF 4
ENDMDL
MODEL 3
REMARK VINA RESULT:      -8.0      5.041      7.742
REMARK  4 active torsions:
REMARK  status: ('A' for Active; 'I' for Inactive)
REMARK    1  A    between atoms: O1_1  and  C1_2 
REMARK    2  A    between atoms: C3_5  and  N1_6 
REMARK    3  A    between atoms: C4_8  and  C5_9 
REMARK    4  A    between atoms: C11_17  and  C12_18 
ROOT
HETATM    1  N1  UNL     1      23.483   3.010  52.157  1.00  0.00    -0.236 N 
HETATM    2  N2  UNL     1      24.827   2.812  52.366  1.00  0.00    -0.173 NA
HETATM    3  C4  UNL     1      25.068   1.568  52.685  1.00  0.00     0.070 C 
HETATM    4  C10 UNL     1      23.776   0.795  52.709  1.00  0.00     0.094 C 
HETATM    5  C11 UNL     1      22.761   1.908  52.699  1.00  0.00     0.151 C 
ENDROOT
BRANCH   1   6
HETATM    6  C3  UNL     1      23.022   4.223  51.467  1.00  0.00     0.192 A 
HETATM    7  S1  UNL     1      23.257   4.205  49.580  1.00  0.00    -0.058 SA
HETATM    8  C2  UNL     1      22.484   5.939  49.549  1.00  0.00     0.111 A 
HETATM    9  C1  UNL     1      22.220   6.185  50.828  1.00  0.00     0.171 A 
HETATM   10  N3  UNL     1      22.553   5.224  51.644  1.00  0.00    -0.198 NA
BRANCH   9  11
HETATM   11  O1  UNL     1      21.633   7.363  51.324  1.00  0.00    -0.344 OA
HETATM   12  H1  UNL     1      21.326   8.116  50.742  1.00  0.00     0.219 HD
ENDBRANCH   9  11
ENDBRANCH   1   6
BRANCH   5  13
HETATM   13  C12 UNL     1      21.549   1.556  51.924  1.00  0.00    -0.033 A 
HETATM   14  C13 UNL     1      21.474   0.962  50.672  1.00  0.00     0.011 A 
HETATM   15  C14 UNL     1      20.260   0.709  50.106  1.00  0.00     0.019 A 
HETATM   16  C15 UNL     1      19.085   1.028  50.746  1.00  0.00     0.011 A 
HETATM   17 BR1  UNL     1      17.420   0.657  49.919  1.00  0.00    -0.051 Br
HETATM   18  C16 UNL     1      19.136   1.625  52.005  1.00  0.00     0.019 A 
HETATM   19  C17 UNL     1      20.383   1.878  52.572  1.00  0.00     0.011 A 
ENDBRANCH   5  13
BRANCH   3  20
HETATM   20  C5  UNL     1      26.366   0.972  52.981  1.00  0.00     0.012 A 
HETATM   21  S2  UNL     1      27.631   1.871  53.488  1.00  0.00    -0.102 SA
HETATM   22  C6  UNL     1      28.998   1.024  53.768  1.00  0.00     0.073 A 
HETATM   23  C7  UNL     1      28.980  -0.418  53.549  1.00  0.00     0.037 A 
HETATM   24 CL1  UNL     1      30.424  -1.366  53.837  1.00  0.00    -0.084 Cl
HETATM   25  C8  UNL     1      27.872  -0.966  53.140  1.00  0.00     0.003 A 
HETATM   26  C9  UNL     1      26.524  -0.505  52.810  1.00  0.00     0.077 A 
ENDBRANCH   3  20
TORSDOF 4
ENDMDL
MODEL 4
REMARK VINA RESULT:      -7.9      4.007      5.975
REMARK  4 active torsions:
REMARK  status: ('A' for Active; 'I' for Inactive)
REMARK    1  A    between atoms: O1_1  and  C1_2 
REMARK    2  A    between atoms: C3_5  and  N1_6 
REMARK    3  A    between atoms: C4_8  and  C5_9 
REMARK    4  A    between atoms: C11_17  and  C12_18 
ROOT
HETATM    1  N1  UNL     1      22.294   2.895  51.167  1.00  0.00    -0.236 N 
HETATM    2  N2  UNL     1      20.999   2.484  51.375  1.00  0.00    -0.173 NA
HETATM    3  C4  UNL     1      20.958   1.209  51.662  1.00  0.00     0.070 C 
HETATM    4  C10 UNL     1      22.355   0.648  51.660  1.00  0.00     0.094 C 
HETATM    5  C11 UNL     1      23.120   1.750  50.976  1.00  0.00     0.151 C 
ENDROOT
BRANCH   1   6
HETATM    6  C3  UNL     1      22.615   4.329  51.170  1.00  0.00     0.192 A 
HETATM    7  S1  UNL     1      21.367   5.427  50.246  1.00  0.00    -0.058 SA
HETATM    8  C2  UNL     1      22.452   6.914  50.715  1.00  0.00     0.111 A 
HETATM    9  C1  UNL     1      23.447   6.367  51.407  1.00  0.00     0.171 A 
HETATM   10  N3  UNL     1      23.369   5.072  51.535  1.00  0.00    -0.198 NA
BRANCH   9  11
HETATM   11  O1  UNL     1      24.522   7.072  51.976  1.00  0.00    -0.344 OA
HETATM   12  H1  UNL     1      24.409   7.856  52.586  1.00  0.00     0.219 HD
ENDBRANCH   9  11
ENDBRANCH   1   6
BRANCH   5  13
HETATM   13  C12 UNL     1      24.488   1.909  51.525  1.00  0.00    -0.033 A 
HETATM   14  C13 UNL     1      25.642   2.284  50.854  1.00  0.00     0.011 A 
HETATM   15  C14 UNL     1      26.824   2.379  51.526  1.00  0.00     0.019 A 
HETATM   16  C15 UNL     1      26.912   2.111  52.872  1.00  0.00     0.011 A 
HETATM   17 BR1  UNL     1      28.579   2.256  53.765  1.00  0.00    -0.051 Br
HETATM   18  C16 UNL     1      25.764   1.732  53.567  1.00  0.00     0.019 A 
HETATM   19  C17 UNL     1      24.563   1.639  52.869  1.00  0.00     0.011 A 
ENDBRANCH   5  13
BRANCH   3  20
HETATM   20  C5  UNL     1      19.771   0.411  51.946  1.00  0.00     0.012 A 
HETATM   21  S2  UNL     1      19.652  -0.509  53.289  1.00  0.00    -0.102 SA
HETATM   22  C6  UNL     1      18.248  -1.329  53.429  1.00  0.00     0.073 A 
HETATM   23  C7  UNL     1      17.246  -1.178  52.379  1.00  0.00     0.037 A 
HETATM   24 CL1  UNL     1      15.725  -2.039  52.489  1.00  0.00    -0.084 Cl
HETATM   25  C8  UNL     1      17.519  -0.396  51.375  1.00  0.00     0.003 A 
HETATM   26  C9  UNL     1      18.641   0.449  50.967  1.00  0.00     0.077 A 
ENDBRANCH   3  20
TORSDOF 4
ENDMDL
MODEL 5
REMARK VINA RESULT:      -7.8      4.135      6.079
REMARK  4 active torsions:
REMARK  status: ('A' for Active; 'I' for Inactive)
REMARK    1  A    between atoms: O1_1  and  C1_2 
REMARK    2  A    between atoms: C3_5  and  N1_6 
REMARK    3  A    between atoms: C4_8  and  C5_9 
REMARK    4  A    between atoms: C11_17  and  C12_18 
ROOT
HETATM    1  N1  UNL     1      23.370   2.108  52.780  1.00  0.00    -0.236 N 
HETATM    2  N2  UNL     1      22.410   1.149  53.002  1.00  0.00    -0.173 NA
HETATM    3  C4  UNL     1      21.329   1.407  52.313  1.00  0.00     0.070 C 
HETATM    4  C10 UNL     1      21.527   2.672  51.521  1.00  0.00     0.094 C 
HETATM    5  C11 UNL     1      22.760   3.243  52.171  1.00  0.00     0.151 C 
ENDROOT
BRANCH   1   6
HETATM    6  C3  UNL     1      24.763   1.851  53.169  1.00  0.00     0.192 A 
HETATM    7  S1  UNL     1      25.268   0.018  53.161  1.00  0.00    -0.058 SA
HETATM    8  C2  UNL     1      26.996   0.575  53.719  1.00  0.00     0.111 A 
HETATM    9  C1  UNL     1      26.885   1.897  53.799  1.00  0.00     0.171 A 
HETATM   10  N3  UNL     1      25.706   2.361  53.491  1.00  0.00    -0.198 NA
BRANCH   9  11
HETATM   11  O1  UNL     1      27.915   2.776  54.179  1.00  0.00    -0.344 OA
HETATM   12  H1  UNL     1      28.307   3.465  53.569  1.00  0.00     0.219 HD
ENDBRANCH   9  11
ENDBRANCH   1   6
BRANCH   5  13
HETATM   13  C12 UNL     1      23.638   3.936  51.199  1.00  0.00    -0.033 A 
HETATM   14  C13 UNL     1      24.259   3.407  50.075  1.00  0.00     0.011 A 
HETATM   15  C14 UNL     1      25.038   4.201  49.288  1.00  0.00     0.019 A 
HETATM   16  C15 UNL     1      25.234   5.532  49.573  1.00  0.00     0.011 A 
HETATM   17 BR1  UNL     1      26.327   6.596  48.448  1.00  0.00    -0.051 Br
HETATM   18  C16 UNL     1      24.620   6.084  50.696  1.00  0.00     0.019 A 
HETATM   19  C17 UNL     1      23.825   5.263  51.494  1.00  0.00     0.011 A 
ENDBRANCH   5  13
BRANCH   3  20
HETATM   20  C5  UNL     1      20.099   0.625  52.284  1.00  0.00     0.012 A 
HETATM   21  S2  UNL     1      19.018   0.764  51.069  1.00  0.00    -0.102 SA
HETATM   22  C6  UNL     1      17.705  -0.195  51.215  1.00  0.00     0.073 A 
HETATM   23  C7  UNL     1      17.606  -1.068  52.379  1.00  0.00     0.037 A 
HETATM   24 CL1  UNL     1      16.215  -2.113  52.576  1.00  0.00    -0.084 Cl
HETATM   25  C8  UNL     1      18.573  -1.044  53.251  1.00  0.00     0.003 A 
HETATM   26  C9  UNL     1      19.838  -0.327  53.408  1.00  0.00     0.077 A 
ENDBRANCH   3  20
TORSDOF 4
ENDMDL
MODEL 6
REMARK VINA RESULT:      -7.8      5.017      7.728
REMARK  4 active torsions:
REMARK  status: ('A' for Active; 'I' for Inactive)
REMARK    1  A    between atoms: O1_1  and  C1_2 
REMARK    2  A    between atoms: C3_5  and  N1_6 
REMARK    3  A    between atoms: C4_8  and  C5_9 
REMARK    4  A    between atoms: C11_17  and  C12_18 
ROOT
HETATM    1  N1  UNL     1      23.836   3.093  51.609  1.00  0.00    -0.236 N 
HETATM    2  N2  UNL     1      25.161   2.749  51.728  1.00  0.00    -0.173 NA
HETATM    3  C4  UNL     1      25.299   1.694  52.488  1.00  0.00     0.070 C 
HETATM    4  C10 UNL     1      23.946   1.234  52.961  1.00  0.00     0.094 C 
HETATM    5  C11 UNL     1      23.089   2.425  52.622  1.00  0.00     0.151 C 
ENDROOT
BRANCH   1   6
HETATM    6  C3  UNL     1      23.414   4.018  50.548  1.00  0.00     0.192 A 
HETATM    7  S1  UNL     1      23.204   5.825  51.104  1.00  0.00    -0.058 SA
HETATM    8  C2  UNL     1      22.709   6.232  49.316  1.00  0.00     0.111 A 
HETATM    9  C1  UNL     1      22.785   5.058  48.698  1.00  0.00     0.171 A 
HETATM   10  N3  UNL     1      23.150   4.066  49.461  1.00  0.00    -0.198 NA
BRANCH   9  11
HETATM   11  O1  UNL     1      22.508   4.838  47.336  1.00  0.00    -0.344 OA
HETATM   12  H1  UNL     1      23.208   4.613  46.659  1.00  0.00     0.219 HD
ENDBRANCH   9  11
ENDBRANCH   1   6
BRANCH   5  13
HETATM   13  C12 UNL     1      21.727   2.032  52.191  1.00  0.00    -0.033 A 
HETATM   14  C13 UNL     1      20.537   2.723  52.372  1.00  0.00     0.011 A 
HETATM   15  C14 UNL     1      19.367   2.205  51.904  1.00  0.00     0.019 A 
HETATM   16  C15 UNL     1      19.324   0.998  51.246  1.00  0.00     0.011 A 
HETATM   17 BR1  UNL     1      17.671   0.317  50.614  1.00  0.00    -0.051 Br
HETATM   18  C16 UNL     1      20.507   0.286  51.052  1.00  0.00     0.019 A 
HETATM   19  C17 UNL     1      21.697   0.826  51.535  1.00  0.00     0.011 A 
ENDBRANCH   5  13
BRANCH   3  20
HETATM   20  C5  UNL     1      26.546   1.030  52.850  1.00  0.00     0.012 A 
HETATM   21  S2  UNL     1      27.820   1.856  53.448  1.00  0.00    -0.102 SA
HETATM   22  C6  UNL     1      29.124   0.937  53.794  1.00  0.00     0.073 A 
HETATM   23  C7  UNL     1      29.049  -0.499  53.549  1.00  0.00     0.037 A 
HETATM   24 CL1  UNL     1      30.424  -1.522  53.906  1.00  0.00    -0.084 Cl
HETATM   25  C8  UNL     1      27.942  -0.984  53.065  1.00  0.00     0.003 A 
HETATM   26  C9  UNL     1      26.640  -0.451  52.664  1.00  0.00     0.077 A 
ENDBRANCH   3  20
TORSDOF 4
ENDMDL
MODEL 7
REMARK VINA RESULT:      -7.2      4.273      5.631
REMARK  4 active torsions:
REMARK  status: ('A' for Active; 'I' for Inactive)
REMARK    1  A    between atoms: O1_1  and  C1_2 
REMARK    2  A    between atoms: C3_5  and  N1_6 
REMARK    3  A    between atoms: C4_8  and  C5_9 
REMARK    4  A    between atoms: C11_17  and  C12_18 
ROOT
HETATM    1  N1  UNL     1      22.268   3.705  50.094  1.00  0.00    -0.236 N 
HETATM    2  N2  UNL     1      23.190   4.329  49.288  1.00  0.00    -0.173 NA
HETATM    3  C4  UNL     1      24.354   4.393  49.880  1.00  0.00     0.070 C 
HETATM    4  C10 UNL     1      24.263   3.756  51.240  1.00  0.00     0.094 C 
HETATM    5  C11 UNL     1      22.771   3.657  51.426  1.00  0.00     0.151 C 
ENDROOT
BRANCH   1   6
HETATM    6  C3  UNL     1      21.006   3.220  49.519  1.00  0.00     0.192 A 
HETATM    7  S1  UNL     1      20.347   4.245  48.060  1.00  0.00    -0.058 SA
HETATM    8  C2  UNL     1      18.882   3.039  47.979  1.00  0.00     0.111 A 
HETATM    9  C1  UNL     1      19.133   2.179  48.960  1.00  0.00     0.171 A 
HETATM   10  N3  UNL     1      20.230   2.419  49.624  1.00  0.00    -0.198 NA
BRANCH   9  11
HETATM   11  O1  UNL     1      18.323   1.082  49.306  1.00  0.00    -0.344 OA
HETATM   12  H1  UNL     1      17.992   0.409  48.644  1.00  0.00     0.219 HD
ENDBRANCH   9  11
ENDBRANCH   1   6
BRANCH   5  13
HETATM   13  C12 UNL     1      22.377   2.435  52.164  1.00  0.00    -0.033 A 
HETATM   14  C13 UNL     1      21.184   2.180  52.827  1.00  0.00     0.011 A 
HETATM   15  C14 UNL     1      20.994   0.988  53.458  1.00  0.00     0.019 A 
HETATM   16  C15 UNL     1      21.961   0.010  53.461  1.00  0.00     0.011 A 
HETATM   17 BR1  UNL     1      21.650  -1.634  54.353  1.00  0.00    -0.051 Br
HETATM   18  C16 UNL     1      23.167   0.243  52.801  1.00  0.00     0.019 A 
HETATM   19  C17 UNL     1      23.350   1.466  52.159  1.00  0.00     0.011 A 
ENDBRANCH   5  13
BRANCH   3  20
HETATM   20  C5  UNL     1      25.578   4.980  49.347  1.00  0.00     0.012 A 
HETATM   21  S2  UNL     1      25.673   6.559  48.945  1.00  0.00    -0.102 SA
HETATM   22  C6  UNL     1      27.126   7.028  48.367  1.00  0.00     0.073 A 
HETATM   23  C7  UNL     1      28.187   6.032  48.261  1.00  0.00     0.037 A 
HETATM   24 CL1  UNL     1      29.761   6.491  47.647  1.00  0.00    -0.084 Cl
HETATM   25  C8  UNL     1      27.926   4.812  48.632  1.00  0.00     0.003 A 
HETATM   26  C9  UNL     1      26.771   4.095  49.173  1.00  0.00     0.077 A 
ENDBRANCH   3  20
TORSDOF 4
ENDMDL
MODEL 8
REMARK VINA RESULT:      -7.1      5.176      7.606
REMARK  4 active torsions:
REMARK  status: ('A' for Active; 'I' for Inactive)
REMARK    1  A    between atoms: O1_1  and  C1_2 
REMARK    2  A    between atoms: C3_5  and  N1_6 
REMARK    3  A    between atoms: C4_8  and  C5_9 
REMARK    4  A    between atoms: C11_17  and  C12_18 
ROOT
HETATM    1  N1  UNL     1      23.618   4.026  49.093  1.00  0.00    -0.236 N 
HETATM    2  N2  UNL     1      22.977   3.009  49.758  1.00  0.00    -0.173 NA
HETATM    3  C4  UNL     1      23.725   2.544  50.725  1.00  0.00     0.070 C 
HETATM    4  C10 UNL     1      25.028   3.297  50.759  1.00  0.00     0.094 C 
HETATM    5  C11 UNL     1      25.002   4.002  49.428  1.00  0.00     0.151 C 
ENDROOT
BRANCH   1   6
HETATM    6  C3  UNL     1      22.853   4.916  48.208  1.00  0.00     0.192 A 
HETATM    7  S1  UNL     1      21.197   5.519  48.921  1.00  0.00    -0.058 SA
HETATM    8  C2  UNL     1      20.942   6.479  47.302  1.00  0.00     0.111 A 
HETATM    9  C1  UNL     1      22.034   6.198  46.599  1.00  0.00     0.171 A 
HETATM   10  N3  UNL     1      22.877   5.406  47.201  1.00  0.00    -0.198 NA
BRANCH   9  11
HETATM   11  O1  UNL     1      22.316   6.681  45.309  1.00  0.00    -0.344 OA
HETATM   12  H1  UNL     1      23.025   6.298  44.717  1.00  0.00     0.219 HD
ENDBRANCH   9  11
ENDBRANCH   1   6
BRANCH   5  13
HETATM   13  C12 UNL     1      25.620   5.347  49.492  1.00  0.00    -0.033 A 
HETATM   14  C13 UNL     1      25.228   6.435  50.260  1.00  0.00     0.011 A 
HETATM   15  C14 UNL     1      25.922   7.606  50.191  1.00  0.00     0.019 A 
HETATM   16  C15 UNL     1      27.017   7.749  49.372  1.00  0.00     0.011 A 
HETATM   17 BR1  UNL     1      27.951   9.398  49.310  1.00  0.00    -0.051 Br
HETATM   18  C16 UNL     1      27.429   6.669  48.593  1.00  0.00     0.019 A 
HETATM   19  C17 UNL     1      26.712   5.477  48.672  1.00  0.00     0.011 A 
ENDBRANCH   5  13
BRANCH   3  20
HETATM   20  C5  UNL     1      23.395   1.467  51.651  1.00  0.00     0.012 A 
HETATM   21  S2  UNL     1      24.492   0.864  52.698  1.00  0.00    -0.102 SA
HETATM   22  C6  UNL     1      23.932  -0.336  53.652  1.00  0.00     0.073 A 
HETATM   23  C7  UNL     1      22.545  -0.759  53.497  1.00  0.00     0.037 A 
HETATM   24 CL1  UNL     1      21.903  -2.043  54.500  1.00  0.00    -0.084 Cl
HETATM   25  C8  UNL     1      21.814  -0.159  52.603  1.00  0.00     0.003 A 
HETATM   26  C9  UNL     1      22.006   0.913  51.626  1.00  0.00     0.077 A 
ENDBRANCH   3  20
TORSDOF 4
ENDMDL
MODEL 9
REMARK VINA RESULT:      -7.0      9.117     10.651
REMARK  4 active torsions:
REMARK  status: ('A' for Active; 'I' for Inactive)
REMARK    1  A    between atoms: O1_1  and  C1_2 
REMARK    2  A    between atoms: C3_5  and  N1_6 
REMARK    3  A    between atoms: C4_8  and  C5_9 
REMARK    4  A    between atoms: C11_17  and  C12_18 
ROOT
HETATM    1  N1  UNL     1      30.932   6.067  48.199  1.00  0.00    -0.236 N 
HETATM    2  N2  UNL     1      29.801   5.377  48.567  1.00  0.00    -0.173 NA
HETATM    3  C4  UNL     1      28.729   6.087  48.334  1.00  0.00     0.070 C 
HETATM    4  C10 UNL     1      29.123   7.415  47.744  1.00  0.00     0.094 C 
HETATM    5  C11 UNL     1      30.602   7.442  48.028  1.00  0.00     0.151 C 
ENDROOT
BRANCH   1   6
HETATM    6  C3  UNL     1      32.207   5.352  48.049  1.00  0.00     0.192 A 
HETATM    7  S1  UNL     1      32.355   4.308  46.467  1.00  0.00    -0.058 SA
HETATM    8  C2  UNL     1      34.094   3.817  47.051  1.00  0.00     0.111 A 
HETATM    9  C1  UNL     1      34.227   4.461  48.206  1.00  0.00     0.171 A 
HETATM   10  N3  UNL     1      33.193   5.177  48.549  1.00  0.00    -0.198 NA
BRANCH   9  11
HETATM   11  O1  UNL     1      35.363   4.414  49.034  1.00  0.00    -0.344 OA
HETATM   12  H1  UNL     1      35.340   4.111  49.987  1.00  0.00     0.219 HD
ENDBRANCH   9  11
ENDBRANCH   1   6
BRANCH   5  13
HETATM   13  C12 UNL     1      31.369   8.105  46.947  1.00  0.00    -0.033 A 
HETATM   14  C13 UNL     1      31.267   7.906  45.577  1.00  0.00     0.011 A 
HETATM   15  C14 UNL     1      32.061   8.612  44.724  1.00  0.00     0.019 A 
HETATM   16  C15 UNL     1      32.976   9.531  45.182  1.00  0.00     0.011 A 
HETATM   17 BR1  UNL     1      34.059  10.489  43.955  1.00  0.00    -0.051 Br
HETATM   18  C16 UNL     1      33.095   9.747  46.554  1.00  0.00     0.019 A 
HETATM   19  C17 UNL     1      32.278   9.020  47.416  1.00  0.00     0.011 A 
ENDBRANCH   5  13
BRANCH   3  20
HETATM   20  C5  UNL     1      27.346   5.700  48.590  1.00  0.00     0.012 A 
HETATM   21  S2  UNL     1      26.104   6.731  48.351  1.00  0.00    -0.102 SA
HETATM   22  C6  UNL     1      24.632   6.113  48.692  1.00  0.00     0.073 A 
HETATM   23  C7  UNL     1      24.548   4.736  49.167  1.00  0.00     0.037 A 
HETATM   24 CL1  UNL     1      22.990   4.033  49.544  1.00  0.00    -0.084 Cl
HETATM   25  C8  UNL     1      25.654   4.061  49.297  1.00  0.00     0.003 A 
HETATM   26  C9  UNL     1      27.079   4.314  49.083  1.00  0.00     0.077 A 
ENDBRANCH   3  20
TORSDOF 4
ENDMDL
