MODEL 1
REMARK VINA RESULT:     -10.5      0.000      0.000
REMARK  0 active torsions:
REMARK  status: ('A' for Active; 'I' for Inactive)
ROOT
HETATM    1  O1  UNL     1      27.834  -0.602  52.441  1.00  0.00    -0.268 OA
HETATM    2  C1  UNL     1      26.656  -0.492  52.970  1.00  0.00     0.252 C 
HETATM    3  N1  UNL     1      26.102  -1.436  53.916  1.00  0.00    -0.353 N 
HETATM    4  C2  UNL     1      25.382  -0.412  54.753  1.00  0.00     0.159 C 
HETATM    5  C3  UNL     1      24.497   0.074  53.648  1.00  0.00    -0.037 C 
HETATM    6  C4  UNL     1      23.229  -0.123  53.888  1.00  0.00     0.065 C 
HETATM    7  C5  UNL     1      21.828  -0.043  53.525  1.00  0.00    -0.022 A 
HETATM    8  C6  UNL     1      21.381  -1.299  53.974  1.00  0.00     0.010 A 
HETATM    9  C7  UNL     1      20.073  -1.811  53.905  1.00  0.00     0.001 A 
HETATM   10  C8  UNL     1      19.223  -0.909  53.320  1.00  0.00     0.002 A 
HETATM   11  C9  UNL     1      19.600   0.326  52.864  1.00  0.00     0.030 A 
HETATM   12  C10 UNL     1      20.884   0.766  52.959  1.00  0.00     0.037 A 
HETATM   13  N2  UNL     1      21.169   2.044  52.424  1.00  0.00    -0.363 N 
HETATM   14  C11 UNL     1      22.386   2.742  52.390  1.00  0.00     0.230 C 
HETATM   15  O2  UNL     1      22.240   4.148  52.312  1.00  0.00    -0.337 OA
HETATM   16  C12 UNL     1      23.492   4.654  52.656  1.00  0.00     0.441 C 
HETATM   17  N3  UNL     1      24.456   3.640  52.949  1.00  0.00     0.121 N 
HETATM   18  C13 UNL     1      24.669   2.729  51.795  1.00  0.00     0.199 A 
HETATM   19  C14 UNL     1      25.596   1.663  52.053  1.00  0.00    -0.024 A 
HETATM   20  C15 UNL     1      25.594   0.555  52.780  1.00  0.00     0.041 C 
HETATM   21  C16 UNL     1      26.565   2.381  51.126  1.00  0.00     0.049 A 
HETATM   22  C17 UNL     1      25.575   3.424  50.819  1.00  0.00     0.056 A 
HETATM   23  C18 UNL     1      25.123   3.330  49.406  1.00  0.00    -0.023 C 
HETATM   24  C19 UNL     1      23.875   3.257  48.988  1.00  0.00    -0.030 C 
HETATM   25  C20 UNL     1      22.900   3.277  50.086  1.00  0.00     0.039 C 
HETATM   26  C21 UNL     1      23.331   2.422  51.267  1.00  0.00     0.082 C 
HETATM   27  H1  UNL     1      26.258  -2.469  53.875  1.00  0.00     0.163 HD
HETATM   28  H9  UNL     1      20.400   2.605  51.970  1.00  0.00     0.162 HD
HETATM   29  H13 UNL     1      25.363   4.091  53.119  1.00  0.00     0.320 HD
ENDROOT
TORSDOF 0
ENDMDL
MODEL 2
REMARK VINA RESULT:     -10.0      2.136      5.038
REMARK  0 active torsions:
REMARK  status: ('A' for Active; 'I' for Inactive)
ROOT
HETATM    1  O1  UNL     1      20.314   0.346  54.550  1.00  0.00    -0.268 OA
HETATM    2  C1  UNL     1      21.549   0.184  54.193  1.00  0.00     0.252 C 
HETATM    3  N1  UNL     1      22.414  -0.849  54.718  1.00  0.00    -0.353 N 
HETATM    4  C2  UNL     1      23.143  -1.112  53.427  1.00  0.00     0.159 C 
HETATM    5  C3  UNL     1      23.701   0.271  53.299  1.00  0.00    -0.037 C 
HETATM    6  C4  UNL     1      25.007   0.298  53.325  1.00  0.00     0.065 C 
HETATM    7  C5  UNL     1      26.276   0.997  53.289  1.00  0.00    -0.022 A 
HETATM    8  C6  UNL     1      26.977   0.292  54.285  1.00  0.00     0.010 A 
HETATM    9  C7  UNL     1      28.300   0.509  54.709  1.00  0.00     0.001 A 
HETATM   10  C8  UNL     1      28.875   1.542  54.014  1.00  0.00     0.002 A 
HETATM   11  C9  UNL     1      28.243   2.263  53.037  1.00  0.00     0.030 A 
HETATM   12  C10 UNL     1      26.958   2.004  52.670  1.00  0.00     0.037 A 
HETATM   13  N2  UNL     1      26.393   2.835  51.673  1.00  0.00    -0.363 N 
HETATM   14  C11 UNL     1      25.110   2.793  51.106  1.00  0.00     0.230 C 
HETATM   15  O2  UNL     1      25.040   3.351  49.806  1.00  0.00    -0.337 OA
HETATM   16  C12 UNL     1      23.829   2.894  49.290  1.00  0.00     0.441 C 
HETATM   17  N3  UNL     1      23.099   2.065  50.196  1.00  0.00     0.121 N 
HETATM   18  C13 UNL     1      22.778   2.777  51.460  1.00  0.00     0.199 A 
HETATM   19  C14 UNL     1      22.083   1.974  52.426  1.00  0.00    -0.024 A 
HETATM   20  C15 UNL     1      22.391   0.953  53.214  1.00  0.00     0.041 C 
HETATM   21  C16 UNL     1      20.852   2.816  52.131  1.00  0.00     0.049 A 
HETATM   22  C17 UNL     1      21.601   3.673  51.200  1.00  0.00     0.056 A 
HETATM   23  C18 UNL     1      21.756   5.047  51.748  1.00  0.00    -0.023 C 
HETATM   24  C19 UNL     1      22.887   5.709  51.885  1.00  0.00    -0.030 C 
HETATM   25  C20 UNL     1      24.058   4.948  51.429  1.00  0.00     0.039 C 
HETATM   26  C21 UNL     1      24.006   3.488  51.849  1.00  0.00     0.082 C 
HETATM   27  H1  UNL     1      22.398  -1.180  55.709  1.00  0.00     0.163 HD
HETATM   28  H9  UNL     1      26.964   3.617  51.258  1.00  0.00     0.162 HD
HETATM   29  H13 UNL     1      22.193   1.833  49.771  1.00  0.00     0.320 HD
ENDROOT
TORSDOF 0
ENDMDL
MODEL 3
REMARK VINA RESULT:      -9.5      2.291      3.377
REMARK  0 active torsions:
REMARK  status: ('A' for Active; 'I' for Inactive)
ROOT
HETATM    1  O1  UNL     1      24.730  -0.609  53.458  1.00  0.00    -0.268 OA
HETATM    2  C1  UNL     1      23.451  -0.597  53.666  1.00  0.00     0.252 C 
HETATM    3  N1  UNL     1      22.785  -1.408  54.661  1.00  0.00    -0.353 N 
HETATM    4  C2  UNL     1      21.760  -0.374  55.043  1.00  0.00     0.159 C 
HETATM    5  C3  UNL     1      21.140  -0.284  53.683  1.00  0.00    -0.037 C 
HETATM    6  C4  UNL     1      19.885  -0.643  53.671  1.00  0.00     0.065 C 
HETATM    7  C5  UNL     1      18.626  -0.880  52.994  1.00  0.00    -0.022 A 
HETATM    8  C6  UNL     1      18.227  -2.076  53.619  1.00  0.00     0.010 A 
HETATM    9  C7  UNL     1      17.050  -2.808  53.383  1.00  0.00     0.001 A 
HETATM   10  C8  UNL     1      16.281  -2.205  52.421  1.00  0.00     0.002 A 
HETATM   11  C9  UNL     1      16.618  -1.043  51.778  1.00  0.00     0.030 A 
HETATM   12  C10 UNL     1      17.773  -0.379  52.052  1.00  0.00     0.037 A 
HETATM   13  N2  UNL     1      18.036   0.792  51.303  1.00  0.00    -0.363 N 
HETATM   14  C11 UNL     1      19.131   1.666  51.377  1.00  0.00     0.230 C 
HETATM   15  O2  UNL     1      18.848   2.980  50.932  1.00  0.00    -0.337 OA
HETATM   16  C12 UNL     1      19.901   3.753  51.417  1.00  0.00     0.441 C 
HETATM   17  N3  UNL     1      20.867   3.002  52.155  1.00  0.00     0.121 N 
HETATM   18  C13 UNL     1      21.476   1.925  51.333  1.00  0.00     0.199 A 
HETATM   19  C14 UNL     1      22.422   1.109  52.042  1.00  0.00    -0.024 A 
HETATM   20  C15 UNL     1      22.361   0.190  52.995  1.00  0.00     0.041 C 
HETATM   21  C16 UNL     1      23.507   1.778  51.212  1.00  0.00     0.049 A 
HETATM   22  C17 UNL     1      22.516   2.550  50.448  1.00  0.00     0.056 A 
HETATM   23  C18 UNL     1      22.459   2.093  49.035  1.00  0.00    -0.023 C 
HETATM   24  C19 UNL     1      21.378   1.722  48.377  1.00  0.00    -0.030 C 
HETATM   25  C20 UNL     1      20.157   1.798  49.189  1.00  0.00     0.039 C 
HETATM   26  C21 UNL     1      20.365   1.291  50.607  1.00  0.00     0.082 C 
HETATM   27  H1  UNL     1      23.066  -2.385  54.906  1.00  0.00     0.163 HD
HETATM   28  H9  UNL     1      17.351   1.107  50.566  1.00  0.00     0.162 HD
HETATM   29  H13 UNL     1      21.641   3.627  52.412  1.00  0.00     0.320 HD
ENDROOT
TORSDOF 0
ENDMDL
MODEL 4
REMARK VINA RESULT:      -9.4      1.864      2.591
REMARK  0 active torsions:
REMARK  status: ('A' for Active; 'I' for Inactive)
ROOT
HETATM    1  O1  UNL     1      27.167   2.790  50.611  1.00  0.00    -0.268 OA
HETATM    2  C1  UNL     1      26.239   2.448  51.449  1.00  0.00     0.252 C 
HETATM    3  N1  UNL     1      26.489   1.768  52.701  1.00  0.00    -0.353 N 
HETATM    4  C2  UNL     1      25.417   2.482  53.481  1.00  0.00     0.159 C 
HETATM    5  C3  UNL     1      24.282   1.998  52.635  1.00  0.00    -0.037 C 
HETATM    6  C4  UNL     1      23.428   1.266  53.299  1.00  0.00     0.065 C 
HETATM    7  C5  UNL     1      22.224   0.465  53.388  1.00  0.00    -0.022 A 
HETATM    8  C6  UNL     1      22.679  -0.579  54.215  1.00  0.00     0.010 A 
HETATM    9  C7  UNL     1      21.942  -1.684  54.674  1.00  0.00     0.001 A 
HETATM   10  C8  UNL     1      20.653  -1.642  54.207  1.00  0.00     0.002 A 
HETATM   11  C9  UNL     1      20.154  -0.654  53.401  1.00  0.00     0.030 A 
HETATM   12  C10 UNL     1      20.920   0.392  52.989  1.00  0.00     0.037 A 
HETATM   13  N2  UNL     1      20.311   1.337  52.130  1.00  0.00    -0.363 N 
HETATM   14  C11 UNL     1      20.854   2.501  51.564  1.00  0.00     0.230 C 
HETATM   15  O2  UNL     1      19.887   3.483  51.235  1.00  0.00    -0.337 OA
HETATM   16  C12 UNL     1      20.621   4.653  51.048  1.00  0.00     0.441 C 
HETATM   17  N3  UNL     1      22.028   4.480  51.233  1.00  0.00     0.121 N 
HETATM   18  C13 UNL     1      22.589   3.474  50.296  1.00  0.00     0.199 A 
HETATM   19  C14 UNL     1      23.993   3.228  50.471  1.00  0.00    -0.024 A 
HETATM   20  C15 UNL     1      24.749   2.632  51.382  1.00  0.00     0.041 C 
HETATM   21  C16 UNL     1      24.209   3.958  49.154  1.00  0.00     0.049 A 
HETATM   22  C17 UNL     1      22.763   4.135  48.959  1.00  0.00     0.056 A 
HETATM   23  C18 UNL     1      22.276   3.318  47.815  1.00  0.00    -0.023 C 
HETATM   24  C19 UNL     1      21.278   2.458  47.839  1.00  0.00    -0.030 C 
HETATM   25  C20 UNL     1      20.638   2.357  49.157  1.00  0.00     0.039 C 
HETATM   26  C21 UNL     1      21.645   2.346  50.296  1.00  0.00     0.082 C 
HETATM   27  H1  UNL     1      27.224   1.037  52.835  1.00  0.00     0.163 HD
HETATM   28  H9  UNL     1      19.309   1.205  51.832  1.00  0.00     0.162 HD
HETATM   29  H13 UNL     1      22.499   5.364  51.007  1.00  0.00     0.320 HD
ENDROOT
TORSDOF 0
ENDMDL
MODEL 5
REMARK VINA RESULT:      -9.0      2.083      5.253
REMARK  0 active torsions:
REMARK  status: ('A' for Active; 'I' for Inactive)
ROOT
HETATM    1  O1  UNL     1      27.027   0.800  53.497  1.00  0.00    -0.268 OA
HETATM    2  C1  UNL     1      26.473   1.664  52.705  1.00  0.00     0.252 C 
HETATM    3  N1  UNL     1      27.177   2.772  52.097  1.00  0.00    -0.353 N 
HETATM    4  C2  UNL     1      26.441   2.721  50.784  1.00  0.00     0.159 C 
HETATM    5  C3  UNL     1      25.090   2.987  51.373  1.00  0.00    -0.037 C 
HETATM    6  C4  UNL     1      24.553   4.095  50.937  1.00  0.00     0.065 C 
HETATM    7  C5  UNL     1      23.486   5.074  50.898  1.00  0.00    -0.022 A 
HETATM    8  C6  UNL     1      24.237   6.263  50.879  1.00  0.00     0.010 A 
HETATM    9  C7  UNL     1      23.746   7.579  50.831  1.00  0.00     0.001 A 
HETATM   10  C8  UNL     1      22.375   7.591  50.802  1.00  0.00     0.002 A 
HETATM   11  C9  UNL     1      21.592   6.468  50.820  1.00  0.00     0.030 A 
HETATM   12  C10 UNL     1      22.128   5.218  50.867  1.00  0.00     0.037 A 
HETATM   13  N2  UNL     1      21.224   4.131  50.916  1.00  0.00    -0.363 N 
HETATM   14  C11 UNL     1      21.494   2.754  50.963  1.00  0.00     0.230 C 
HETATM   15  O2  UNL     1      20.447   1.947  50.453  1.00  0.00    -0.337 OA
HETATM   16  C12 UNL     1      21.032   0.700  50.246  1.00  0.00     0.441 C 
HETATM   17  N3  UNL     1      22.414   0.650  50.605  1.00  0.00     0.121 N 
HETATM   18  C13 UNL     1      22.627   0.985  52.036  1.00  0.00     0.199 A 
HETATM   19  C14 UNL     1      24.005   0.995  52.438  1.00  0.00    -0.024 A 
HETATM   20  C15 UNL     1      25.055   1.774  52.219  1.00  0.00     0.041 C 
HETATM   21  C16 UNL     1      23.711  -0.279  53.214  1.00  0.00     0.049 A 
HETATM   22  C17 UNL     1      22.287  -0.230  52.851  1.00  0.00     0.056 A 
HETATM   23  C18 UNL     1      21.443   0.058  54.040  1.00  0.00    -0.023 C 
HETATM   24  C19 UNL     1      20.545   1.017  54.146  1.00  0.00    -0.030 C 
HETATM   25  C20 UNL     1      20.428   1.831  52.930  1.00  0.00     0.039 C 
HETATM   26  C21 UNL     1      21.777   2.155  52.311  1.00  0.00     0.082 C 
HETATM   27  H1  UNL     1      27.931   3.319  52.571  1.00  0.00     0.163 HD
HETATM   28  H9  UNL     1      20.186   4.313  50.922  1.00  0.00     0.162 HD
HETATM   29  H13 UNL     1      22.747  -0.315  50.493  1.00  0.00     0.320 HD
ENDROOT
TORSDOF 0
ENDMDL
MODEL 6
REMARK VINA RESULT:      -8.7      2.503      5.866
REMARK  0 active torsions:
REMARK  status: ('A' for Active; 'I' for Inactive)
ROOT
HETATM    1  O1  UNL     1      25.704   1.455  54.181  1.00  0.00    -0.268 OA
HETATM    2  C1  UNL     1      25.762   1.993  53.004  1.00  0.00     0.252 C 
HETATM    3  N1  UNL     1      26.973   2.517  52.412  1.00  0.00    -0.353 N 
HETATM    4  C2  UNL     1      26.660   2.080  51.006  1.00  0.00     0.159 C 
HETATM    5  C3  UNL     1      25.411   2.895  50.882  1.00  0.00    -0.037 C 
HETATM    6  C4  UNL     1      25.481   3.796  49.939  1.00  0.00     0.065 C 
HETATM    7  C5  UNL     1      24.925   4.887  49.165  1.00  0.00    -0.022 A 
HETATM    8  C6  UNL     1      26.051   5.727  49.072  1.00  0.00     0.010 A 
HETATM    9  C7  UNL     1      26.136   6.966  48.413  1.00  0.00     0.001 A 
HETATM   10  C8  UNL     1      24.938   7.297  47.833  1.00  0.00     0.002 A 
HETATM   11  C9  UNL     1      23.811   6.522  47.891  1.00  0.00     0.030 A 
HETATM   12  C10 UNL     1      23.791   5.329  48.546  1.00  0.00     0.037 A 
HETATM   13  N2  UNL     1      22.563   4.628  48.569  1.00  0.00    -0.363 N 
HETATM   14  C11 UNL     1      22.259   3.390  49.157  1.00  0.00     0.230 C 
HETATM   15  O2  UNL     1      21.164   2.723  48.555  1.00  0.00    -0.337 OA
HETATM   16  C12 UNL     1      21.257   1.409  49.011  1.00  0.00     0.441 C 
HETATM   17  N3  UNL     1      22.360   1.186  49.890  1.00  0.00     0.121 N 
HETATM   18  C13 UNL     1      22.288   2.049  51.098  1.00  0.00     0.199 A 
HETATM   19  C14 UNL     1      23.399   1.897  51.994  1.00  0.00    -0.024 A 
HETATM   20  C15 UNL     1      24.684   2.221  51.981  1.00  0.00     0.041 C 
HETATM   21  C16 UNL     1      22.440   1.203  52.948  1.00  0.00     0.049 A 
HETATM   22  C17 UNL     1      21.301   1.433  52.047  1.00  0.00     0.056 A 
HETATM   23  C18 UNL     1      20.343   2.406  52.637  1.00  0.00    -0.023 C 
HETATM   24  C19 UNL     1      19.890   3.501  52.061  1.00  0.00    -0.030 C 
HETATM   25  C20 UNL     1      20.430   3.706  50.710  1.00  0.00     0.039 C 
HETATM   26  C21 UNL     1      21.913   3.388  50.619  1.00  0.00     0.082 C 
HETATM   27  H1  UNL     1      27.720   3.015  52.948  1.00  0.00     0.163 HD
HETATM   28  H9  UNL     1      21.715   5.040  48.099  1.00  0.00     0.162 HD
HETATM   29  H13 UNL     1      22.314   0.220  50.236  1.00  0.00     0.320 HD
ENDROOT
TORSDOF 0
ENDMDL
MODEL 7
REMARK VINA RESULT:      -8.3      1.793      4.597
REMARK  0 active torsions:
REMARK  status: ('A' for Active; 'I' for Inactive)
ROOT
HETATM    1  O1  UNL     1      25.461   4.880  50.299  1.00  0.00    -0.268 OA
HETATM    2  C1  UNL     1      24.714   3.854  50.559  1.00  0.00     0.252 C 
HETATM    3  N1  UNL     1      23.318   3.754  50.193  1.00  0.00    -0.353 N 
HETATM    4  C2  UNL     1      23.347   2.284  49.870  1.00  0.00     0.159 C 
HETATM    5  C3  UNL     1      23.743   1.847  51.246  1.00  0.00    -0.037 C 
HETATM    6  C4  UNL     1      22.849   1.085  51.816  1.00  0.00     0.065 C 
HETATM    7  C5  UNL     1      22.358   0.296  52.927  1.00  0.00    -0.022 A 
HETATM    8  C6  UNL     1      21.002   0.671  52.921  1.00  0.00     0.010 A 
HETATM    9  C7  UNL     1      19.989   0.217  53.784  1.00  0.00     0.001 A 
HETATM   10  C8  UNL     1      20.485  -0.684  54.691  1.00  0.00     0.002 A 
HETATM   11  C9  UNL     1      21.793  -1.086  54.746  1.00  0.00     0.030 A 
HETATM   12  C10 UNL     1      22.728  -0.609  53.881  1.00  0.00     0.037 A 
HETATM   13  N2  UNL     1      24.056  -1.067  54.051  1.00  0.00    -0.363 N 
HETATM   14  C11 UNL     1      25.206  -0.752  53.310  1.00  0.00     0.230 C 
HETATM   15  O2  UNL     1      26.210  -1.749  53.357  1.00  0.00    -0.337 OA
HETATM   16  C12 UNL     1      27.069  -1.436  52.306  1.00  0.00     0.441 C 
HETATM   17  N3  UNL     1      26.677  -0.273  51.575  1.00  0.00     0.121 N 
HETATM   18  C13 UNL     1      26.614   0.931  52.443  1.00  0.00     0.199 A 
HETATM   19  C14 UNL     1      26.179   2.120  51.767  1.00  0.00    -0.024 A 
HETATM   20  C15 UNL     1      25.037   2.566  51.263  1.00  0.00     0.041 C 
HETATM   21  C16 UNL     1      27.609   2.623  51.889  1.00  0.00     0.049 A 
HETATM   22  C17 UNL     1      28.016   1.429  52.644  1.00  0.00     0.056 A 
HETATM   23  C18 UNL     1      28.337   1.775  54.054  1.00  0.00    -0.023 C 
HETATM   24  C19 UNL     1      27.833   1.206  55.132  1.00  0.00    -0.030 C 
HETATM   25  C20 UNL     1      26.873   0.139  54.822  1.00  0.00     0.039 C 
HETATM   26  C21 UNL     1      25.939   0.506  53.679  1.00  0.00     0.082 C 
HETATM   27  H1  UNL     1      22.649   4.557  50.210  1.00  0.00     0.163 HD
HETATM   28  H9  UNL     1      24.282  -1.741  54.829  1.00  0.00     0.162 HD
HETATM   29  H13 UNL     1      27.396  -0.070  50.871  1.00  0.00     0.320 HD
ENDROOT
TORSDOF 0
ENDMDL
MODEL 8
REMARK VINA RESULT:      -8.2     10.134     12.593
REMARK  0 active torsions:
REMARK  status: ('A' for Active; 'I' for Inactive)
ROOT
HETATM    1  O1  UNL     1      34.127   2.903  47.744  1.00  0.00    -0.268 OA
HETATM    2  C1  UNL     1      33.430   3.995  47.726  1.00  0.00     0.252 C 
HETATM    3  N1  UNL     1      32.598   4.444  48.821  1.00  0.00    -0.353 N 
HETATM    4  C2  UNL     1      32.889   5.911  48.645  1.00  0.00     0.159 C 
HETATM    5  C3  UNL     1      32.330   5.998  47.259  1.00  0.00    -0.037 C 
HETATM    6  C4  UNL     1      31.312   6.811  47.171  1.00  0.00     0.065 C 
HETATM    7  C5  UNL     1      30.256   7.467  46.426  1.00  0.00    -0.022 A 
HETATM    8  C6  UNL     1      29.205   7.386  47.358  1.00  0.00     0.010 A 
HETATM    9  C7  UNL     1      27.895   7.873  47.207  1.00  0.00     0.001 A 
HETATM   10  C8  UNL     1      27.731   8.472  45.984  1.00  0.00     0.002 A 
HETATM   11  C9  UNL     1      28.715   8.579  45.038  1.00  0.00     0.030 A 
HETATM   12  C10 UNL     1      29.967   8.087  45.244  1.00  0.00     0.037 A 
HETATM   13  N2  UNL     1      30.895   8.224  44.185  1.00  0.00    -0.363 N 
HETATM   14  C11 UNL     1      32.238   7.820  44.124  1.00  0.00     0.230 C 
HETATM   15  O2  UNL     1      33.020   8.564  43.207  1.00  0.00    -0.337 OA
HETATM   16  C12 UNL     1      34.339   8.279  43.553  1.00  0.00     0.441 C 
HETATM   17  N3  UNL     1      34.458   7.375  44.653  1.00  0.00     0.121 N 
HETATM   18  C13 UNL     1      33.802   6.072  44.371  1.00  0.00     0.199 A 
HETATM   19  C14 UNL     1      33.852   5.141  45.463  1.00  0.00    -0.024 A 
HETATM   20  C15 UNL     1      33.281   5.039  46.654  1.00  0.00     0.041 C 
HETATM   21  C16 UNL     1      34.850   4.341  44.639  1.00  0.00     0.049 A 
HETATM   22  C17 UNL     1      34.728   5.268  43.503  1.00  0.00     0.056 A 
HETATM   23  C18 UNL     1      34.056   4.612  42.350  1.00  0.00    -0.023 C 
HETATM   24  C19 UNL     1      33.003   5.066  41.699  1.00  0.00    -0.030 C 
HETATM   25  C20 UNL     1      32.511   6.345  42.225  1.00  0.00     0.039 C 
HETATM   26  C21 UNL     1      32.511   6.393  43.744  1.00  0.00     0.082 C 
HETATM   27  H1  UNL     1      32.041   3.807  49.434  1.00  0.00     0.163 HD
HETATM   28  H9  UNL     1      30.599   8.684  43.285  1.00  0.00     0.162 HD
HETATM   29  H13 UNL     1      35.452   7.161  44.796  1.00  0.00     0.320 HD
ENDROOT
TORSDOF 0
ENDMDL
MODEL 9
REMARK VINA RESULT:      -8.1      8.268     10.786
REMARK  0 active torsions:
REMARK  status: ('A' for Active; 'I' for Inactive)
ROOT
HETATM    1  O1  UNL     1      33.628   4.329  44.802  1.00  0.00    -0.268 OA
HETATM    2  C1  UNL     1      32.789   4.573  45.758  1.00  0.00     0.252 C 
HETATM    3  N1  UNL     1      32.247   3.560  46.638  1.00  0.00    -0.353 N 
HETATM    4  C2  UNL     1      32.234   4.418  47.874  1.00  0.00     0.159 C 
HETATM    5  C3  UNL     1      31.293   5.443  47.322  1.00  0.00    -0.037 C 
HETATM    6  C4  UNL     1      30.175   5.522  47.992  1.00  0.00     0.065 C 
HETATM    7  C5  UNL     1      28.858   6.079  48.228  1.00  0.00    -0.022 A 
HETATM    8  C6  UNL     1      28.147   4.910  48.556  1.00  0.00     0.010 A 
HETATM    9  C7  UNL     1      26.789   4.809  48.903  1.00  0.00     0.001 A 
HETATM   10  C8  UNL     1      26.185   6.041  48.887  1.00  0.00     0.002 A 
HETATM   11  C9  UNL     1      26.825   7.211  48.575  1.00  0.00     0.030 A 
HETATM   12  C10 UNL     1      28.145   7.243  48.247  1.00  0.00     0.037 A 
HETATM   13  N2  UNL     1      28.694   8.503  47.910  1.00  0.00    -0.363 N 
HETATM   14  C11 UNL     1      30.009   8.828  47.543  1.00  0.00     0.230 C 
HETATM   15  O2  UNL     1      30.363  10.174  47.810  1.00  0.00    -0.337 OA
HETATM   16  C12 UNL     1      31.754  10.196  47.731  1.00  0.00     0.441 C 
HETATM   17  N3  UNL     1      32.329   8.926  47.418  1.00  0.00     0.121 N 
HETATM   18  C13 UNL     1      31.839   8.403  46.116  1.00  0.00     0.199 A 
HETATM   19  C14 UNL     1      32.351   7.106  45.775  1.00  0.00    -0.024 A 
HETATM   20  C15 UNL     1      32.171   5.867  46.209  1.00  0.00     0.041 C 
HETATM   21  C16 UNL     1      33.184   7.798  44.707  1.00  0.00     0.049 A 
HETATM   22  C17 UNL     1      32.593   9.107  45.024  1.00  0.00     0.056 A 
HETATM   23  C18 UNL     1      31.733   9.586  43.910  1.00  0.00    -0.023 C 
HETATM   24  C19 UNL     1      30.478   9.980  44.007  1.00  0.00    -0.030 C 
HETATM   25  C20 UNL     1      29.958   9.908  45.378  1.00  0.00     0.039 C 
HETATM   26  C21 UNL     1      30.388   8.643  46.102  1.00  0.00     0.082 C 
HETATM   27  H1  UNL     1      32.000   2.590  46.334  1.00  0.00     0.163 HD
HETATM   28  H9  UNL     1      28.081   9.359  47.913  1.00  0.00     0.162 HD
HETATM   29  H13 UNL     1      33.343   9.044  47.307  1.00  0.00     0.320 HD
ENDROOT
TORSDOF 0
ENDMDL
