MODEL 1
REMARK VINA RESULT:      -7.2      0.000      0.000
REMARK  5 active torsions:
REMARK  status: ('A' for Active; 'I' for Inactive)
REMARK    1  A    between atoms: O1_2  and  N1_3 
REMARK    2  A    between atoms: C3_5  and  C4_6 
REMARK    3  A    between atoms: C4_6  and  C5_7 
REMARK    4  A    between atoms: C7_10  and  C8_11 
REMARK    5  A    between atoms: C8_11  and  C9_12 
ROOT
HETATM    1  C5  UNL     1      22.671  -0.554  53.015  1.00  0.00     0.124 C 
HETATM    2  C6  UNL     1      22.461  -1.208  54.331  1.00  0.00     0.059 C 
HETATM    3  N2  UNL     1      22.288  -1.718  55.363  1.00  0.00    -0.197 NA
ENDROOT
BRANCH   1   4
HETATM    4  C4  UNL     1      22.143   0.833  53.153  1.00  0.00     0.020 C 
BRANCH   4   5
HETATM    5  C3  UNL     1      22.720   1.808  52.179  1.00  0.00     0.007 C 
HETATM    6  C2  UNL     1      22.202   1.673  50.791  1.00  0.00     0.125 C 
HETATM    7  N1  UNL     1      23.148   2.423  49.997  1.00  0.00    -0.197 NA
HETATM    8  C15 UNL     1      24.370   2.566  50.769  1.00  0.00     0.125 C 
HETATM    9  C7  UNL     1      24.222   1.587  51.928  1.00  0.00     0.007 C 
BRANCH   7  10
HETATM   10  O1  UNL     1      22.611   3.628  49.672  1.00  0.00    -0.308 OA
HETATM   11  C1  UNL     1      23.617   4.351  49.025  1.00  0.00     0.229 C 
ENDBRANCH   7  10
BRANCH   9  12
HETATM   12  C8  UNL     1      24.920   2.000  53.168  1.00  0.00     0.018 C 
BRANCH  12  13
HETATM   13  C9  UNL     1      26.255   1.415  53.434  1.00  0.00     0.034 C 
HETATM   14  C10 UNL     1      26.449   0.091  52.781  1.00  0.00     0.001 C 
HETATM   15  C11 UNL     1      27.244  -0.959  52.820  1.00  0.00     0.114 C 
HETATM   16  N3  UNL     1      28.393  -1.209  53.660  1.00  0.00    -0.256 NA
HETATM   17  C12 UNL     1      29.302  -0.394  54.144  1.00  0.00     0.206 C 
HETATM   18  N4  UNL     1      29.519   1.031  54.039  1.00  0.00    -0.361 N 
HETATM   19  C13 UNL     1      28.683   2.064  53.469  1.00  0.00     0.085 C 
HETATM   20  H18 UNL     1      30.425   1.351  54.444  1.00  0.00     0.166 HD
HETATM   21  C14 UNL     1      27.409   2.301  53.193  1.00  0.00    -0.001 C 
ENDBRANCH  12  13
ENDBRANCH   9  12
ENDBRANCH   4   5
ENDBRANCH   1   4
TORSDOF 5
ENDMDL
MODEL 2
REMARK VINA RESULT:      -7.1      1.177      1.928
REMARK  5 active torsions:
REMARK  status: ('A' for Active; 'I' for Inactive)
REMARK    1  A    between atoms: O1_2  and  N1_3 
REMARK    2  A    between atoms: C3_5  and  C4_6 
REMARK    3  A    between atoms: C4_6  and  C5_7 
REMARK    4  A    between atoms: C7_10  and  C8_11 
REMARK    5  A    between atoms: C8_11  and  C9_12 
ROOT
HETATM    1  C5  UNL     1      21.616   0.237  53.617  1.00  0.00     0.124 C 
HETATM    2  C6  UNL     1      21.987  -0.809  54.603  1.00  0.00     0.059 C 
HETATM    3  N2  UNL     1      22.286  -1.627  55.376  1.00  0.00    -0.197 NA
ENDROOT
BRANCH   1   4
HETATM    4  C4  UNL     1      22.637   0.166  52.533  1.00  0.00     0.020 C 
BRANCH   4   5
HETATM    5  C3  UNL     1      23.140   1.496  52.077  1.00  0.00     0.007 C 
HETATM    6  C2  UNL     1      22.595   1.946  50.769  1.00  0.00     0.125 C 
HETATM    7  N1  UNL     1      23.482   3.018  50.377  1.00  0.00    -0.197 NA
HETATM    8  C15 UNL     1      24.714   2.880  51.133  1.00  0.00     0.125 C 
HETATM    9  C7  UNL     1      24.645   1.489  51.753  1.00  0.00     0.007 C 
BRANCH   7  10
HETATM   10  O1  UNL     1      22.878   4.213  50.607  1.00  0.00    -0.308 OA
HETATM   11  C1  UNL     1      23.886   5.101  50.991  1.00  0.00     0.229 C 
ENDBRANCH   7  10
BRANCH   9  12
HETATM   12  C8  UNL     1      25.352   1.363  53.048  1.00  0.00     0.018 C 
BRANCH  12  13
HETATM   13  C9  UNL     1      26.480   0.404  53.126  1.00  0.00     0.034 C 
HETATM   14  C10 UNL     1      27.313   0.588  54.346  1.00  0.00     0.001 C 
HETATM   15  C11 UNL     1      28.486   0.249  54.840  1.00  0.00     0.114 C 
HETATM   16  N3  UNL     1      29.533  -0.555  54.251  1.00  0.00    -0.256 NA
HETATM   17  C12 UNL     1      29.475  -1.592  53.447  1.00  0.00     0.206 C 
HETATM   18  N4  UNL     1      28.385  -2.326  52.846  1.00  0.00    -0.361 N 
HETATM   19  C13 UNL     1      26.968  -2.043  52.823  1.00  0.00     0.085 C 
HETATM   20  H18 UNL     1      28.682  -3.196  52.353  1.00  0.00     0.166 HD
HETATM   21  C14 UNL     1      26.136  -1.016  52.924  1.00  0.00    -0.001 C 
ENDBRANCH  12  13
ENDBRANCH   9  12
ENDBRANCH   4   5
ENDBRANCH   1   4
TORSDOF 5
ENDMDL
MODEL 3
REMARK VINA RESULT:      -7.1      2.235      4.122
REMARK  5 active torsions:
REMARK  status: ('A' for Active; 'I' for Inactive)
REMARK    1  A    between atoms: O1_2  and  N1_3 
REMARK    2  A    between atoms: C3_5  and  C4_6 
REMARK    3  A    between atoms: C4_6  and  C5_7 
REMARK    4  A    between atoms: C7_10  and  C8_11 
REMARK    5  A    between atoms: C8_11  and  C9_12 
ROOT
HETATM    1  C5  UNL     1      25.523   4.718  49.431  1.00  0.00     0.124 C 
HETATM    2  C6  UNL     1      26.945   4.684  49.004  1.00  0.00     0.059 C 
HETATM    3  N2  UNL     1      28.057   4.653  48.663  1.00  0.00    -0.197 NA
ENDROOT
BRANCH   1   4
HETATM    4  C4  UNL     1      25.076   3.297  49.492  1.00  0.00     0.020 C 
BRANCH   4   5
HETATM    5  C3  UNL     1      23.891   3.065  50.372  1.00  0.00     0.007 C 
HETATM    6  C2  UNL     1      23.050   4.269  50.604  1.00  0.00     0.125 C 
HETATM    7  N1  UNL     1      22.233   3.905  51.739  1.00  0.00    -0.197 NA
HETATM    8  C15 UNL     1      22.877   2.793  52.417  1.00  0.00     0.125 C 
HETATM    9  C7  UNL     1      24.279   2.725  51.823  1.00  0.00     0.007 C 
BRANCH   7  10
HETATM   10  O1  UNL     1      20.983   3.583  51.314  1.00  0.00    -0.308 OA
HETATM   11  C1  UNL     1      20.421   2.774  52.305  1.00  0.00     0.229 C 
ENDBRANCH   7  10
BRANCH   9  12
HETATM   12  C8  UNL     1      24.863   1.364  51.793  1.00  0.00     0.018 C 
BRANCH  12  13
HETATM   13  C9  UNL     1      26.067   1.114  52.620  1.00  0.00     0.034 C 
HETATM   14  C10 UNL     1      26.727  -0.183  52.304  1.00  0.00     0.001 C 
HETATM   15  C11 UNL     1      27.613  -1.023  52.799  1.00  0.00     0.114 C 
HETATM   16  N3  UNL     1      28.365  -0.944  54.030  1.00  0.00    -0.256 NA
HETATM   17  C12 UNL     1      28.856   0.089  54.677  1.00  0.00     0.206 C 
HETATM   18  N4  UNL     1      28.845   1.512  54.433  1.00  0.00    -0.361 N 
HETATM   19  C13 UNL     1      28.134   2.285  53.439  1.00  0.00     0.085 C 
HETATM   20  H18 UNL     1      29.449   2.057  55.085  1.00  0.00     0.166 HD
HETATM   21  C14 UNL     1      27.050   2.212  52.681  1.00  0.00    -0.001 C 
ENDBRANCH  12  13
ENDBRANCH   9  12
ENDBRANCH   4   5
ENDBRANCH   1   4
TORSDOF 5
ENDMDL
MODEL 4
REMARK VINA RESULT:      -7.0      2.651      6.680
REMARK  5 active torsions:
REMARK  status: ('A' for Active; 'I' for Inactive)
REMARK    1  A    between atoms: O1_2  and  N1_3 
REMARK    2  A    between atoms: C3_5  and  C4_6 
REMARK    3  A    between atoms: C4_6  and  C5_7 
REMARK    4  A    between atoms: C7_10  and  C8_11 
REMARK    5  A    between atoms: C8_11  and  C9_12 
ROOT
HETATM    1  C5  UNL     1      26.004   2.791  51.109  1.00  0.00     0.124 C 
HETATM    2  C6  UNL     1      24.687   3.234  50.585  1.00  0.00     0.059 C 
HETATM    3  N2  UNL     1      23.650   3.577  50.180  1.00  0.00    -0.197 NA
ENDROOT
BRANCH   1   4
HETATM    4  C4  UNL     1      25.924   1.307  51.227  1.00  0.00     0.020 C 
BRANCH   4   5
HETATM    5  C3  UNL     1      26.186   0.787  52.602  1.00  0.00     0.007 C 
HETATM    6  C2  UNL     1      27.260  -0.238  52.681  1.00  0.00     0.125 C 
HETATM    7  N1  UNL     1      27.067  -0.839  53.981  1.00  0.00    -0.197 NA
HETATM    8  C15 UNL     1      25.713  -0.544  54.416  1.00  0.00     0.125 C 
HETATM    9  C7  UNL     1      25.004  -0.017  53.173  1.00  0.00     0.007 C 
BRANCH   7  10
HETATM   10  O1  UNL     1      27.994  -0.353  54.848  1.00  0.00    -0.308 OA
HETATM   11  C1  UNL     1      29.231  -0.458  54.207  1.00  0.00     0.229 C 
ENDBRANCH   7  10
BRANCH   9  12
HETATM   12  C8  UNL     1      23.927   0.960  53.454  1.00  0.00     0.018 C 
BRANCH  12  13
HETATM   13  C9  UNL     1      22.526   0.497  53.326  1.00  0.00     0.034 C 
HETATM   14  C10 UNL     1      22.069   0.416  51.912  1.00  0.00     0.001 C 
HETATM   15  C11 UNL     1      20.964   0.314  51.201  1.00  0.00     0.114 C 
HETATM   16  N3  UNL     1      19.591   0.235  51.645  1.00  0.00    -0.256 NA
HETATM   17  C12 UNL     1      19.059  -0.320  52.710  1.00  0.00     0.206 C 
HETATM   18  N4  UNL     1      19.607  -1.049  53.831  1.00  0.00    -0.361 N 
HETATM   19  C13 UNL     1      20.981  -1.275  54.218  1.00  0.00     0.085 C 
HETATM   20  H18 UNL     1      18.885  -1.474  54.451  1.00  0.00     0.166 HD
HETATM   21  C14 UNL     1      22.180  -0.730  54.069  1.00  0.00    -0.001 C 
ENDBRANCH  12  13
ENDBRANCH   9  12
ENDBRANCH   4   5
ENDBRANCH   1   4
TORSDOF 5
ENDMDL
MODEL 5
REMARK VINA RESULT:      -7.0      2.731      5.703
REMARK  5 active torsions:
REMARK  status: ('A' for Active; 'I' for Inactive)
REMARK    1  A    between atoms: O1_2  and  N1_3 
REMARK    2  A    between atoms: C3_5  and  C4_6 
REMARK    3  A    between atoms: C4_6  and  C5_7 
REMARK    4  A    between atoms: C7_10  and  C8_11 
REMARK    5  A    between atoms: C8_11  and  C9_12 
ROOT
HETATM    1  C5  UNL     1      23.523  -0.706  53.161  1.00  0.00     0.124 C 
HETATM    2  C6  UNL     1      22.567  -1.010  54.255  1.00  0.00     0.059 C 
HETATM    3  N2  UNL     1      21.814  -1.241  55.113  1.00  0.00    -0.197 NA
ENDROOT
BRANCH   1   4
HETATM    4  C4  UNL     1      24.289   0.494  53.602  1.00  0.00     0.020 C 
BRANCH   4   5
HETATM    5  C3  UNL     1      25.772   0.342  53.515  1.00  0.00     0.007 C 
HETATM    6  C2  UNL     1      26.465   0.282  54.829  1.00  0.00     0.125 C 
HETATM    7  N1  UNL     1      27.852   0.516  54.497  1.00  0.00    -0.197 NA
HETATM    8  C15 UNL     1      27.901   1.145  53.189  1.00  0.00     0.125 C 
HETATM    9  C7  UNL     1      26.466   1.571  52.901  1.00  0.00     0.007 C 
BRANCH   7  10
HETATM   10  O1  UNL     1      28.529  -0.662  54.518  1.00  0.00    -0.308 OA
HETATM   11  C1  UNL     1      29.657  -0.488  53.713  1.00  0.00     0.229 C 
ENDBRANCH   7  10
BRANCH   9  12
HETATM   12  C8  UNL     1      26.110   1.579  51.463  1.00  0.00     0.018 C 
BRANCH  12  13
HETATM   13  C9  UNL     1      25.644   2.857  50.876  1.00  0.00     0.034 C 
HETATM   14  C10 UNL     1      26.550   3.372  49.813  1.00  0.00     0.001 C 
HETATM   15  C11 UNL     1      26.804   4.471  49.133  1.00  0.00     0.114 C 
HETATM   16  N3  UNL     1      26.171   5.768  49.215  1.00  0.00    -0.256 NA
HETATM   17  C12 UNL     1      24.926   6.106  49.465  1.00  0.00     0.206 C 
HETATM   18  N4  UNL     1      23.728   5.352  49.749  1.00  0.00    -0.361 N 
HETATM   19  C13 UNL     1      23.550   3.940  50.003  1.00  0.00     0.085 C 
HETATM   20  H18 UNL     1      22.860   5.930  49.772  1.00  0.00     0.166 HD
HETATM   21  C14 UNL     1      24.235   2.893  50.439  1.00  0.00    -0.001 C 
ENDBRANCH  12  13
ENDBRANCH   9  12
ENDBRANCH   4   5
ENDBRANCH   1   4
TORSDOF 5
ENDMDL
MODEL 6
REMARK VINA RESULT:      -7.0      2.853      5.879
REMARK  5 active torsions:
REMARK  status: ('A' for Active; 'I' for Inactive)
REMARK    1  A    between atoms: O1_2  and  N1_3 
REMARK    2  A    between atoms: C3_5  and  C4_6 
REMARK    3  A    between atoms: C4_6  and  C5_7 
REMARK    4  A    between atoms: C7_10  and  C8_11 
REMARK    5  A    between atoms: C8_11  and  C9_12 
ROOT
HETATM    1  C5  UNL     1      22.074  -0.565  54.459  1.00  0.00     0.124 C 
HETATM    2  C6  UNL     1      20.697  -0.536  53.906  1.00  0.00     0.059 C 
HETATM    3  N2  UNL     1      19.618  -0.521  53.469  1.00  0.00    -0.197 NA
ENDROOT
BRANCH   1   4
HETATM    4  C4  UNL     1      22.963  -0.971  53.334  1.00  0.00     0.020 C 
BRANCH   4   5
HETATM    5  C3  UNL     1      24.380  -0.521  53.480  1.00  0.00     0.007 C 
HETATM    6  C2  UNL     1      24.987  -0.815  54.805  1.00  0.00     0.125 C 
HETATM    7  N1  UNL     1      26.166   0.020  54.837  1.00  0.00    -0.197 NA
HETATM    8  C15 UNL     1      26.001   1.068  53.845  1.00  0.00     0.125 C 
HETATM    9  C7  UNL     1      24.529   1.011  53.450  1.00  0.00     0.007 C 
BRANCH   7  10
HETATM   10  O1  UNL     1      27.266  -0.739  54.592  1.00  0.00    -0.308 OA
HETATM   11  C1  UNL     1      28.347   0.142  54.503  1.00  0.00     0.229 C 
ENDBRANCH   7  10
BRANCH   9  12
HETATM   12  C8  UNL     1      24.255   1.432  52.057  1.00  0.00     0.018 C 
BRANCH  12  13
HETATM   13  C9  UNL     1      23.416   2.635  51.854  1.00  0.00     0.034 C 
HETATM   14  C10 UNL     1      21.963   2.367  52.039  1.00  0.00     0.001 C 
HETATM   15  C11 UNL     1      20.787   2.904  51.789  1.00  0.00     0.114 C 
HETATM   16  N3  UNL     1      20.468   4.155  51.138  1.00  0.00    -0.256 NA
HETATM   17  C12 UNL     1      21.094   5.310  51.135  1.00  0.00     0.206 C 
HETATM   18  N4  UNL     1      22.307   5.786  51.758  1.00  0.00    -0.361 N 
HETATM   19  C13 UNL     1      23.329   5.067  52.485  1.00  0.00     0.085 C 
HETATM   20  H18 UNL     1      22.458   6.813  51.659  1.00  0.00     0.166 HD
HETATM   21  C14 UNL     1      23.831   3.846  52.589  1.00  0.00    -0.001 C 
ENDBRANCH  12  13
ENDBRANCH   9  12
ENDBRANCH   4   5
ENDBRANCH   1   4
TORSDOF 5
ENDMDL
MODEL 7
REMARK VINA RESULT:      -6.7      2.118      4.006
REMARK  5 active torsions:
REMARK  status: ('A' for Active; 'I' for Inactive)
REMARK    1  A    between atoms: O1_2  and  N1_3 
REMARK    2  A    between atoms: C3_5  and  C4_6 
REMARK    3  A    between atoms: C4_6  and  C5_7 
REMARK    4  A    between atoms: C7_10  and  C8_11 
REMARK    5  A    between atoms: C8_11  and  C9_12 
ROOT
HETATM    1  C5  UNL     1      22.166   2.367  50.404  1.00  0.00     0.124 C 
HETATM    2  C6  UNL     1      21.827   1.612  49.172  1.00  0.00     0.059 C 
HETATM    3  N2  UNL     1      21.557   1.013  48.211  1.00  0.00    -0.197 NA
ENDROOT
BRANCH   1   4
HETATM    4  C4  UNL     1      22.951   1.432  51.260  1.00  0.00     0.020 C 
BRANCH   4   5
HETATM    5  C3  UNL     1      22.120   0.612  52.193  1.00  0.00     0.007 C 
HETATM    6  C2  UNL     1      20.907   1.302  52.706  1.00  0.00     0.125 C 
HETATM    7  N1  UNL     1      20.501   0.492  53.833  1.00  0.00    -0.197 NA
HETATM    8  C15 UNL     1      21.642  -0.307  54.245  1.00  0.00     0.125 C 
HETATM    9  C7  UNL     1      22.836   0.304  53.520  1.00  0.00     0.007 C 
BRANCH   7  10
HETATM   10  O1  UNL     1      19.443  -0.283  53.476  1.00  0.00    -0.308 OA
HETATM   11  C1  UNL     1      19.750  -1.585  53.879  1.00  0.00     0.229 C 
ENDBRANCH   7  10
BRANCH   9  12
HETATM   12  C8  UNL     1      23.914  -0.660  53.201  1.00  0.00     0.018 C 
BRANCH  12  13
HETATM   13  C9  UNL     1      25.295  -0.308  53.605  1.00  0.00     0.034 C 
HETATM   14  C10 UNL     1      26.330  -1.098  52.884  1.00  0.00     0.001 C 
HETATM   15  C11 UNL     1      27.609  -1.405  52.951  1.00  0.00     0.114 C 
HETATM   16  N3  UNL     1      28.601  -1.001  53.922  1.00  0.00    -0.256 NA
HETATM   17  C12 UNL     1      28.745   0.120  54.592  1.00  0.00     0.206 C 
HETATM   18  N4  UNL     1      28.003   1.358  54.632  1.00  0.00    -0.361 N 
HETATM   19  C13 UNL     1      26.735   1.708  54.034  1.00  0.00     0.085 C 
HETATM   20  H18 UNL     1      28.467   2.111  55.185  1.00  0.00     0.166 HD
HETATM   21  C14 UNL     1      25.624   1.130  53.601  1.00  0.00    -0.001 C 
ENDBRANCH  12  13
ENDBRANCH   9  12
ENDBRANCH   4   5
ENDBRANCH   1   4
TORSDOF 5
ENDMDL
MODEL 8
REMARK VINA RESULT:      -6.6      2.178      3.085
REMARK  5 active torsions:
REMARK  status: ('A' for Active; 'I' for Inactive)
REMARK    1  A    between atoms: O1_2  and  N1_3 
REMARK    2  A    between atoms: C3_5  and  C4_6 
REMARK    3  A    between atoms: C4_6  and  C5_7 
REMARK    4  A    between atoms: C7_10  and  C8_11 
REMARK    5  A    between atoms: C8_11  and  C9_12 
ROOT
HETATM    1  C5  UNL     1      23.471   1.803  52.817  1.00  0.00     0.124 C 
HETATM    2  C6  UNL     1      22.100   1.987  52.277  1.00  0.00     0.059 C 
HETATM    3  N2  UNL     1      21.029   2.136  51.847  1.00  0.00    -0.197 NA
ENDROOT
BRANCH   1   4
HETATM    4  C4  UNL     1      24.079   3.163  52.877  1.00  0.00     0.020 C 
BRANCH   4   5
HETATM    5  C3  UNL     1      25.034   3.456  51.767  1.00  0.00     0.007 C 
HETATM    6  C2  UNL     1      24.390   3.750  50.460  1.00  0.00     0.125 C 
HETATM    7  N1  UNL     1      25.470   3.621  49.507  1.00  0.00    -0.197 NA
HETATM    8  C15 UNL     1      26.527   2.843  50.130  1.00  0.00     0.125 C 
HETATM    9  C7  UNL     1      25.891   2.238  51.377  1.00  0.00     0.007 C 
BRANCH   7  10
HETATM   10  O1  UNL     1      25.901   4.857  49.140  1.00  0.00    -0.308 OA
HETATM   11  C1  UNL     1      27.264   4.737  48.861  1.00  0.00     0.229 C 
ENDBRANCH   7  10
BRANCH   9  12
HETATM   12  C8  UNL     1      26.837   2.015  52.495  1.00  0.00     0.018 C 
BRANCH  12  13
HETATM   13  C9  UNL     1      27.379   0.648  52.675  1.00  0.00     0.034 C 
HETATM   14  C10 UNL     1      28.374   0.559  53.778  1.00  0.00     0.001 C 
HETATM   15  C11 UNL     1      29.310  -0.241  54.246  1.00  0.00     0.114 C 
HETATM   16  N3  UNL     1      29.754  -1.523  53.749  1.00  0.00    -0.256 NA
HETATM   17  C12 UNL     1      29.096  -2.495  53.160  1.00  0.00     0.206 C 
HETATM   18  N4  UNL     1      27.713  -2.675  52.784  1.00  0.00    -0.361 N 
HETATM   19  C13 UNL     1      26.609  -1.742  52.805  1.00  0.00     0.085 C 
HETATM   20  H18 UNL     1      27.489  -3.635  52.444  1.00  0.00     0.166 HD
HETATM   21  C14 UNL     1      26.383  -0.437  52.767  1.00  0.00    -0.001 C 
ENDBRANCH  12  13
ENDBRANCH   9  12
ENDBRANCH   4   5
ENDBRANCH   1   4
TORSDOF 5
ENDMDL
MODEL 9
REMARK VINA RESULT:      -6.5      2.363      4.788
REMARK  5 active torsions:
REMARK  status: ('A' for Active; 'I' for Inactive)
REMARK    1  A    between atoms: O1_2  and  N1_3 
REMARK    2  A    between atoms: C3_5  and  C4_6 
REMARK    3  A    between atoms: C4_6  and  C5_7 
REMARK    4  A    between atoms: C7_10  and  C8_11 
REMARK    5  A    between atoms: C8_11  and  C9_12 
ROOT
HETATM    1  C5  UNL     1      25.436   5.099  49.344  1.00  0.00     0.124 C 
HETATM    2  C6  UNL     1      26.850   4.837  48.977  1.00  0.00     0.059 C 
HETATM    3  N2  UNL     1      27.957   4.625  48.684  1.00  0.00    -0.197 NA
ENDROOT
BRANCH   1   4
HETATM    4  C4  UNL     1      24.776   3.765  49.431  1.00  0.00     0.020 C 
BRANCH   4   5
HETATM    5  C3  UNL     1      23.398   3.800  50.006  1.00  0.00     0.007 C 
HETATM    6  C2  UNL     1      22.852   5.166  50.218  1.00  0.00     0.125 C 
HETATM    7  N1  UNL     1      21.726   4.954  51.100  1.00  0.00    -0.197 NA
HETATM    8  C15 UNL     1      21.896   3.662  51.741  1.00  0.00     0.125 C 
HETATM    9  C7  UNL     1      23.336   3.260  51.447  1.00  0.00     0.007 C 
BRANCH   7  10
HETATM   10  O1  UNL     1      20.572   5.018  50.385  1.00  0.00    -0.308 OA
HETATM   11  C1  UNL     1      19.678   4.133  50.993  1.00  0.00     0.229 C 
ENDBRANCH   7  10
BRANCH   9  12
HETATM   12  C8  UNL     1      23.555   1.798  51.356  1.00  0.00     0.018 C 
BRANCH  12  13
HETATM   13  C9  UNL     1      24.434   1.169  52.370  1.00  0.00     0.034 C 
HETATM   14  C10 UNL     1      25.214   2.163  53.157  1.00  0.00     0.001 C 
HETATM   15  C11 UNL     1      26.251   2.235  53.966  1.00  0.00     0.114 C 
HETATM   16  N3  UNL     1      27.125   1.184  54.435  1.00  0.00    -0.256 NA
HETATM   17  C12 UNL     1      26.885  -0.077  54.715  1.00  0.00     0.206 C 
HETATM   18  N4  UNL     1      25.696  -0.897  54.673  1.00  0.00    -0.361 N 
HETATM   19  C13 UNL     1      24.381  -0.611  54.145  1.00  0.00     0.085 C 
HETATM   20  H18 UNL     1      25.821  -1.844  55.092  1.00  0.00     0.166 HD
HETATM   21  C14 UNL     1      23.795   0.173  53.252  1.00  0.00    -0.001 C 
ENDBRANCH  12  13
ENDBRANCH   9  12
ENDBRANCH   4   5
ENDBRANCH   1   4
TORSDOF 5
ENDMDL
