MODEL 1
REMARK VINA RESULT:      -8.0      0.000      0.000
REMARK  4 active torsions:
REMARK  status: ('A' for Active; 'I' for Inactive)
REMARK    1  A    between atoms: C4_4  and  C5_5 
REMARK    2  A    between atoms: C6_6  and  C7_7 
REMARK    3  A    between atoms: N1_8  and  C8_9 
REMARK    4  A    between atoms: C9_11  and  O1_12 
ROOT
HETATM    1  C1  UNL     1      20.333   0.235  51.993  1.00  0.00     0.017 C 
HETATM    2  C2  UNL     1      20.794   0.076  53.106  1.00  0.00    -0.089 C 
HETATM    3  C3  UNL     1      21.363  -0.123  54.420  1.00  0.00     0.063 C 
HETATM    4  C4  UNL     1      22.582  -0.625  54.531  1.00  0.00     0.009 C 
ENDROOT
BRANCH   4   5
HETATM    5  C5  UNL     1      23.335  -0.970  53.340  1.00  0.00    -0.001 C 
HETATM    6  C6  UNL     1      24.432  -0.318  52.994  1.00  0.00     0.002 C 
BRANCH   6   7
HETATM    7  C7  UNL     1      25.054   0.811  53.706  1.00  0.00     0.153 C 
HETATM    8  N1  UNL     1      26.495   0.757  53.700  1.00  0.00    -0.237 N 
HETATM    9  N3  UNL     1      26.919   2.082  53.822  1.00  0.00    -0.185 NA
HETATM   10  C11 UNL     1      26.003   2.893  53.415  1.00  0.00     0.128 C 
HETATM   11  C12 UNL     1      24.818   2.107  52.958  1.00  0.00     0.042 A 
HETATM   12  C13 UNL     1      24.958   1.899  51.517  1.00  0.00    -0.008 A 
HETATM   13  C17 UNL     1      23.534   2.764  53.297  1.00  0.00     0.050 A 
HETATM   14  C14 UNL     1      24.217   2.156  50.455  1.00  0.00     0.016 A 
HETATM   15  C15 UNL     1      22.955   2.801  50.776  1.00  0.00     0.007 A 
HETATM   16 BR1  UNL     1      21.704   3.278  49.425  1.00  0.00    -0.051 Br
HETATM   17  C16 UNL     1      22.761   3.021  52.063  1.00  0.00    -0.006 A 
BRANCH   8  18
HETATM   18  C8  UNL     1      27.448  -0.271  53.604  1.00  0.00     0.192 A 
HETATM   19  N2  UNL     1      27.543  -1.441  53.441  1.00  0.00    -0.198 NA
HETATM   20  C9  UNL     1      28.692  -2.107  53.407  1.00  0.00     0.171 A 
HETATM   21  C10 UNL     1      29.912  -1.428  53.570  1.00  0.00     0.111 A 
HETATM   22  S1  UNL     1      29.244   0.320  53.786  1.00  0.00    -0.058 SA
BRANCH  20  23
HETATM   23  O1  UNL     1      28.604  -3.500  53.200  1.00  0.00    -0.344 OA
HETATM   24  H7  UNL     1      28.551  -3.913  52.289  1.00  0.00     0.219 HD
ENDBRANCH  20  23
ENDBRANCH   8  18
ENDBRANCH   6   7
ENDBRANCH   4   5
TORSDOF 4
ENDMDL
MODEL 2
REMARK VINA RESULT:      -7.8      4.643      7.125
REMARK  4 active torsions:
REMARK  status: ('A' for Active; 'I' for Inactive)
REMARK    1  A    between atoms: C4_4  and  C5_5 
REMARK    2  A    between atoms: C6_6  and  C7_7 
REMARK    3  A    between atoms: N1_8  and  C8_9 
REMARK    4  A    between atoms: C9_11  and  O1_12 
ROOT
HETATM    1  C1  UNL     1      29.082   5.385  48.101  1.00  0.00     0.017 C 
HETATM    2  C2  UNL     1      27.950   5.579  48.496  1.00  0.00    -0.089 C 
HETATM    3  C3  UNL     1      26.600   5.786  48.972  1.00  0.00     0.063 C 
HETATM    4  C4  UNL     1      25.914   4.760  49.446  1.00  0.00     0.009 C 
ENDROOT
BRANCH   4   5
HETATM    5  C5  UNL     1      26.517   3.441  49.486  1.00  0.00    -0.001 C 
HETATM    6  C6  UNL     1      26.239   2.574  50.445  1.00  0.00     0.002 C 
BRANCH   6   7
HETATM    7  C7  UNL     1      25.325   2.774  51.581  1.00  0.00     0.153 C 
HETATM    8  N1  UNL     1      23.968   2.383  51.288  1.00  0.00    -0.237 N 
HETATM    9  N3  UNL     1      23.403   2.040  52.518  1.00  0.00    -0.185 NA
HETATM   10  C11 UNL     1      24.319   1.709  53.363  1.00  0.00     0.128 C 
HETATM   11  C12 UNL     1      25.656   1.815  52.706  1.00  0.00     0.042 A 
HETATM   12  C13 UNL     1      25.988   0.494  52.172  1.00  0.00    -0.008 A 
HETATM   13  C17 UNL     1      26.705   2.316  53.625  1.00  0.00     0.050 A 
HETATM   14  C14 UNL     1      26.993  -0.350  52.313  1.00  0.00     0.016 A 
HETATM   15  C15 UNL     1      28.027   0.131  53.214  1.00  0.00     0.007 A 
HETATM   16 BR1  UNL     1      29.583  -0.896  53.590  1.00  0.00    -0.051 Br
HETATM   17  C16 UNL     1      27.793   1.321  53.735  1.00  0.00    -0.006 A 
BRANCH   8  18
HETATM   18  C8  UNL     1      23.192   2.293  50.119  1.00  0.00     0.192 A 
HETATM   19  N2  UNL     1      23.125   2.709  49.011  1.00  0.00    -0.198 NA
HETATM   20  C9  UNL     1      22.186   2.372  48.135  1.00  0.00     0.171 A 
HETATM   21  C10 UNL     1      21.175   1.462  48.491  1.00  0.00     0.111 A 
HETATM   22  S1  UNL     1      21.708   1.117  50.265  1.00  0.00    -0.058 SA
BRANCH  20  23
HETATM   23  O1  UNL     1      22.272   2.971  46.861  1.00  0.00    -0.344 OA
HETATM   24  H7  UNL     1      22.367   3.960  46.730  1.00  0.00     0.219 HD
ENDBRANCH  20  23
ENDBRANCH   8  18
ENDBRANCH   6   7
ENDBRANCH   4   5
TORSDOF 4
ENDMDL
MODEL 3
REMARK VINA RESULT:      -7.1      2.122      3.045
REMARK  4 active torsions:
REMARK  status: ('A' for Active; 'I' for Inactive)
REMARK    1  A    between atoms: C4_4  and  C5_5 
REMARK    2  A    between atoms: C6_6  and  C7_7 
REMARK    3  A    between atoms: N1_8  and  C8_9 
REMARK    4  A    between atoms: C9_11  and  O1_12 
ROOT
HETATM    1  C1  UNL     1      23.242  -1.481  55.363  1.00  0.00     0.017 C 
HETATM    2  C2  UNL     1      22.215  -0.956  54.983  1.00  0.00    -0.089 C 
HETATM    3  C3  UNL     1      21.002  -0.326  54.508  1.00  0.00     0.063 C 
HETATM    4  C4  UNL     1      20.945   0.116  53.264  1.00  0.00     0.009 C 
ENDROOT
BRANCH   4   5
HETATM    5  C5  UNL     1      22.092  -0.032  52.387  1.00  0.00    -0.001 C 
HETATM    6  C6  UNL     1      22.976   0.938  52.223  1.00  0.00     0.002 C 
BRANCH   6   7
HETATM    7  C7  UNL     1      22.962   2.266  52.858  1.00  0.00     0.153 C 
HETATM    8  N1  UNL     1      24.283   2.777  53.129  1.00  0.00    -0.237 N 
HETATM    9  N3  UNL     1      24.155   4.167  53.125  1.00  0.00    -0.185 NA
HETATM   10  C11 UNL     1      23.128   4.528  52.435  1.00  0.00     0.128 C 
HETATM   11  C12 UNL     1      22.449   3.313  51.891  1.00  0.00     0.042 A 
HETATM   12  C13 UNL     1      22.983   3.076  50.550  1.00  0.00    -0.008 A 
HETATM   13  C17 UNL     1      20.973   3.442  51.880  1.00  0.00     0.050 A 
HETATM   14  C14 UNL     1      22.466   2.950  49.342  1.00  0.00     0.016 A 
HETATM   15  C15 UNL     1      21.018   3.075  49.320  1.00  0.00     0.007 A 
HETATM   16 BR1  UNL     1      20.026   2.933  47.703  1.00  0.00    -0.051 Br
HETATM   17  C16 UNL     1      20.466   3.291  50.500  1.00  0.00    -0.006 A 
BRANCH   8  18
HETATM   18  C8  UNL     1      25.540   2.195  53.370  1.00  0.00     0.192 A 
HETATM   19  N2  UNL     1      26.188   1.699  54.229  1.00  0.00    -0.198 NA
HETATM   20  C9  UNL     1      27.421   1.233  54.071  1.00  0.00     0.171 A 
HETATM   21  C10 UNL     1      28.054   1.308  52.817  1.00  0.00     0.111 A 
HETATM   22  S1  UNL     1      26.670   2.138  51.845  1.00  0.00    -0.058 SA
BRANCH  20  23
HETATM   23  O1  UNL     1      28.033   0.675  55.213  1.00  0.00    -0.344 OA
HETATM   24  H7  UNL     1      28.028   1.125  56.108  1.00  0.00     0.219 HD
ENDBRANCH  20  23
ENDBRANCH   8  18
ENDBRANCH   6   7
ENDBRANCH   4   5
TORSDOF 4
ENDMDL
MODEL 4
REMARK VINA RESULT:      -7.1      4.564      6.373
REMARK  4 active torsions:
REMARK  status: ('A' for Active; 'I' for Inactive)
REMARK    1  A    between atoms: C4_4  and  C5_5 
REMARK    2  A    between atoms: C6_6  and  C7_7 
REMARK    3  A    between atoms: N1_8  and  C8_9 
REMARK    4  A    between atoms: C9_11  and  O1_12 
ROOT
HETATM    1  C1  UNL     1      24.421  -0.832  54.867  1.00  0.00     0.017 C 
HETATM    2  C2  UNL     1      23.696  -0.650  53.910  1.00  0.00    -0.089 C 
HETATM    3  C3  UNL     1      22.834  -0.409  52.773  1.00  0.00     0.063 C 
HETATM    4  C4  UNL     1      22.600   0.834  52.389  1.00  0.00     0.009 C 
ENDROOT
BRANCH   4   5
HETATM    5  C5  UNL     1      23.206   1.941  53.104  1.00  0.00    -0.001 C 
HETATM    6  C6  UNL     1      24.131   2.708  52.553  1.00  0.00     0.002 C 
BRANCH   6   7
HETATM    7  C7  UNL     1      24.686   2.587  51.194  1.00  0.00     0.153 C 
HETATM    8  N1  UNL     1      24.860   3.860  50.540  1.00  0.00    -0.237 N 
HETATM    9  N3  UNL     1      25.893   3.672  49.621  1.00  0.00    -0.185 NA
HETATM   10  C11 UNL     1      26.641   2.683  49.973  1.00  0.00     0.128 C 
HETATM   11  C12 UNL     1      26.121   2.101  51.247  1.00  0.00     0.042 A 
HETATM   12  C13 UNL     1      26.838   2.743  52.347  1.00  0.00    -0.008 A 
HETATM   13  C17 UNL     1      26.248   0.626  51.294  1.00  0.00     0.050 A 
HETATM   14  C14 UNL     1      27.567   2.323  53.365  1.00  0.00     0.016 A 
HETATM   15  C15 UNL     1      27.698   0.876  53.421  1.00  0.00     0.007 A 
HETATM   16 BR1  UNL     1      28.698   0.015  54.790  1.00  0.00    -0.051 Br
HETATM   17  C16 UNL     1      27.074   0.230  52.454  1.00  0.00    -0.006 A 
BRANCH   8  18
HETATM   18  C8  UNL     1      24.246   5.121  50.646  1.00  0.00     0.192 A 
HETATM   19  N2  UNL     1      23.227   5.638  50.961  1.00  0.00    -0.198 NA
HETATM   20  C9  UNL     1      23.003   6.946  50.927  1.00  0.00     0.171 A 
HETATM   21  C10 UNL     1      24.009   7.829  50.495  1.00  0.00     0.111 A 
HETATM   22  S1  UNL     1      25.361   6.569  50.127  1.00  0.00    -0.058 SA
BRANCH  20  23
HETATM   23  O1  UNL     1      21.725   7.375  51.342  1.00  0.00    -0.344 OA
HETATM   24  H7  UNL     1      21.460   7.444  52.305  1.00  0.00     0.219 HD
ENDBRANCH  20  23
ENDBRANCH   8  18
ENDBRANCH   6   7
ENDBRANCH   4   5
TORSDOF 4
ENDMDL
MODEL 5
REMARK VINA RESULT:      -7.0      1.863      2.505
REMARK  4 active torsions:
REMARK  status: ('A' for Active; 'I' for Inactive)
REMARK    1  A    between atoms: C4_4  and  C5_5 
REMARK    2  A    between atoms: C6_6  and  C7_7 
REMARK    3  A    between atoms: N1_8  and  C8_9 
REMARK    4  A    between atoms: C9_11  and  O1_12 
ROOT
HETATM    1  C1  UNL     1      19.071   0.452  50.521  1.00  0.00     0.017 C 
HETATM    2  C2  UNL     1      19.352   0.305  51.694  1.00  0.00    -0.089 C 
HETATM    3  C3  UNL     1      19.709   0.124  53.084  1.00  0.00     0.063 C 
HETATM    4  C4  UNL     1      20.959  -0.171  53.399  1.00  0.00     0.009 C 
ENDROOT
BRANCH   4   5
HETATM    5  C5  UNL     1      21.957  -0.311  52.356  1.00  0.00    -0.001 C 
HETATM    6  C6  UNL     1      22.879   0.613  52.142  1.00  0.00     0.002 C 
BRANCH   6   7
HETATM    7  C7  UNL     1      23.051   1.878  52.875  1.00  0.00     0.153 C 
HETATM    8  N1  UNL     1      24.424   2.146  53.224  1.00  0.00    -0.237 N 
HETATM    9  N3  UNL     1      24.522   3.535  53.321  1.00  0.00    -0.185 NA
HETATM   10  C11 UNL     1      23.596   4.106  52.630  1.00  0.00     0.128 C 
HETATM   11  C12 UNL     1      22.755   3.060  51.975  1.00  0.00     0.042 A 
HETATM   12  C13 UNL     1      23.300   2.833  50.637  1.00  0.00    -0.008 A 
HETATM   13  C17 UNL     1      21.321   3.429  51.928  1.00  0.00     0.050 A 
HETATM   14  C14 UNL     1      22.822   2.878  49.407  1.00  0.00     0.016 A 
HETATM   15  C15 UNL     1      21.415   3.239  49.350  1.00  0.00     0.007 A 
HETATM   16 BR1  UNL     1      20.483   3.375  47.698  1.00  0.00    -0.051 Br
HETATM   17  C16 UNL     1      20.855   3.460  50.525  1.00  0.00    -0.006 A 
BRANCH   8  18
HETATM   18  C8  UNL     1      25.560   1.351  53.459  1.00  0.00     0.192 A 
HETATM   19  N2  UNL     1      26.213   0.894  54.336  1.00  0.00    -0.198 NA
HETATM   20  C9  UNL     1      27.291   0.140  54.160  1.00  0.00     0.171 A 
HETATM   21  C10 UNL     1      27.737  -0.172  52.864  1.00  0.00     0.111 A 
HETATM   22  S1  UNL     1      26.422   0.749  51.877  1.00  0.00    -0.058 SA
BRANCH  20  23
HETATM   23  O1  UNL     1      27.937  -0.314  55.329  1.00  0.00    -0.344 OA
HETATM   24  H7  UNL     1      27.805   0.113  56.225  1.00  0.00     0.219 HD
ENDBRANCH  20  23
ENDBRANCH   8  18
ENDBRANCH   6   7
ENDBRANCH   4   5
TORSDOF 4
ENDMDL
MODEL 6
REMARK VINA RESULT:      -7.0      3.222      5.343
REMARK  4 active torsions:
REMARK  status: ('A' for Active; 'I' for Inactive)
REMARK    1  A    between atoms: C4_4  and  C5_5 
REMARK    2  A    between atoms: C6_6  and  C7_7 
REMARK    3  A    between atoms: N1_8  and  C8_9 
REMARK    4  A    between atoms: C9_11  and  O1_12 
ROOT
HETATM    1  C1  UNL     1      25.660   6.321  50.028  1.00  0.00     0.017 C 
HETATM    2  C2  UNL     1      25.999   5.205  49.687  1.00  0.00    -0.089 C 
HETATM    3  C3  UNL     1      26.396   3.868  49.303  1.00  0.00     0.063 C 
HETATM    4  C4  UNL     1      26.258   2.877  50.166  1.00  0.00     0.009 C 
ENDROOT
BRANCH   4   5
HETATM    5  C5  UNL     1      25.712   3.135  51.486  1.00  0.00    -0.001 C 
HETATM    6  C6  UNL     1      24.536   2.661  51.861  1.00  0.00     0.002 C 
BRANCH   6   7
HETATM    7  C7  UNL     1      23.617   1.836  51.059  1.00  0.00     0.153 C 
HETATM    8  N1  UNL     1      22.950   0.818  51.832  1.00  0.00    -0.237 N 
HETATM    9  N3  UNL     1      21.750   0.567  51.165  1.00  0.00    -0.185 NA
HETATM   10  C11 UNL     1      21.408   1.580  50.445  1.00  0.00     0.128 C 
HETATM   11  C12 UNL     1      22.432   2.657  50.594  1.00  0.00     0.042 A 
HETATM   12  C13 UNL     1      21.978   3.549  51.661  1.00  0.00    -0.008 A 
HETATM   13  C17 UNL     1      22.675   3.392  49.331  1.00  0.00     0.050 A 
HETATM   14  C14 UNL     1      21.735   4.842  51.765  1.00  0.00     0.016 A 
HETATM   15  C15 UNL     1      21.970   5.573  50.530  1.00  0.00     0.007 A 
HETATM   16 BR1  UNL     1      21.695   7.451  50.411  1.00  0.00    -0.051 Br
HETATM   17  C16 UNL     1      22.383   4.828  49.521  1.00  0.00    -0.006 A 
BRANCH   8  18
HETATM   18  C8  UNL     1      23.253   0.110  53.008  1.00  0.00     0.192 A 
HETATM   19  N2  UNL     1      24.167  -0.243  53.675  1.00  0.00    -0.198 NA
HETATM   20  C9  UNL     1      24.057  -0.944  54.797  1.00  0.00     0.171 A 
HETATM   21  C10 UNL     1      22.791  -1.323  55.277  1.00  0.00     0.111 A 
HETATM   22  S1  UNL     1      21.727  -0.556  53.924  1.00  0.00    -0.058 SA
BRANCH  20  23
HETATM   23  O1  UNL     1      25.262  -1.271  55.454  1.00  0.00    -0.344 OA
HETATM   24  H7  UNL     1      26.153  -1.248  54.998  1.00  0.00     0.219 HD
ENDBRANCH  20  23
ENDBRANCH   8  18
ENDBRANCH   6   7
ENDBRANCH   4   5
TORSDOF 4
ENDMDL
MODEL 7
REMARK VINA RESULT:      -6.6      4.643      6.340
REMARK  4 active torsions:
REMARK  status: ('A' for Active; 'I' for Inactive)
REMARK    1  A    between atoms: C4_4  and  C5_5 
REMARK    2  A    between atoms: C6_6  and  C7_7 
REMARK    3  A    between atoms: N1_8  and  C8_9 
REMARK    4  A    between atoms: C9_11  and  O1_12 
ROOT
HETATM    1  C1  UNL     1      21.550  -0.646  54.507  1.00  0.00     0.017 C 
HETATM    2  C2  UNL     1      22.648  -0.601  53.990  1.00  0.00    -0.089 C 
HETATM    3  C3  UNL     1      23.952  -0.522  53.370  1.00  0.00     0.063 C 
HETATM    4  C4  UNL     1      24.372   0.634  52.886  1.00  0.00     0.009 C 
ENDROOT
BRANCH   4   5
HETATM    5  C5  UNL     1      23.527   1.810  52.979  1.00  0.00    -0.001 C 
HETATM    6  C6  UNL     1      22.919   2.320  51.922  1.00  0.00     0.002 C 
BRANCH   6   7
HETATM    7  C7  UNL     1      22.983   1.821  50.538  1.00  0.00     0.153 C 
HETATM    8  N1  UNL     1      21.691   1.462  50.007  1.00  0.00    -0.237 N 
HETATM    9  N3  UNL     1      21.799   1.615  48.624  1.00  0.00    -0.185 NA
HETATM   10  C11 UNL     1      22.743   2.442  48.329  1.00  0.00     0.128 C 
HETATM   11  C12 UNL     1      23.376   2.935  49.589  1.00  0.00     0.042 A 
HETATM   12  C13 UNL     1      22.706   4.181  49.957  1.00  0.00    -0.008 A 
HETATM   13  C17 UNL     1      24.841   3.115  49.458  1.00  0.00     0.050 A 
HETATM   14  C14 UNL     1      23.095   5.420  50.199  1.00  0.00     0.016 A 
HETATM   15  C15 UNL     1      24.531   5.608  50.073  1.00  0.00     0.007 A 
HETATM   16 BR1  UNL     1      25.347   7.300  50.369  1.00  0.00    -0.051 Br
HETATM   17  C16 UNL     1      25.201   4.521  49.741  1.00  0.00    -0.006 A 
BRANCH   8  18
HETATM   18  C8  UNL     1      20.474   1.033  50.566  1.00  0.00     0.192 A 
HETATM   19  N2  UNL     1      20.023   0.229  51.311  1.00  0.00    -0.198 NA
HETATM   20  C9  UNL     1      18.735   0.122  51.615  1.00  0.00     0.171 A 
HETATM   21  C10 UNL     1      17.794   0.996  51.042  1.00  0.00     0.111 A 
HETATM   22  S1  UNL     1      18.964   2.029  49.986  1.00  0.00    -0.058 SA
BRANCH  20  23
HETATM   23  O1  UNL     1      18.387  -0.899  52.524  1.00  0.00    -0.344 OA
HETATM   24  H7  UNL     1      17.446  -1.058  52.829  1.00  0.00     0.219 HD
ENDBRANCH  20  23
ENDBRANCH   8  18
ENDBRANCH   6   7
ENDBRANCH   4   5
TORSDOF 4
ENDMDL
MODEL 8
REMARK VINA RESULT:      -6.5      2.707      3.873
REMARK  4 active torsions:
REMARK  status: ('A' for Active; 'I' for Inactive)
REMARK    1  A    between atoms: C4_4  and  C5_5 
REMARK    2  A    between atoms: C6_6  and  C7_7 
REMARK    3  A    between atoms: N1_8  and  C8_9 
REMARK    4  A    between atoms: C9_11  and  O1_12 
ROOT
HETATM    1  C1  UNL     1      20.251   2.987  47.380  1.00  0.00     0.017 C 
HETATM    2  C2  UNL     1      19.950   2.483  48.443  1.00  0.00    -0.089 C 
HETATM    3  C3  UNL     1      19.615   1.875  49.712  1.00  0.00     0.063 C 
HETATM    4  C4  UNL     1      20.559   1.270  50.412  1.00  0.00     0.009 C 
ENDROOT
BRANCH   4   5
HETATM    5  C5  UNL     1      21.918   1.220  49.905  1.00  0.00    -0.001 C 
HETATM    6  C6  UNL     1      22.902   1.892  50.478  1.00  0.00     0.002 C 
BRANCH   6   7
HETATM    7  C7  UNL     1      22.809   2.763  51.660  1.00  0.00     0.153 C 
HETATM    8  N1  UNL     1      23.936   2.632  52.549  1.00  0.00    -0.237 N 
HETATM    9  N3  UNL     1      24.033   3.855  53.216  1.00  0.00    -0.185 NA
HETATM   10  C11 UNL     1      23.478   4.794  52.528  1.00  0.00     0.128 C 
HETATM   11  C12 UNL     1      22.935   4.220  51.261  1.00  0.00     0.042 A 
HETATM   12  C13 UNL     1      23.961   4.380  50.231  1.00  0.00    -0.008 A 
HETATM   13  C17 UNL     1      21.650   4.839  50.858  1.00  0.00     0.050 A 
HETATM   14  C14 UNL     1      24.014   4.942  49.037  1.00  0.00     0.016 A 
HETATM   15  C15 UNL     1      22.758   5.554  48.633  1.00  0.00     0.007 A 
HETATM   16 BR1  UNL     1      22.568   6.431  46.956  1.00  0.00    -0.051 Br
HETATM   17  C16 UNL     1      21.784   5.447  49.517  1.00  0.00    -0.006 A 
BRANCH   8  18
HETATM   18  C8  UNL     1      24.858   1.611  52.836  1.00  0.00     0.192 A 
HETATM   19  N2  UNL     1      24.987   0.626  53.484  1.00  0.00    -0.198 NA
HETATM   20  C9  UNL     1      26.077  -0.131  53.497  1.00  0.00     0.171 A 
HETATM   21  C10 UNL     1      27.190   0.210  52.707  1.00  0.00     0.111 A 
HETATM   22  S1  UNL     1      26.509   1.776  51.911  1.00  0.00    -0.058 SA
BRANCH  20  23
HETATM   23  O1  UNL     1      26.043  -1.268  54.332  1.00  0.00    -0.344 OA
HETATM   24  H7  UNL     1      26.004  -2.203  53.977  1.00  0.00     0.219 HD
ENDBRANCH  20  23
ENDBRANCH   8  18
ENDBRANCH   6   7
ENDBRANCH   4   5
TORSDOF 4
ENDMDL
MODEL 9
REMARK VINA RESULT:      -6.2      5.162      7.374
REMARK  4 active torsions:
REMARK  status: ('A' for Active; 'I' for Inactive)
REMARK    1  A    between atoms: C4_4  and  C5_5 
REMARK    2  A    between atoms: C6_6  and  C7_7 
REMARK    3  A    between atoms: N1_8  and  C8_9 
REMARK    4  A    between atoms: C9_11  and  O1_12 
ROOT
HETATM    1  C1  UNL     1      19.489   3.559  46.994  1.00  0.00     0.017 C 
HETATM    2  C2  UNL     1      20.671   3.286  46.933  1.00  0.00    -0.089 C 
HETATM    3  C3  UNL     1      22.076   2.948  46.881  1.00  0.00     0.063 C 
HETATM    4  C4  UNL     1      22.577   2.115  47.778  1.00  0.00     0.009 C 
ENDROOT
BRANCH   4   5
HETATM    5  C5  UNL     1      21.719   1.550  48.802  1.00  0.00    -0.001 C 
HETATM    6  C6  UNL     1      21.940   1.753  50.090  1.00  0.00     0.002 C 
BRANCH   6   7
HETATM    7  C7  UNL     1      23.031   2.541  50.687  1.00  0.00     0.153 C 
HETATM    8  N1  UNL     1      22.691   3.931  50.866  1.00  0.00    -0.237 N 
HETATM    9  N3  UNL     1      23.479   4.376  51.929  1.00  0.00    -0.185 NA
HETATM   10  C11 UNL     1      23.834   3.388  52.677  1.00  0.00     0.128 C 
HETATM   11  C12 UNL     1      23.264   2.122  52.125  1.00  0.00     0.042 A 
HETATM   12  C13 UNL     1      21.990   1.883  52.801  1.00  0.00    -0.008 A 
HETATM   13  C17 UNL     1      24.187   0.972  52.267  1.00  0.00     0.050 A 
HETATM   14  C14 UNL     1      21.471   0.893  53.503  1.00  0.00     0.016 A 
HETATM   15  C15 UNL     1      22.368  -0.242  53.649  1.00  0.00     0.007 A 
HETATM   16 BR1  UNL     1      21.862  -1.799  54.616  1.00  0.00    -0.051 Br
HETATM   17  C16 UNL     1      23.541  -0.094  53.062  1.00  0.00    -0.006 A 
BRANCH   8  18
HETATM   18  C8  UNL     1      21.807   4.824  50.235  1.00  0.00     0.192 A 
HETATM   19  N2  UNL     1      20.661   5.124  50.189  1.00  0.00    -0.198 NA
HETATM   20  C9  UNL     1      20.164   6.087  49.421  1.00  0.00     0.171 A 
HETATM   21  C10 UNL     1      21.010   6.837  48.584  1.00  0.00     0.111 A 
HETATM   22  S1  UNL     1      22.647   6.007  49.009  1.00  0.00    -0.058 SA
BRANCH  20  23
HETATM   23  O1  UNL     1      18.772   6.299  49.503  1.00  0.00    -0.344 OA
HETATM   24  H7  UNL     1      18.364   7.211  49.573  1.00  0.00     0.219 HD
ENDBRANCH  20  23
ENDBRANCH   8  18
ENDBRANCH   6   7
ENDBRANCH   4   5
TORSDOF 4
ENDMDL
