MODEL 1
REMARK VINA RESULT:      -8.3      0.000      0.000
REMARK  6 active torsions:
REMARK  status: ('A' for Active; 'I' for Inactive)
REMARK    1  A    between atoms: N1_2  and  C2_3 
REMARK    2  A    between atoms: C2_3  and  C18_23 
REMARK    3  A    between atoms: N2_12  and  C9_13 
REMARK    4  A    between atoms: C9_13  and  C10_14 
REMARK    5  A    between atoms: C10_14  and  C11_15 
REMARK    6  A    between atoms: C11_15  and  N3_16 
ROOT
HETATM    1  C2  UNL     1      21.514   0.284  53.022  1.00  0.00     0.037 C 
HETATM    2  C3  UNL     1      22.601  -0.134  53.622  1.00  0.00    -0.021 C 
HETATM    3  C4  UNL     1      22.320  -0.704  54.977  1.00  0.00     0.069 C 
HETATM    4  C5  UNL     1      23.666  -1.280  55.313  1.00  0.00     0.012 C 
HETATM    5  C6  UNL     1      24.600  -1.001  54.427  1.00  0.00     0.070 C 
HETATM    6  O1  UNL     1      25.948  -1.237  54.200  1.00  0.00    -0.344 OA
HETATM    7  C7  UNL     1      26.831  -0.201  53.813  1.00  0.00     0.278 C 
HETATM    8  C8  UNL     1      26.055   1.083  53.940  1.00  0.00     0.244 C 
HETATM    9  O2  UNL     1      26.581   2.090  54.484  1.00  0.00    -0.271 OA
HETATM   10  N2  UNL     1      24.707   1.114  53.422  1.00  0.00    -0.336 N 
HETATM   11  C17 UNL     1      24.019  -0.163  53.315  1.00  0.00     0.175 C 
ENDROOT
BRANCH   1  12
HETATM   12  N1  UNL     1      20.163   0.282  53.444  1.00  0.00    -0.396 NA
HETATM   13  C1  UNL     1      19.288  -0.605  53.243  1.00  0.00     0.315 C 
ENDBRANCH   1  12
BRANCH   1  14
HETATM   14  C18 UNL     1      21.316   0.842  51.668  1.00  0.00    -0.009 A 
HETATM   15  C19 UNL     1      21.507   0.327  50.410  1.00  0.00     0.014 A 
HETATM   16  C20 UNL     1      21.285   1.038  49.256  1.00  0.00     0.002 A 
HETATM   17  C21 UNL     1      20.848   2.346  49.326  1.00  0.00     0.019 A 
HETATM   18  C22 UNL     1      20.646   2.898  50.598  1.00  0.00     0.011 A 
HETATM   19 BR1  UNL     1      20.041   4.719  50.490  1.00  0.00    -0.051 Br
HETATM   20  C23 UNL     1      20.872   2.169  51.755  1.00  0.00     0.032 A 
ENDBRANCH   1  14
BRANCH  10  21
HETATM   21  C9  UNL     1      24.149   2.396  53.050  1.00  0.00     0.129 C 
BRANCH  21  22
HETATM   22  C10 UNL     1      24.456   2.743  51.608  1.00  0.00     0.039 C 
BRANCH  22  23
HETATM   23  C11 UNL     1      24.154   4.156  51.242  1.00  0.00     0.118 C 
BRANCH  23  24
HETATM   24  N3  UNL     1      24.541   4.521  49.931  1.00  0.00    -0.412 N 
HETATM   25  C12 UNL     1      24.626   5.900  49.652  1.00  0.00     0.117 C 
HETATM   26  C13 UNL     1      26.033   6.439  49.509  1.00  0.00     0.019 C 
HETATM   27  C14 UNL     1      26.891   5.552  48.616  1.00  0.00     0.003 C 
HETATM   28  C15 UNL     1      26.919   4.209  49.344  1.00  0.00     0.019 C 
HETATM   29  C16 UNL     1      25.519   3.681  49.317  1.00  0.00     0.117 C 
ENDBRANCH  23  24
ENDBRANCH  22  23
ENDBRANCH  21  22
ENDBRANCH  10  21
TORSDOF 6
ENDMDL
MODEL 2
REMARK VINA RESULT:      -8.0      1.365      1.916
REMARK  6 active torsions:
REMARK  status: ('A' for Active; 'I' for Inactive)
REMARK    1  A    between atoms: N1_2  and  C2_3 
REMARK    2  A    between atoms: C2_3  and  C18_23 
REMARK    3  A    between atoms: N2_12  and  C9_13 
REMARK    4  A    between atoms: C9_13  and  C10_14 
REMARK    5  A    between atoms: C10_14  and  C11_15 
REMARK    6  A    between atoms: C11_15  and  N3_16 
ROOT
HETATM    1  C2  UNL     1      21.350   0.177  53.013  1.00  0.00     0.037 C 
HETATM    2  C3  UNL     1      22.470  -0.179  53.592  1.00  0.00    -0.021 C 
HETATM    3  C4  UNL     1      22.250  -0.727  54.967  1.00  0.00     0.069 C 
HETATM    4  C5  UNL     1      23.629  -1.235  55.279  1.00  0.00     0.012 C 
HETATM    5  C6  UNL     1      24.526  -0.936  54.363  1.00  0.00     0.070 C 
HETATM    6  O1  UNL     1      25.877  -1.118  54.105  1.00  0.00    -0.344 OA
HETATM    7  C7  UNL     1      26.703  -0.054  53.671  1.00  0.00     0.278 C 
HETATM    8  C8  UNL     1      25.873   1.198  53.789  1.00  0.00     0.244 C 
HETATM    9  O2  UNL     1      26.367   2.240  54.295  1.00  0.00    -0.271 OA
HETATM   10  N2  UNL     1      24.512   1.156  53.307  1.00  0.00    -0.336 N 
HETATM   11  C17 UNL     1      23.879  -0.152  53.248  1.00  0.00     0.175 C 
ENDROOT
BRANCH   1  12
HETATM   12  N1  UNL     1      20.012   0.125  53.470  1.00  0.00    -0.396 NA
HETATM   13  C1  UNL     1      19.203  -0.840  53.396  1.00  0.00     0.315 C 
ENDBRANCH   1  12
BRANCH   1  14
HETATM   14  C18 UNL     1      21.092   0.693  51.651  1.00  0.00    -0.009 A 
HETATM   15  C19 UNL     1      21.587   0.353  50.417  1.00  0.00     0.014 A 
HETATM   16  C20 UNL     1      21.229   0.991  49.254  1.00  0.00     0.002 A 
HETATM   17  C21 UNL     1      20.327   2.037  49.290  1.00  0.00     0.019 A 
HETATM   18  C22 UNL     1      19.808   2.405  50.538  1.00  0.00     0.011 A 
HETATM   19 BR1  UNL     1      18.577   3.872  50.385  1.00  0.00    -0.051 Br
HETATM   20  C23 UNL     1      20.175   1.752  51.704  1.00  0.00     0.032 A 
ENDBRANCH   1  14
BRANCH  10  21
HETATM   21  C9  UNL     1      23.887   2.404  52.921  1.00  0.00     0.129 C 
BRANCH  21  22
HETATM   22  C10 UNL     1      24.263   2.803  51.508  1.00  0.00     0.039 C 
BRANCH  22  23
HETATM   23  C11 UNL     1      23.274   3.699  50.844  1.00  0.00     0.118 C 
BRANCH  23  24
HETATM   24  N3  UNL     1      23.160   4.984  51.423  1.00  0.00    -0.412 N 
HETATM   25  C12 UNL     1      24.164   5.920  51.104  1.00  0.00     0.117 C 
HETATM   26  C13 UNL     1      23.734   7.027  50.165  1.00  0.00     0.019 C 
HETATM   27  C14 UNL     1      22.402   7.637  50.583  1.00  0.00     0.003 C 
HETATM   28  C15 UNL     1      21.417   6.472  50.501  1.00  0.00     0.019 C 
HETATM   29  C16 UNL     1      21.830   5.490  51.552  1.00  0.00     0.117 C 
ENDBRANCH  23  24
ENDBRANCH  22  23
ENDBRANCH  21  22
ENDBRANCH  10  21
TORSDOF 6
ENDMDL
MODEL 3
REMARK VINA RESULT:      -7.5      1.992      5.645
REMARK  6 active torsions:
REMARK  status: ('A' for Active; 'I' for Inactive)
REMARK    1  A    between atoms: N1_2  and  C2_3 
REMARK    2  A    between atoms: C2_3  and  C18_23 
REMARK    3  A    between atoms: N2_12  and  C9_13 
REMARK    4  A    between atoms: C9_13  and  C10_14 
REMARK    5  A    between atoms: C10_14  and  C11_15 
REMARK    6  A    between atoms: C11_15  and  N3_16 
ROOT
HETATM    1  C2  UNL     1      24.820   2.051  51.717  1.00  0.00     0.037 C 
HETATM    2  C3  UNL     1      24.982   1.022  52.511  1.00  0.00    -0.021 C 
HETATM    3  C4  UNL     1      26.099   0.130  52.066  1.00  0.00     0.069 C 
HETATM    4  C5  UNL     1      26.188  -0.799  53.243  1.00  0.00     0.012 C 
HETATM    5  C6  UNL     1      25.245  -0.611  54.142  1.00  0.00     0.070 C 
HETATM    6  O1  UNL     1      24.828  -1.122  55.363  1.00  0.00    -0.344 OA
HETATM    7  C7  UNL     1      23.470  -1.423  55.621  1.00  0.00     0.278 C 
HETATM    8  C8  UNL     1      22.751  -1.284  54.305  1.00  0.00     0.244 C 
HETATM    9  O2  UNL     1      21.921  -2.158  53.941  1.00  0.00    -0.271 OA
HETATM   10  N2  UNL     1      23.045  -0.127  53.491  1.00  0.00    -0.336 N 
HETATM   11  C17 UNL     1      24.335   0.511  53.705  1.00  0.00     0.175 C 
ENDROOT
BRANCH   1  12
HETATM   12  N1  UNL     1      25.512   2.435  50.544  1.00  0.00    -0.396 NA
HETATM   13  C1  UNL     1      26.523   3.185  50.449  1.00  0.00     0.315 C 
ENDBRANCH   1  12
BRANCH   1  14
HETATM   14  C18 UNL     1      23.899   3.204  51.812  1.00  0.00    -0.009 A 
HETATM   15  C19 UNL     1      23.727   4.185  52.756  1.00  0.00     0.014 A 
HETATM   16  C20 UNL     1      22.774   5.169  52.664  1.00  0.00     0.002 A 
HETATM   17  C21 UNL     1      21.923   5.205  51.577  1.00  0.00     0.019 A 
HETATM   18  C22 UNL     1      22.076   4.216  50.598  1.00  0.00     0.011 A 
HETATM   19 BR1  UNL     1      20.807   4.431  49.171  1.00  0.00    -0.051 Br
HETATM   20  C23 UNL     1      23.043   3.228  50.702  1.00  0.00     0.032 A 
ENDBRANCH   1  14
BRANCH  10  21
HETATM   21  C9  UNL     1      22.047   0.307  52.538  1.00  0.00     0.129 C 
BRANCH  21  22
HETATM   22  C10 UNL     1      21.037   1.241  53.173  1.00  0.00     0.039 C 
BRANCH  22  23
HETATM   23  C11 UNL     1      19.920   1.638  52.268  1.00  0.00     0.118 C 
BRANCH  23  24
HETATM   24  N3  UNL     1      19.466   0.613  51.407  1.00  0.00    -0.412 N 
HETATM   25  C12 UNL     1      18.593  -0.345  51.961  1.00  0.00     0.117 C 
HETATM   26  C13 UNL     1      17.151  -0.235  51.512  1.00  0.00     0.019 C 
HETATM   27  C14 UNL     1      17.041  -0.067  50.002  1.00  0.00     0.003 C 
HETATM   28  C15 UNL     1      17.777   1.242  49.718  1.00  0.00     0.019 C 
HETATM   29  C16 UNL     1      19.215   1.003  50.057  1.00  0.00     0.117 C 
ENDBRANCH  23  24
ENDBRANCH  22  23
ENDBRANCH  21  22
ENDBRANCH  10  21
TORSDOF 6
ENDMDL
MODEL 4
REMARK VINA RESULT:      -7.5      1.534      2.245
REMARK  6 active torsions:
REMARK  status: ('A' for Active; 'I' for Inactive)
REMARK    1  A    between atoms: N1_2  and  C2_3 
REMARK    2  A    between atoms: C2_3  and  C18_23 
REMARK    3  A    between atoms: N2_12  and  C9_13 
REMARK    4  A    between atoms: C9_13  and  C10_14 
REMARK    5  A    between atoms: C10_14  and  C11_15 
REMARK    6  A    between atoms: C11_15  and  N3_16 
ROOT
HETATM    1  C2  UNL     1      21.759   0.980  52.880  1.00  0.00     0.037 C 
HETATM    2  C3  UNL     1      22.927   0.453  53.148  1.00  0.00    -0.021 C 
HETATM    3  C4  UNL     1      22.859  -0.542  54.265  1.00  0.00     0.069 C 
HETATM    4  C5  UNL     1      24.245  -1.118  54.199  1.00  0.00     0.012 C 
HETATM    5  C6  UNL     1      25.032  -0.513  53.335  1.00  0.00     0.070 C 
HETATM    6  O1  UNL     1      26.332  -0.584  52.856  1.00  0.00    -0.344 OA
HETATM    7  C7  UNL     1      27.138   0.570  52.714  1.00  0.00     0.278 C 
HETATM    8  C8  UNL     1      26.380   1.696  53.366  1.00  0.00     0.244 C 
HETATM    9  O2  UNL     1      26.973   2.500  54.133  1.00  0.00    -0.271 OA
HETATM   10  N2  UNL     1      24.969   1.817  53.081  1.00  0.00    -0.336 N 
HETATM   11  C17 UNL     1      24.283   0.607  52.655  1.00  0.00     0.175 C 
ENDROOT
BRANCH   1  12
HETATM   12  N1  UNL     1      20.487   0.763  53.461  1.00  0.00    -0.396 NA
HETATM   13  C1  UNL     1      19.650  -0.140  53.184  1.00  0.00     0.315 C 
ENDBRANCH   1  12
BRANCH   1  14
HETATM   14  C18 UNL     1      21.354   1.937  51.827  1.00  0.00    -0.009 A 
HETATM   15  C19 UNL     1      20.535   3.038  51.833  1.00  0.00     0.014 A 
HETATM   16  C20 UNL     1      20.264   3.789  50.714  1.00  0.00     0.002 A 
HETATM   17  C21 UNL     1      20.828   3.446  49.501  1.00  0.00     0.019 A 
HETATM   18  C22 UNL     1      21.668   2.326  49.467  1.00  0.00     0.011 A 
HETATM   19 BR1  UNL     1      22.352   2.010  47.699  1.00  0.00    -0.051 Br
HETATM   20  C23 UNL     1      21.934   1.577  50.602  1.00  0.00     0.032 A 
ENDBRANCH   1  14
BRANCH  10  21
HETATM   21  C9  UNL     1      24.350   3.116  53.236  1.00  0.00     0.129 C 
BRANCH  21  22
HETATM   22  C10 UNL     1      24.382   3.908  51.944  1.00  0.00     0.039 C 
BRANCH  22  23
HETATM   23  C11 UNL     1      23.540   5.138  51.962  1.00  0.00     0.118 C 
BRANCH  23  24
HETATM   24  N3  UNL     1      23.872   6.094  50.973  1.00  0.00    -0.412 N 
HETATM   25  C12 UNL     1      24.587   5.629  49.852  1.00  0.00     0.117 C 
HETATM   26  C13 UNL     1      23.787   5.550  48.568  1.00  0.00     0.019 C 
HETATM   27  C14 UNL     1      22.977   6.817  48.329  1.00  0.00     0.003 C 
HETATM   28  C15 UNL     1      22.032   6.887  49.528  1.00  0.00     0.019 C 
HETATM   29  C16 UNL     1      22.891   7.104  50.735  1.00  0.00     0.117 C 
ENDBRANCH  23  24
ENDBRANCH  22  23
ENDBRANCH  21  22
ENDBRANCH  10  21
TORSDOF 6
ENDMDL
MODEL 5
REMARK VINA RESULT:      -7.0      3.129      6.782
REMARK  6 active torsions:
REMARK  status: ('A' for Active; 'I' for Inactive)
REMARK    1  A    between atoms: N1_2  and  C2_3 
REMARK    2  A    between atoms: C2_3  and  C18_23 
REMARK    3  A    between atoms: N2_12  and  C9_13 
REMARK    4  A    between atoms: C9_13  and  C10_14 
REMARK    5  A    between atoms: C10_14  and  C11_15 
REMARK    6  A    between atoms: C11_15  and  N3_16 
ROOT
HETATM    1  C2  UNL     1      22.228   5.275  48.677  1.00  0.00     0.037 C 
HETATM    2  C3  UNL     1      23.233   6.032  48.313  1.00  0.00    -0.021 C 
HETATM    3  C4  UNL     1      23.069   6.567  46.924  1.00  0.00     0.069 C 
HETATM    4  C5  UNL     1      24.216   7.537  46.871  1.00  0.00     0.012 C 
HETATM    5  C6  UNL     1      24.993   7.500  47.933  1.00  0.00     0.070 C 
HETATM    6  O1  UNL     1      26.132   8.114  48.433  1.00  0.00    -0.344 OA
HETATM    7  C7  UNL     1      27.192   7.370  49.002  1.00  0.00     0.278 C 
HETATM    8  C8  UNL     1      26.884   5.922  48.726  1.00  0.00     0.244 C 
HETATM    9  O2  UNL     1      27.789   5.149  48.311  1.00  0.00    -0.271 OA
HETATM   10  N2  UNL     1      25.534   5.460  48.954  1.00  0.00    -0.336 N 
HETATM   11  C17 UNL     1      24.484   6.466  48.906  1.00  0.00     0.175 C 
ENDROOT
BRANCH   1  12
HETATM   12  N1  UNL     1      21.053   4.898  47.984  1.00  0.00    -0.396 NA
HETATM   13  C1  UNL     1      19.939   5.491  47.964  1.00  0.00     0.315 C 
ENDBRANCH   1  12
BRANCH   1  14
HETATM   14  C18 UNL     1      21.943   4.609  49.965  1.00  0.00    -0.009 A 
HETATM   15  C19 UNL     1      21.858   5.070  51.255  1.00  0.00     0.014 A 
HETATM   16  C20 UNL     1      21.605   4.260  52.336  1.00  0.00     0.002 A 
HETATM   17  C21 UNL     1      21.422   2.904  52.153  1.00  0.00     0.019 A 
HETATM   18  C22 UNL     1      21.504   2.406  50.846  1.00  0.00     0.011 A 
HETATM   19 BR1  UNL     1      21.225   0.505  50.796  1.00  0.00    -0.051 Br
HETATM   20  C23 UNL     1      21.759   3.233  49.764  1.00  0.00     0.032 A 
ENDBRANCH   1  14
BRANCH  10  21
HETATM   21  C9  UNL     1      25.329   4.051  49.211  1.00  0.00     0.129 C 
BRANCH  21  22
HETATM   22  C10 UNL     1      25.431   3.732  50.688  1.00  0.00     0.039 C 
BRANCH  22  23
HETATM   23  C11 UNL     1      26.535   2.790  51.035  1.00  0.00     0.118 C 
BRANCH  23  24
HETATM   24  N3  UNL     1      26.390   2.148  52.287  1.00  0.00    -0.412 N 
HETATM   25  C12 UNL     1      25.093   2.104  52.835  1.00  0.00     0.117 C 
HETATM   26  C13 UNL     1      24.429   0.743  52.802  1.00  0.00     0.019 C 
HETATM   27  C14 UNL     1      25.365  -0.355  53.288  1.00  0.00     0.003 C 
HETATM   28  C15 UNL     1      26.528  -0.318  52.297  1.00  0.00     0.019 C 
HETATM   29  C16 UNL     1      27.212   0.999  52.492  1.00  0.00     0.117 C 
ENDBRANCH  23  24
ENDBRANCH  22  23
ENDBRANCH  21  22
ENDBRANCH  10  21
TORSDOF 6
ENDMDL
MODEL 6
REMARK VINA RESULT:      -6.9      3.033      5.182
REMARK  6 active torsions:
REMARK  status: ('A' for Active; 'I' for Inactive)
REMARK    1  A    between atoms: N1_2  and  C2_3 
REMARK    2  A    between atoms: C2_3  and  C18_23 
REMARK    3  A    between atoms: N2_12  and  C9_13 
REMARK    4  A    between atoms: C9_13  and  C10_14 
REMARK    5  A    between atoms: C10_14  and  C11_15 
REMARK    6  A    between atoms: C11_15  and  N3_16 
ROOT
HETATM    1  C2  UNL     1      24.985   1.671  51.672  1.00  0.00     0.037 C 
HETATM    2  C3  UNL     1      23.821   1.354  52.181  1.00  0.00    -0.021 C 
HETATM    3  C4  UNL     1      23.885   0.120  53.026  1.00  0.00     0.069 C 
HETATM    4  C5  UNL     1      22.509   0.132  53.629  1.00  0.00     0.012 C 
HETATM    5  C6  UNL     1      21.728   1.078  53.151  1.00  0.00     0.070 C 
HETATM    6  O1  UNL     1      20.437   1.563  53.304  1.00  0.00    -0.344 OA
HETATM    7  C7  UNL     1      19.616   1.862  52.191  1.00  0.00     0.278 C 
HETATM    8  C8  UNL     1      20.346   1.347  50.979  1.00  0.00     0.244 C 
HETATM    9  O2  UNL     1      19.728   0.697  50.095  1.00  0.00    -0.271 OA
HETATM   10  N2  UNL     1      21.760   1.624  50.871  1.00  0.00    -0.336 N 
HETATM   11  C17 UNL     1      22.471   1.883  52.114  1.00  0.00     0.175 C 
ENDROOT
BRANCH   1  12
HETATM   12  N1  UNL     1      26.250   1.048  51.792  1.00  0.00    -0.396 NA
HETATM   13  C1  UNL     1      27.126   1.234  52.680  1.00  0.00     0.315 C 
ENDBRANCH   1  12
BRANCH   1  14
HETATM   14  C18 UNL     1      25.393   2.830  50.849  1.00  0.00    -0.009 A 
HETATM   15  C19 UNL     1      26.327   2.986  49.856  1.00  0.00     0.014 A 
HETATM   16  C20 UNL     1      26.573   4.182  49.226  1.00  0.00     0.002 A 
HETATM   17  C21 UNL     1      25.863   5.310  49.587  1.00  0.00     0.019 A 
HETATM   18  C22 UNL     1      24.903   5.179  50.599  1.00  0.00     0.011 A 
HETATM   19 BR1  UNL     1      24.025   6.849  50.959  1.00  0.00    -0.051 Br
HETATM   20  C23 UNL     1      24.663   3.966  51.226  1.00  0.00     0.032 A 
ENDBRANCH   1  14
BRANCH  10  21
HETATM   21  C9  UNL     1      22.356   1.626  49.553  1.00  0.00     0.129 C 
BRANCH  21  22
HETATM   22  C10 UNL     1      22.233   2.981  48.885  1.00  0.00     0.039 C 
BRANCH  22  23
HETATM   23  C11 UNL     1      21.250   3.022  47.765  1.00  0.00     0.118 C 
BRANCH  23  24
HETATM   24  N3  UNL     1      20.963   4.319  47.281  1.00  0.00    -0.412 N 
HETATM   25  C12 UNL     1      21.608   5.397  47.920  1.00  0.00     0.117 C 
HETATM   26  C13 UNL     1      22.708   6.055  47.115  1.00  0.00     0.019 C 
HETATM   27  C14 UNL     1      22.271   6.332  45.682  1.00  0.00     0.003 C 
HETATM   28  C15 UNL     1      21.966   4.948  45.113  1.00  0.00     0.019 C 
HETATM   29  C16 UNL     1      20.783   4.428  45.868  1.00  0.00     0.117 C 
ENDBRANCH  23  24
ENDBRANCH  22  23
ENDBRANCH  21  22
ENDBRANCH  10  21
TORSDOF 6
ENDMDL
MODEL 7
REMARK VINA RESULT:      -6.9      3.300      5.273
REMARK  6 active torsions:
REMARK  status: ('A' for Active; 'I' for Inactive)
REMARK    1  A    between atoms: N1_2  and  C2_3 
REMARK    2  A    between atoms: C2_3  and  C18_23 
REMARK    3  A    between atoms: N2_12  and  C9_13 
REMARK    4  A    between atoms: C9_13  and  C10_14 
REMARK    5  A    between atoms: C10_14  and  C11_15 
REMARK    6  A    between atoms: C11_15  and  N3_16 
ROOT
HETATM    1  C2  UNL     1      21.874   0.460  52.670  1.00  0.00     0.037 C 
HETATM    2  C3  UNL     1      20.823   0.977  52.082  1.00  0.00    -0.021 C 
HETATM    3  C4  UNL     1      19.627   0.080  52.162  1.00  0.00     0.069 C 
HETATM    4  C5  UNL     1      18.566   0.997  51.622  1.00  0.00     0.012 C 
HETATM    5  C6  UNL     1      19.031   2.145  51.177  1.00  0.00     0.070 C 
HETATM    6  O1  UNL     1      18.573   3.322  50.601  1.00  0.00    -0.344 OA
HETATM    7  C7  UNL     1      19.206   3.896  49.474  1.00  0.00     0.278 C 
HETATM    8  C8  UNL     1      20.217   2.886  48.999  1.00  0.00     0.244 C 
HETATM    9  O2  UNL     1      20.321   2.621  47.772  1.00  0.00    -0.271 OA
HETATM   10  N2  UNL     1      21.050   2.244  49.989  1.00  0.00    -0.336 N 
HETATM   11  C17 UNL     1      20.529   2.193  51.347  1.00  0.00     0.175 C 
ENDROOT
BRANCH   1  12
HETATM   12  N1  UNL     1      22.046  -0.772  53.344  1.00  0.00    -0.396 NA
HETATM   13  C1  UNL     1      21.730  -1.058  54.532  1.00  0.00     0.315 C 
ENDBRANCH   1  12
BRANCH   1  14
HETATM   14  C18 UNL     1      23.225   1.018  52.890  1.00  0.00    -0.009 A 
HETATM   15  C19 UNL     1      23.676   2.279  53.189  1.00  0.00     0.014 A 
HETATM   16  C20 UNL     1      25.005   2.598  53.327  1.00  0.00     0.002 A 
HETATM   17  C21 UNL     1      25.968   1.622  53.162  1.00  0.00     0.019 A 
HETATM   18  C22 UNL     1      25.536   0.326  52.855  1.00  0.00     0.011 A 
HETATM   19 BR1  UNL     1      27.016  -0.885  52.662  1.00  0.00    -0.051 Br
HETATM   20  C23 UNL     1      24.192   0.016  52.720  1.00  0.00     0.032 A 
ENDBRANCH   1  14
BRANCH  10  21
HETATM   21  C9  UNL     1      22.325   1.707  49.564  1.00  0.00     0.129 C 
BRANCH  21  22
HETATM   22  C10 UNL     1      23.383   2.787  49.470  1.00  0.00     0.039 C 
BRANCH  22  23
HETATM   23  C11 UNL     1      23.006   4.070  50.130  1.00  0.00     0.118 C 
BRANCH  23  24
HETATM   24  N3  UNL     1      24.082   4.759  50.736  1.00  0.00    -0.412 N 
HETATM   25  C12 UNL     1      25.336   4.668  50.101  1.00  0.00     0.117 C 
HETATM   26  C13 UNL     1      25.791   5.927  49.393  1.00  0.00     0.019 C 
HETATM   27  C14 UNL     1      25.604   7.163  50.263  1.00  0.00     0.003 C 
HETATM   28  C15 UNL     1      24.097   7.219  50.511  1.00  0.00     0.019 C 
HETATM   29  C16 UNL     1      23.755   6.015  51.332  1.00  0.00     0.117 C 
ENDBRANCH  23  24
ENDBRANCH  22  23
ENDBRANCH  21  22
ENDBRANCH  10  21
TORSDOF 6
ENDMDL
MODEL 8
REMARK VINA RESULT:      -6.7      3.433      7.554
REMARK  6 active torsions:
REMARK  status: ('A' for Active; 'I' for Inactive)
REMARK    1  A    between atoms: N1_2  and  C2_3 
REMARK    2  A    between atoms: C2_3  and  C18_23 
REMARK    3  A    between atoms: N2_12  and  C9_13 
REMARK    4  A    between atoms: C9_13  and  C10_14 
REMARK    5  A    between atoms: C10_14  and  C11_15 
REMARK    6  A    between atoms: C11_15  and  N3_16 
ROOT
HETATM    1  C2  UNL     1      23.189   5.488  50.363  1.00  0.00     0.037 C 
HETATM    2  C3  UNL     1      22.028   5.438  49.758  1.00  0.00    -0.021 C 
HETATM    3  C4  UNL     1      21.217   6.676  49.982  1.00  0.00     0.069 C 
HETATM    4  C5  UNL     1      20.084   6.432  49.025  1.00  0.00     0.012 C 
HETATM    5  C6  UNL     1      20.117   5.248  48.452  1.00  0.00     0.070 C 
HETATM    6  O1  UNL     1      19.394   4.492  47.539  1.00  0.00    -0.344 OA
HETATM    7  C7  UNL     1      19.072   3.136  47.783  1.00  0.00     0.278 C 
HETATM    8  C8  UNL     1      19.464   2.861  49.211  1.00  0.00     0.244 C 
HETATM    9  O2  UNL     1      18.686   2.226  49.971  1.00  0.00    -0.271 OA
HETATM   10  N2  UNL     1      20.747   3.344  49.666  1.00  0.00    -0.336 N 
HETATM   11  C17 UNL     1      21.314   4.473  48.944  1.00  0.00     0.175 C 
ENDROOT
BRANCH   1  12
HETATM   12  N1  UNL     1      23.774   6.495  51.166  1.00  0.00    -0.396 NA
HETATM   13  C1  UNL     1      24.488   7.467  50.796  1.00  0.00     0.315 C 
ENDBRANCH   1  12
BRANCH   1  14
HETATM   14  C18 UNL     1      24.319   4.534  50.357  1.00  0.00    -0.009 A 
HETATM   15  C19 UNL     1      25.192   4.129  49.378  1.00  0.00     0.014 A 
HETATM   16  C20 UNL     1      26.174   3.189  49.578  1.00  0.00     0.002 A 
HETATM   17  C21 UNL     1      26.319   2.597  50.818  1.00  0.00     0.019 A 
HETATM   18  C22 UNL     1      25.440   2.991  51.834  1.00  0.00     0.011 A 
HETATM   19 BR1  UNL     1      25.797   2.059  53.476  1.00  0.00    -0.051 Br
HETATM   20  C23 UNL     1      24.454   3.941  51.620  1.00  0.00     0.032 A 
ENDBRANCH   1  14
BRANCH  10  21
HETATM   21  C9  UNL     1      21.367   2.677  50.791  1.00  0.00     0.129 C 
BRANCH  21  22
HETATM   22  C10 UNL     1      21.959   1.341  50.392  1.00  0.00     0.039 C 
BRANCH  22  23
HETATM   23  C11 UNL     1      21.425   0.181  51.163  1.00  0.00     0.118 C 
BRANCH  23  24
HETATM   24  N3  UNL     1      21.361   0.384  52.561  1.00  0.00    -0.412 N 
HETATM   25  C12 UNL     1      20.333  -0.283  53.256  1.00  0.00     0.117 C 
HETATM   26  C13 UNL     1      20.786  -1.449  54.109  1.00  0.00     0.019 C 
HETATM   27  C14 UNL     1      22.001  -1.092  54.956  1.00  0.00     0.003 C 
HETATM   28  C15 UNL     1      23.079  -0.746  53.930  1.00  0.00     0.019 C 
HETATM   29  C16 UNL     1      22.619   0.494  53.229  1.00  0.00     0.117 C 
ENDBRANCH  23  24
ENDBRANCH  22  23
ENDBRANCH  21  22
ENDBRANCH  10  21
TORSDOF 6
ENDMDL
MODEL 9
REMARK VINA RESULT:      -6.7      1.609      2.408
REMARK  6 active torsions:
REMARK  status: ('A' for Active; 'I' for Inactive)
REMARK    1  A    between atoms: N1_2  and  C2_3 
REMARK    2  A    between atoms: C2_3  and  C18_23 
REMARK    3  A    between atoms: N2_12  and  C9_13 
REMARK    4  A    between atoms: C9_13  and  C10_14 
REMARK    5  A    between atoms: C10_14  and  C11_15 
REMARK    6  A    between atoms: C11_15  and  N3_16 
ROOT
HETATM    1  C2  UNL     1      20.829   1.578  51.157  1.00  0.00     0.037 C 
HETATM    2  C3  UNL     1      21.612   1.045  52.062  1.00  0.00    -0.021 C 
HETATM    3  C4  UNL     1      20.883   0.730  53.331  1.00  0.00     0.069 C 
HETATM    4  C5  UNL     1      21.942  -0.041  54.067  1.00  0.00     0.012 C 
HETATM    5  C6  UNL     1      23.105  -0.069  53.450  1.00  0.00     0.070 C 
HETATM    6  O1  UNL     1      24.381  -0.586  53.619  1.00  0.00    -0.344 OA
HETATM    7  C7  UNL     1      25.539   0.199  53.406  1.00  0.00     0.278 C 
HETATM    8  C8  UNL     1      25.058   1.613  53.212  1.00  0.00     0.244 C 
HETATM    9  O2  UNL     1      25.639   2.566  53.795  1.00  0.00    -0.271 OA
HETATM   10  N2  UNL     1      23.923   1.830  52.345  1.00  0.00    -0.336 N 
HETATM   11  C17 UNL     1      23.019   0.705  52.158  1.00  0.00     0.175 C 
ENDROOT
BRANCH   1  12
HETATM   12  N1  UNL     1      19.450   1.891  51.192  1.00  0.00    -0.396 NA
HETATM   13  C1  UNL     1      18.471   1.100  51.096  1.00  0.00     0.315 C 
ENDBRANCH   1  12
BRANCH   1  14
HETATM   14  C18 UNL     1      21.104   1.973  49.759  1.00  0.00    -0.009 A 
HETATM   15  C19 UNL     1      21.901   1.437  48.778  1.00  0.00     0.014 A 
HETATM   16  C20 UNL     1      22.040   1.989  47.527  1.00  0.00     0.002 A 
HETATM   17  C21 UNL     1      21.358   3.145  47.204  1.00  0.00     0.019 A 
HETATM   18  C22 UNL     1      20.539   3.714  48.188  1.00  0.00     0.011 A 
HETATM   19 BR1  UNL     1      19.679   5.311  47.553  1.00  0.00    -0.051 Br
HETATM   20  C23 UNL     1      20.405   3.148  49.445  1.00  0.00     0.032 A 
ENDBRANCH   1  14
BRANCH  10  21
HETATM   21  C9  UNL     1      23.772   3.132  51.732  1.00  0.00     0.129 C 
BRANCH  21  22
HETATM   22  C10 UNL     1      24.485   3.208  50.397  1.00  0.00     0.039 C 
BRANCH  22  23
HETATM   23  C11 UNL     1      25.519   4.279  50.318  1.00  0.00     0.118 C 
BRANCH  23  24
HETATM   24  N3  UNL     1      25.110   5.444  49.628  1.00  0.00    -0.412 N 
HETATM   25  C12 UNL     1      23.892   5.373  48.924  1.00  0.00     0.117 C 
HETATM   26  C13 UNL     1      22.744   6.139  49.550  1.00  0.00     0.019 C 
HETATM   27  C14 UNL     1      23.162   7.543  49.965  1.00  0.00     0.003 C 
HETATM   28  C15 UNL     1      24.262   7.313  51.000  1.00  0.00     0.019 C 
HETATM   29  C16 UNL     1      25.408   6.683  50.272  1.00  0.00     0.117 C 
ENDBRANCH  23  24
ENDBRANCH  22  23
ENDBRANCH  21  22
ENDBRANCH  10  21
TORSDOF 6
ENDMDL
