MODEL 1
REMARK VINA RESULT:      -8.3      0.000      0.000
REMARK  9 active torsions:
REMARK  status: ('A' for Active; 'I' for Inactive)
REMARK    1  A    between atoms: N1_3  and  C3_4 
REMARK    2  A    between atoms: C3_4  and  C4_5 
REMARK    3  A    between atoms: C4_5  and  O1_20 
REMARK    4  A    between atoms: C5_6  and  C6_7 
REMARK    5  A    between atoms: C8_9  and  N2_10 
REMARK    6  A    between atoms: N2_10  and  C9_11 
REMARK    7  A    between atoms: O1_20  and  C16_21 
REMARK    8  A    between atoms: C16_21  and  C17_22 
REMARK    9  A    between atoms: C17_22  and  N5_23 
ROOT
HETATM    1  C1  UNL     1      22.895   4.402  48.410  1.00  0.00     0.119 C 
HETATM    2  C2  UNL     1      22.379   3.778  49.460  1.00  0.00    -0.049 C 
HETATM    3  N1  UNL     1      21.904   2.991  50.368  1.00  0.00    -0.246 NA
ENDROOT
BRANCH   3   4
HETATM    4  C3  UNL     1      22.502   1.665  50.388  1.00  0.00     0.223 C 
BRANCH   4   5
HETATM    5  C4  UNL     1      23.503   1.492  51.464  1.00  0.00     0.069 C 
HETATM    6  C5  UNL     1      23.505   0.847  52.604  1.00  0.00     0.066 C 
BRANCH   6   7
HETATM    7  C6  UNL     1      22.504   0.034  53.281  1.00  0.00     0.064 A 
HETATM    8  C7  UNL     1      21.148   0.054  53.046  1.00  0.00     0.082 A 
HETATM    9  C8  UNL     1      20.409  -0.809  53.795  1.00  0.00     0.131 A 
HETATM   10  N3  UNL     1      20.978  -1.616  54.695  1.00  0.00    -0.224 NA
HETATM   11  C15 UNL     1      22.297  -1.645  54.933  1.00  0.00     0.235 A 
HETATM   12  N4  UNL     1      23.053  -0.782  54.187  1.00  0.00    -0.242 NA
BRANCH   9  13
HETATM   13  N2  UNL     1      19.007  -0.911  53.709  1.00  0.00    -0.341 N 
HETATM   14  H7  UNL     1      18.376  -0.118  53.997  1.00  0.00     0.167 HD
BRANCH  13  15
HETATM   15  C9  UNL     1      17.903  -1.708  53.365  1.00  0.00     0.033 A 
HETATM   16  C10 UNL     1      17.898  -3.037  53.813  1.00  0.00     0.029 A 
HETATM   17  C11 UNL     1      16.862  -3.937  53.526  1.00  0.00     0.002 A 
HETATM   18  C12 UNL     1      15.863  -3.379  52.764  1.00  0.00     0.000 A 
HETATM   19  C13 UNL     1      15.750  -2.094  52.265  1.00  0.00     0.002 A 
HETATM   20  C14 UNL     1      16.831  -1.271  52.604  1.00  0.00     0.029 A 
ENDBRANCH  13  15
ENDBRANCH   9  13
ENDBRANCH   6   7
BRANCH   5  21
HETATM   21  O1  UNL     1      24.597   2.198  51.060  1.00  0.00    -0.352 OA
BRANCH  21  22
HETATM   22  C16 UNL     1      25.593   2.784  51.823  1.00  0.00     0.195 C 
BRANCH  22  23
HETATM   23  C17 UNL     1      26.905   2.020  51.582  1.00  0.00     0.144 C 
BRANCH  23  24
HETATM   24  N5  UNL     1      27.492   1.578  52.784  1.00  0.00    -0.403 N 
HETATM   25  C18 UNL     1      28.382   2.453  53.457  1.00  0.00     0.143 C 
HETATM   26  C19 UNL     1      29.292   1.621  54.344  1.00  0.00     0.187 C 
HETATM   27  O2  UNL     1      28.602   0.765  55.161  1.00  0.00    -0.388 OA
HETATM   28  C20 UNL     1      27.795  -0.146  54.486  1.00  0.00     0.192 C 
HETATM   29  C21 UNL     1      27.695   0.199  53.002  1.00  0.00     0.099 C 
HETATM   30  C22 UNL     1      26.684  -0.714  52.392  1.00  0.00     0.034 C 
ENDBRANCH  23  24
ENDBRANCH  22  23
ENDBRANCH  21  22
ENDBRANCH   5  21
ENDBRANCH   4   5
ENDBRANCH   3   4
TORSDOF 9
ENDMDL
MODEL 2
REMARK VINA RESULT:      -7.6      3.948      6.371
REMARK  9 active torsions:
REMARK  status: ('A' for Active; 'I' for Inactive)
REMARK    1  A    between atoms: N1_3  and  C3_4 
REMARK    2  A    between atoms: C3_4  and  C4_5 
REMARK    3  A    between atoms: C4_5  and  O1_20 
REMARK    4  A    between atoms: C5_6  and  C6_7 
REMARK    5  A    between atoms: C8_9  and  N2_10 
REMARK    6  A    between atoms: N2_10  and  C9_11 
REMARK    7  A    between atoms: O1_20  and  C16_21 
REMARK    8  A    between atoms: C16_21  and  C17_22 
REMARK    9  A    between atoms: C17_22  and  N5_23 
ROOT
HETATM    1  C1  UNL     1      22.097   4.045  52.118  1.00  0.00     0.119 C 
HETATM    2  C2  UNL     1      22.837   4.073  51.018  1.00  0.00    -0.049 C 
HETATM    3  N1  UNL     1      23.638   4.282  50.026  1.00  0.00    -0.246 NA
ENDROOT
BRANCH   3   4
HETATM    4  C3  UNL     1      24.876   4.956  50.384  1.00  0.00     0.223 C 
BRANCH   4   5
HETATM    5  C4  UNL     1      26.085   4.244  49.913  1.00  0.00     0.069 C 
HETATM    6  C5  UNL     1      26.735   3.187  50.335  1.00  0.00     0.066 C 
BRANCH   6   7
HETATM    7  C6  UNL     1      26.525   2.280  51.455  1.00  0.00     0.064 A 
HETATM    8  C7  UNL     1      25.402   1.519  51.685  1.00  0.00     0.082 A 
HETATM    9  C8  UNL     1      25.441   0.733  52.795  1.00  0.00     0.131 A 
HETATM   10  N3  UNL     1      26.509   0.713  53.599  1.00  0.00    -0.224 NA
HETATM   11  C15 UNL     1      27.609   1.449  53.386  1.00  0.00     0.235 A 
HETATM   12  N4  UNL     1      27.584   2.244  52.273  1.00  0.00    -0.242 NA
BRANCH   9  13
HETATM   13  N2  UNL     1      24.376  -0.094  53.202  1.00  0.00    -0.341 N 
HETATM   14  H7  UNL     1      24.544  -1.043  53.625  1.00  0.00     0.167 HD
BRANCH  13  15
HETATM   15  C9  UNL     1      22.985  -0.253  53.314  1.00  0.00     0.033 A 
HETATM   16  C10 UNL     1      22.503  -0.987  54.408  1.00  0.00     0.029 A 
HETATM   17  C11 UNL     1      21.140  -1.229  54.626  1.00  0.00     0.002 A 
HETATM   18  C12 UNL     1      20.336  -0.674  53.657  1.00  0.00     0.000 A 
HETATM   19  C13 UNL     1      20.685   0.064  52.541  1.00  0.00     0.002 A 
HETATM   20  C14 UNL     1      22.066   0.253  52.411  1.00  0.00     0.029 A 
ENDBRANCH  13  15
ENDBRANCH   9  13
ENDBRANCH   6   7
BRANCH   5  21
HETATM   21  O1  UNL     1      26.508   4.930  48.815  1.00  0.00    -0.352 OA
BRANCH  21  22
HETATM   22  C16 UNL     1      27.771   5.411  48.514  1.00  0.00     0.195 C 
BRANCH  22  23
HETATM   23  C17 UNL     1      27.618   6.737  47.751  1.00  0.00     0.144 C 
BRANCH  23  24
HETATM   24  N5  UNL     1      27.284   7.807  48.604  1.00  0.00    -0.403 N 
HETATM   25  C18 UNL     1      25.916   8.151  48.745  1.00  0.00     0.143 C 
HETATM   26  C19 UNL     1      25.830   9.595  49.206  1.00  0.00     0.187 C 
HETATM   27  O2  UNL     1      26.602   9.849  50.310  1.00  0.00    -0.388 OA
HETATM   28  C20 UNL     1      27.957   9.587  50.134  1.00  0.00     0.192 C 
HETATM   29  C21 UNL     1      28.211   8.848  48.822  1.00  0.00     0.099 C 
HETATM   30  C22 UNL     1      29.650   8.457  48.794  1.00  0.00     0.034 C 
ENDBRANCH  23  24
ENDBRANCH  22  23
ENDBRANCH  21  22
ENDBRANCH   5  21
ENDBRANCH   4   5
ENDBRANCH   3   4
TORSDOF 9
ENDMDL
MODEL 3
REMARK VINA RESULT:      -7.5      5.370      8.409
REMARK  9 active torsions:
REMARK  status: ('A' for Active; 'I' for Inactive)
REMARK    1  A    between atoms: N1_3  and  C3_4 
REMARK    2  A    between atoms: C3_4  and  C4_5 
REMARK    3  A    between atoms: C4_5  and  O1_20 
REMARK    4  A    between atoms: C5_6  and  C6_7 
REMARK    5  A    between atoms: C8_9  and  N2_10 
REMARK    6  A    between atoms: N2_10  and  C9_11 
REMARK    7  A    between atoms: O1_20  and  C16_21 
REMARK    8  A    between atoms: C16_21  and  C17_22 
REMARK    9  A    between atoms: C17_22  and  N5_23 
ROOT
HETATM    1  C1  UNL     1      22.200   6.177  51.368  1.00  0.00     0.119 C 
HETATM    2  C2  UNL     1      23.049   6.763  50.535  1.00  0.00    -0.049 C 
HETATM    3  N1  UNL     1      24.009   7.340  49.892  1.00  0.00    -0.246 NA
ENDROOT
BRANCH   3   4
HETATM    4  C3  UNL     1      25.343   6.970  50.340  1.00  0.00     0.223 C 
BRANCH   4   5
HETATM    5  C4  UNL     1      26.058   6.096  49.386  1.00  0.00     0.069 C 
HETATM    6  C5  UNL     1      26.177   4.796  49.262  1.00  0.00     0.066 C 
BRANCH   6   7
HETATM    7  C6  UNL     1      25.648   3.678  50.030  1.00  0.00     0.064 A 
HETATM    8  C7  UNL     1      26.363   2.867  50.881  1.00  0.00     0.082 A 
HETATM    9  C8  UNL     1      25.648   1.891  51.503  1.00  0.00     0.131 A 
HETATM   10  N3  UNL     1      24.337   1.743  51.290  1.00  0.00    -0.224 NA
HETATM   11  C15 UNL     1      23.629   2.527  50.465  1.00  0.00     0.235 A 
HETATM   12  N4  UNL     1      24.335   3.513  49.832  1.00  0.00    -0.242 NA
BRANCH   9  13
HETATM   13  N2  UNL     1      26.215   0.954  52.389  1.00  0.00    -0.341 N 
HETATM   14  H7  UNL     1      25.626   0.423  53.082  1.00  0.00     0.167 HD
BRANCH  13  15
HETATM   15  C9  UNL     1      27.381   0.313  52.837  1.00  0.00     0.033 A 
HETATM   16  C10 UNL     1      28.418   1.121  53.327  1.00  0.00     0.029 A 
HETATM   17  C11 UNL     1      29.636   0.606  53.790  1.00  0.00     0.002 A 
HETATM   18  C12 UNL     1      29.702  -0.766  53.712  1.00  0.00     0.000 A 
HETATM   19  C13 UNL     1      28.758  -1.667  53.254  1.00  0.00     0.002 A 
HETATM   20  C14 UNL     1      27.577  -1.058  52.814  1.00  0.00     0.029 A 
ENDBRANCH  13  15
ENDBRANCH   9  13
ENDBRANCH   6   7
BRANCH   5  21
HETATM   21  O1  UNL     1      26.677   6.938  48.512  1.00  0.00    -0.352 OA
BRANCH  21  22
HETATM   22  C16 UNL     1      27.938   6.845  47.947  1.00  0.00     0.195 C 
BRANCH  22  23
HETATM   23  C17 UNL     1      28.827   7.940  48.557  1.00  0.00     0.144 C 
BRANCH  23  24
HETATM   24  N5  UNL     1      30.180   7.551  48.626  1.00  0.00    -0.403 N 
HETATM   25  C18 UNL     1      30.474   6.171  48.768  1.00  0.00     0.143 C 
HETATM   26  C19 UNL     1      31.860   6.037  49.375  1.00  0.00     0.187 C 
HETATM   27  O2  UNL     1      32.809   6.760  48.700  1.00  0.00    -0.388 OA
HETATM   28  C20 UNL     1      32.552   8.126  48.638  1.00  0.00     0.192 C 
HETATM   29  C21 UNL     1      31.144   8.447  49.134  1.00  0.00     0.099 C 
HETATM   30  C22 UNL     1      30.891   9.894  48.874  1.00  0.00     0.034 C 
ENDBRANCH  23  24
ENDBRANCH  22  23
ENDBRANCH  21  22
ENDBRANCH   5  21
ENDBRANCH   4   5
ENDBRANCH   3   4
TORSDOF 9
ENDMDL
MODEL 4
REMARK VINA RESULT:      -7.5      4.320      6.345
REMARK  9 active torsions:
REMARK  status: ('A' for Active; 'I' for Inactive)
REMARK    1  A    between atoms: N1_3  and  C3_4 
REMARK    2  A    between atoms: C3_4  and  C4_5 
REMARK    3  A    between atoms: C4_5  and  O1_20 
REMARK    4  A    between atoms: C5_6  and  C6_7 
REMARK    5  A    between atoms: C8_9  and  N2_10 
REMARK    6  A    between atoms: N2_10  and  C9_11 
REMARK    7  A    between atoms: O1_20  and  C16_21 
REMARK    8  A    between atoms: C16_21  and  C17_22 
REMARK    9  A    between atoms: C17_22  and  N5_23 
ROOT
HETATM    1  C1  UNL     1      22.640   5.171  47.650  1.00  0.00     0.119 C 
HETATM    2  C2  UNL     1      22.961   4.695  48.845  1.00  0.00    -0.049 C 
HETATM    3  N1  UNL     1      23.475   4.282  49.956  1.00  0.00    -0.246 NA
ENDROOT
BRANCH   3   4
HETATM    4  C3  UNL     1      24.650   5.023  50.388  1.00  0.00     0.223 C 
BRANCH   4   5
HETATM    5  C4  UNL     1      25.920   4.434  49.912  1.00  0.00     0.069 C 
HETATM    6  C5  UNL     1      26.653   3.421  50.305  1.00  0.00     0.066 C 
BRANCH   6   7
HETATM    7  C6  UNL     1      26.509   2.460  51.389  1.00  0.00     0.064 A 
HETATM    8  C7  UNL     1      25.414   1.660  51.624  1.00  0.00     0.082 A 
HETATM    9  C8  UNL     1      25.514   0.826  52.695  1.00  0.00     0.131 A 
HETATM   10  N3  UNL     1      26.612   0.798  53.458  1.00  0.00    -0.224 NA
HETATM   11  C15 UNL     1      27.684   1.572  53.239  1.00  0.00     0.235 A 
HETATM   12  N4  UNL     1      27.597   2.416  52.166  1.00  0.00    -0.242 NA
BRANCH   9  13
HETATM   13  N2  UNL     1      24.486  -0.047  53.102  1.00  0.00    -0.341 N 
HETATM   14  H7  UNL     1      24.694  -1.010  53.474  1.00  0.00     0.167 HD
BRANCH  13  15
HETATM   15  C9  UNL     1      23.105  -0.249  53.257  1.00  0.00     0.033 A 
HETATM   16  C10 UNL     1      22.685  -1.069  54.313  1.00  0.00     0.029 A 
HETATM   17  C11 UNL     1      21.337  -1.361  54.567  1.00  0.00     0.002 A 
HETATM   18  C12 UNL     1      20.482  -0.758  53.673  1.00  0.00     0.000 A 
HETATM   19  C13 UNL     1      20.768   0.065  52.600  1.00  0.00     0.002 A 
HETATM   20  C14 UNL     1      22.138   0.297  52.429  1.00  0.00     0.029 A 
ENDBRANCH  13  15
ENDBRANCH   9  13
ENDBRANCH   6   7
BRANCH   5  21
HETATM   21  O1  UNL     1      26.296   5.193  48.845  1.00  0.00    -0.352 OA
BRANCH  21  22
HETATM   22  C16 UNL     1      27.564   5.583  48.448  1.00  0.00     0.195 C 
BRANCH  22  23
HETATM   23  C17 UNL     1      27.535   7.086  48.129  1.00  0.00     0.144 C 
BRANCH  23  24
HETATM   24  N5  UNL     1      28.785   7.700  48.340  1.00  0.00    -0.403 N 
HETATM   25  C18 UNL     1      29.956   6.945  48.080  1.00  0.00     0.143 C 
HETATM   26  C19 UNL     1      31.101   7.545  48.877  1.00  0.00     0.187 C 
HETATM   27  O2  UNL     1      31.234   8.895  48.683  1.00  0.00    -0.388 OA
HETATM   28  C20 UNL     1      30.107   9.637  49.021  1.00  0.00     0.192 C 
HETATM   29  C21 UNL     1      28.911   8.729  49.298  1.00  0.00     0.099 C 
HETATM   30  C22 UNL     1      27.713   9.600  49.480  1.00  0.00     0.034 C 
ENDBRANCH  23  24
ENDBRANCH  22  23
ENDBRANCH  21  22
ENDBRANCH   5  21
ENDBRANCH   4   5
ENDBRANCH   3   4
TORSDOF 9
ENDMDL
MODEL 5
REMARK VINA RESULT:      -7.4      2.905      8.014
REMARK  9 active torsions:
REMARK  status: ('A' for Active; 'I' for Inactive)
REMARK    1  A    between atoms: N1_3  and  C3_4 
REMARK    2  A    between atoms: C3_4  and  C4_5 
REMARK    3  A    between atoms: C4_5  and  O1_20 
REMARK    4  A    between atoms: C5_6  and  C6_7 
REMARK    5  A    between atoms: C8_9  and  N2_10 
REMARK    6  A    between atoms: N2_10  and  C9_11 
REMARK    7  A    between atoms: O1_20  and  C16_21 
REMARK    8  A    between atoms: C16_21  and  C17_22 
REMARK    9  A    between atoms: C17_22  and  N5_23 
ROOT
HETATM    1  C1  UNL     1      18.657   0.822  51.589  1.00  0.00     0.119 C 
HETATM    2  C2  UNL     1      19.810   0.244  51.894  1.00  0.00    -0.049 C 
HETATM    3  N1  UNL     1      21.020  -0.123  52.161  1.00  0.00    -0.246 NA
ENDROOT
BRANCH   3   4
HETATM    4  C3  UNL     1      21.838   0.904  52.785  1.00  0.00     0.223 C 
BRANCH   4   5
HETATM    5  C4  UNL     1      23.267   0.820  52.411  1.00  0.00     0.069 C 
HETATM    6  C5  UNL     1      24.048   1.544  51.647  1.00  0.00     0.066 C 
BRANCH   6   7
HETATM    7  C6  UNL     1      23.814   2.737  50.845  1.00  0.00     0.064 A 
HETATM    8  C7  UNL     1      24.767   3.645  50.444  1.00  0.00     0.082 A 
HETATM    9  C8  UNL     1      24.312   4.679  49.685  1.00  0.00     0.131 A 
HETATM   10  N3  UNL     1      23.020   4.789  49.358  1.00  0.00    -0.224 NA
HETATM   11  C15 UNL     1      22.083   3.911  49.742  1.00  0.00     0.235 A 
HETATM   12  N4  UNL     1      22.526   2.866  50.506  1.00  0.00    -0.242 NA
BRANCH   9  13
HETATM   13  N2  UNL     1      25.136   5.715  49.205  1.00  0.00    -0.341 N 
HETATM   14  H7  UNL     1      24.830   6.722  49.233  1.00  0.00     0.167 HD
BRANCH  13  15
HETATM   15  C9  UNL     1      26.361   6.068  48.615  1.00  0.00     0.033 A 
HETATM   16  C10 UNL     1      27.432   5.175  48.763  1.00  0.00     0.029 A 
HETATM   17  C11 UNL     1      28.709   5.417  48.235  1.00  0.00     0.002 A 
HETATM   18  C12 UNL     1      28.792   6.615  47.564  1.00  0.00     0.000 A 
HETATM   19  C13 UNL     1      27.818   7.574  47.350  1.00  0.00     0.002 A 
HETATM   20  C14 UNL     1      26.580   7.241  47.914  1.00  0.00     0.029 A 
ENDBRANCH  13  15
ENDBRANCH   9  13
ENDBRANCH   6   7
BRANCH   5  21
HETATM   21  O1  UNL     1      23.750  -0.276  53.060  1.00  0.00    -0.352 OA
BRANCH  21  22
HETATM   22  C16 UNL     1      24.668  -0.351  54.094  1.00  0.00     0.195 C 
BRANCH  22  23
HETATM   23  C17 UNL     1      26.016  -0.808  53.517  1.00  0.00     0.144 C 
BRANCH  23  24
HETATM   24  N5  UNL     1      27.048   0.116  53.776  1.00  0.00    -0.403 N 
HETATM   25  C18 UNL     1      26.704   1.485  53.907  1.00  0.00     0.143 C 
HETATM   26  C19 UNL     1      27.939   2.320  53.614  1.00  0.00     0.187 C 
HETATM   27  O2  UNL     1      29.031   1.929  54.344  1.00  0.00    -0.388 OA
HETATM   28  C20 UNL     1      29.411   0.606  54.144  1.00  0.00     0.192 C 
HETATM   29  C21 UNL     1      28.361  -0.155  53.337  1.00  0.00     0.099 C 
HETATM   30  C22 UNL     1      28.759  -1.592  53.318  1.00  0.00     0.034 C 
ENDBRANCH  23  24
ENDBRANCH  22  23
ENDBRANCH  21  22
ENDBRANCH   5  21
ENDBRANCH   4   5
ENDBRANCH   3   4
TORSDOF 9
ENDMDL
MODEL 6
REMARK VINA RESULT:      -7.4      4.883      8.112
REMARK  9 active torsions:
REMARK  status: ('A' for Active; 'I' for Inactive)
REMARK    1  A    between atoms: N1_3  and  C3_4 
REMARK    2  A    between atoms: C3_4  and  C4_5 
REMARK    3  A    between atoms: C4_5  and  O1_20 
REMARK    4  A    between atoms: C5_6  and  C6_7 
REMARK    5  A    between atoms: C8_9  and  N2_10 
REMARK    6  A    between atoms: N2_10  and  C9_11 
REMARK    7  A    between atoms: O1_20  and  C16_21 
REMARK    8  A    between atoms: C16_21  and  C17_22 
REMARK    9  A    between atoms: C17_22  and  N5_23 
ROOT
HETATM    1  C1  UNL     1      21.744   4.825  51.967  1.00  0.00     0.119 C 
HETATM    2  C2  UNL     1      22.428   5.665  51.202  1.00  0.00    -0.049 C 
HETATM    3  N1  UNL     1      23.236   6.487  50.619  1.00  0.00    -0.246 NA
ENDROOT
BRANCH   3   4
HETATM    4  C3  UNL     1      24.639   6.290  50.949  1.00  0.00     0.223 C 
BRANCH   4   5
HETATM    5  C4  UNL     1      25.380   5.530  49.919  1.00  0.00     0.069 C 
HETATM    6  C5  UNL     1      25.650   4.258  49.751  1.00  0.00     0.066 C 
BRANCH   6   7
HETATM    7  C6  UNL     1      25.326   3.069  50.527  1.00  0.00     0.064 A 
HETATM    8  C7  UNL     1      26.206   2.327  51.282  1.00  0.00     0.082 A 
HETATM    9  C8  UNL     1      25.668   1.260  51.933  1.00  0.00     0.131 A 
HETATM   10  N3  UNL     1      24.367   0.967  51.835  1.00  0.00    -0.224 NA
HETATM   11  C15 UNL     1      23.500   1.681  51.105  1.00  0.00     0.235 A 
HETATM   12  N4  UNL     1      24.028   2.757  50.444  1.00  0.00    -0.242 NA
BRANCH   9  13
HETATM   13  N2  UNL     1      26.419   0.376  52.731  1.00  0.00    -0.341 N 
HETATM   14  H7  UNL     1      25.962  -0.237  53.456  1.00  0.00     0.167 HD
BRANCH  13  15
HETATM   15  C9  UNL     1      27.687  -0.135  53.050  1.00  0.00     0.033 A 
HETATM   16  C10 UNL     1      27.862  -1.525  52.983  1.00  0.00     0.029 A 
HETATM   17  C11 UNL     1      29.074  -2.159  53.290  1.00  0.00     0.002 A 
HETATM   18  C12 UNL     1      30.062  -1.276  53.661  1.00  0.00     0.000 A 
HETATM   19  C13 UNL     1      30.016   0.102  53.765  1.00  0.00     0.002 A 
HETATM   20  C14 UNL     1      28.767   0.641  53.438  1.00  0.00     0.029 A 
ENDBRANCH  13  15
ENDBRANCH   9  13
ENDBRANCH   6   7
BRANCH   5  21
HETATM   21  O1  UNL     1      25.818   6.459  49.025  1.00  0.00    -0.352 OA
BRANCH  21  22
HETATM   22  C16 UNL     1      26.652   7.547  49.227  1.00  0.00     0.195 C 
BRANCH  22  23
HETATM   23  C17 UNL     1      27.753   7.523  48.155  1.00  0.00     0.144 C 
BRANCH  23  24
HETATM   24  N5  UNL     1      29.017   7.853  48.682  1.00  0.00    -0.403 N 
HETATM   25  C18 UNL     1      29.233   9.182  49.125  1.00  0.00     0.143 C 
HETATM   26  C19 UNL     1      30.726   9.457  49.105  1.00  0.00     0.187 C 
HETATM   27  O2  UNL     1      31.452   8.505  49.772  1.00  0.00    -0.388 OA
HETATM   28  C20 UNL     1      31.297   7.214  49.275  1.00  0.00     0.192 C 
HETATM   29  C21 UNL     1      30.162   7.146  48.256  1.00  0.00     0.099 C 
HETATM   30  C22 UNL     1      29.951   5.711  47.908  1.00  0.00     0.034 C 
ENDBRANCH  23  24
ENDBRANCH  22  23
ENDBRANCH  21  22
ENDBRANCH   5  21
ENDBRANCH   4   5
ENDBRANCH   3   4
TORSDOF 9
ENDMDL
MODEL 7
REMARK VINA RESULT:      -7.4      4.605      6.508
REMARK  9 active torsions:
REMARK  status: ('A' for Active; 'I' for Inactive)
REMARK    1  A    between atoms: N1_3  and  C3_4 
REMARK    2  A    between atoms: C3_4  and  C4_5 
REMARK    3  A    between atoms: C4_5  and  O1_20 
REMARK    4  A    between atoms: C5_6  and  C6_7 
REMARK    5  A    between atoms: C8_9  and  N2_10 
REMARK    6  A    between atoms: N2_10  and  C9_11 
REMARK    7  A    between atoms: O1_20  and  C16_21 
REMARK    8  A    between atoms: C16_21  and  C17_22 
REMARK    9  A    between atoms: C17_22  and  N5_23 
ROOT
HETATM    1  C1  UNL     1      22.034   8.330  49.359  1.00  0.00     0.119 C 
HETATM    2  C2  UNL     1      22.524   7.390  50.156  1.00  0.00    -0.049 C 
HETATM    3  N1  UNL     1      23.186   6.505  50.825  1.00  0.00    -0.246 NA
ENDROOT
BRANCH   3   4
HETATM    4  C3  UNL     1      24.599   6.806  50.989  1.00  0.00     0.223 C 
BRANCH   4   5
HETATM    5  C4  UNL     1      25.454   6.186  49.954  1.00  0.00     0.069 C 
HETATM    6  C5  UNL     1      25.865   4.960  49.734  1.00  0.00     0.066 C 
BRANCH   6   7
HETATM    7  C6  UNL     1      25.646   3.704  50.437  1.00  0.00     0.064 A 
HETATM    8  C7  UNL     1      24.426   3.131  50.714  1.00  0.00     0.082 A 
HETATM    9  C8  UNL     1      24.471   1.941  51.372  1.00  0.00     0.131 A 
HETATM   10  N3  UNL     1      25.633   1.379  51.720  1.00  0.00    -0.224 NA
HETATM   11  C15 UNL     1      26.828   1.927  51.455  1.00  0.00     0.235 A 
HETATM   12  N4  UNL     1      26.798   3.124  50.794  1.00  0.00    -0.242 NA
BRANCH   9  13
HETATM   13  N2  UNL     1      23.324   1.221  51.760  1.00  0.00    -0.341 N 
HETATM   14  H7  UNL     1      22.584   0.946  51.064  1.00  0.00     0.167 HD
BRANCH  13  15
HETATM   15  C9  UNL     1      22.611   0.617  52.808  1.00  0.00     0.033 A 
HETATM   16  C10 UNL     1      23.248  -0.414  53.515  1.00  0.00     0.029 A 
HETATM   17  C11 UNL     1      22.641  -1.106  54.572  1.00  0.00     0.002 A 
HETATM   18  C12 UNL     1      21.363  -0.667  54.835  1.00  0.00     0.000 A 
HETATM   19  C13 UNL     1      20.631   0.329  54.217  1.00  0.00     0.002 A 
HETATM   20  C14 UNL     1      21.322   0.961  53.176  1.00  0.00     0.029 A 
ENDBRANCH  13  15
ENDBRANCH   9  13
ENDBRANCH   6   7
BRANCH   5  21
HETATM   21  O1  UNL     1      25.820   7.203  49.125  1.00  0.00    -0.352 OA
BRANCH  21  22
HETATM   22  C16 UNL     1      26.854   8.114  49.257  1.00  0.00     0.195 C 
BRANCH  22  23
HETATM   23  C17 UNL     1      27.898   7.828  48.167  1.00  0.00     0.144 C 
BRANCH  23  24
HETATM   24  N5  UNL     1      29.216   7.886  48.662  1.00  0.00    -0.403 N 
HETATM   25  C18 UNL     1      29.753   9.156  48.993  1.00  0.00     0.143 C 
HETATM   26  C19 UNL     1      31.268   9.062  48.947  1.00  0.00     0.187 C 
HETATM   27  O2  UNL     1      31.759   8.020  49.690  1.00  0.00    -0.388 OA
HETATM   28  C20 UNL     1      31.290   6.768  49.303  1.00  0.00     0.192 C 
HETATM   29  C21 UNL     1      30.150   6.894  48.295  1.00  0.00     0.099 C 
HETATM   30  C22 UNL     1      29.594   5.528  48.068  1.00  0.00     0.034 C 
ENDBRANCH  23  24
ENDBRANCH  22  23
ENDBRANCH  21  22
ENDBRANCH   5  21
ENDBRANCH   4   5
ENDBRANCH   3   4
TORSDOF 9
ENDMDL
MODEL 8
REMARK VINA RESULT:      -7.3      2.685      7.067
REMARK  9 active torsions:
REMARK  status: ('A' for Active; 'I' for Inactive)
REMARK    1  A    between atoms: N1_3  and  C3_4 
REMARK    2  A    between atoms: C3_4  and  C4_5 
REMARK    3  A    between atoms: C4_5  and  O1_20 
REMARK    4  A    between atoms: C5_6  and  C6_7 
REMARK    5  A    between atoms: C8_9  and  N2_10 
REMARK    6  A    between atoms: N2_10  and  C9_11 
REMARK    7  A    between atoms: O1_20  and  C16_21 
REMARK    8  A    between atoms: C16_21  and  C17_22 
REMARK    9  A    between atoms: C17_22  and  N5_23 
ROOT
HETATM    1  C1  UNL     1      16.329  -0.540  50.139  1.00  0.00     0.119 C 
HETATM    2  C2  UNL     1      16.908   0.489  50.742  1.00  0.00    -0.049 C 
HETATM    3  N1  UNL     1      17.606   1.345  51.412  1.00  0.00    -0.246 NA
ENDROOT
BRANCH   3   4
HETATM    4  C3  UNL     1      19.010   0.995  51.560  1.00  0.00     0.223 C 
BRANCH   4   5
HETATM    5  C4  UNL     1      19.804   2.038  52.244  1.00  0.00     0.069 C 
HETATM    6  C5  UNL     1      20.878   2.012  52.994  1.00  0.00     0.066 C 
BRANCH   6   7
HETATM    7  C6  UNL     1      21.729   0.928  53.465  1.00  0.00     0.064 A 
HETATM    8  C7  UNL     1      23.009   0.657  53.040  1.00  0.00     0.082 A 
HETATM    9  C8  UNL     1      23.614  -0.406  53.636  1.00  0.00     0.131 A 
HETATM   10  N3  UNL     1      22.992  -1.128  54.573  1.00  0.00    -0.224 NA
HETATM   11  C15 UNL     1      21.746  -0.874  54.996  1.00  0.00     0.235 A 
HETATM   12  N4  UNL     1      21.124   0.192  54.404  1.00  0.00    -0.242 NA
BRANCH   9  13
HETATM   13  N2  UNL     1      24.912  -0.846  53.312  1.00  0.00    -0.341 N 
HETATM   14  H7  UNL     1      25.077  -1.600  52.596  1.00  0.00     0.167 HD
BRANCH  13  15
HETATM   15  C9  UNL     1      26.291  -0.720  53.546  1.00  0.00     0.033 A 
HETATM   16  C10 UNL     1      26.700   0.180  54.541  1.00  0.00     0.029 A 
HETATM   17  C11 UNL     1      28.046   0.407  54.861  1.00  0.00     0.002 A 
HETATM   18  C12 UNL     1      28.912  -0.342  54.098  1.00  0.00     0.000 A 
HETATM   19  C13 UNL     1      28.637  -1.255  53.097  1.00  0.00     0.002 A 
HETATM   20  C14 UNL     1      27.268  -1.414  52.852  1.00  0.00     0.029 A 
ENDBRANCH  13  15
ENDBRANCH   9  13
ENDBRANCH   6   7
BRANCH   5  21
HETATM   21  O1  UNL     1      19.185   3.216  51.954  1.00  0.00    -0.352 OA
BRANCH  21  22
HETATM   22  C16 UNL     1      19.639   4.284  51.197  1.00  0.00     0.195 C 
BRANCH  22  23
HETATM   23  C17 UNL     1      20.420   3.731  49.994  1.00  0.00     0.144 C 
BRANCH  23  24
HETATM   24  N5  UNL     1      21.811   3.910  50.133  1.00  0.00    -0.403 N 
HETATM   25  C18 UNL     1      22.299   5.222  50.356  1.00  0.00     0.143 C 
HETATM   26  C19 UNL     1      23.752   5.273  49.917  1.00  0.00     0.187 C 
HETATM   27  O2  UNL     1      24.511   4.276  50.472  1.00  0.00    -0.388 OA
HETATM   28  C20 UNL     1      24.071   2.989  50.177  1.00  0.00     0.192 C 
HETATM   29  C21 UNL     1      22.701   3.015  49.504  1.00  0.00     0.099 C 
HETATM   30  C22 UNL     1      22.230   1.604  49.382  1.00  0.00     0.034 C 
ENDBRANCH  23  24
ENDBRANCH  22  23
ENDBRANCH  21  22
ENDBRANCH   5  21
ENDBRANCH   4   5
ENDBRANCH   3   4
TORSDOF 9
ENDMDL
MODEL 9
REMARK VINA RESULT:      -7.2      3.590      7.679
REMARK  9 active torsions:
REMARK  status: ('A' for Active; 'I' for Inactive)
REMARK    1  A    between atoms: N1_3  and  C3_4 
REMARK    2  A    between atoms: C3_4  and  C4_5 
REMARK    3  A    between atoms: C4_5  and  O1_20 
REMARK    4  A    between atoms: C5_6  and  C6_7 
REMARK    5  A    between atoms: C8_9  and  N2_10 
REMARK    6  A    between atoms: N2_10  and  C9_11 
REMARK    7  A    between atoms: O1_20  and  C16_21 
REMARK    8  A    between atoms: C16_21  and  C17_22 
REMARK    9  A    between atoms: C17_22  and  N5_23 
ROOT
HETATM    1  C1  UNL     1      26.856   4.029  49.257  1.00  0.00     0.119 C 
HETATM    2  C2  UNL     1      25.608   3.787  49.633  1.00  0.00    -0.049 C 
HETATM    3  N1  UNL     1      24.461   3.603  50.197  1.00  0.00    -0.246 NA
ENDROOT
BRANCH   3   4
HETATM    4  C3  UNL     1      24.204   4.467  51.339  1.00  0.00     0.223 C 
BRANCH   4   5
HETATM    5  C4  UNL     1      22.843   4.310  51.896  1.00  0.00     0.069 C 
HETATM    6  C5  UNL     1      22.181   3.295  52.397  1.00  0.00     0.066 C 
BRANCH   6   7
HETATM    7  C6  UNL     1      22.525   1.895  52.602  1.00  0.00     0.064 A 
HETATM    8  C7  UNL     1      23.748   1.410  53.003  1.00  0.00     0.082 A 
HETATM    9  C8  UNL     1      23.829   0.059  53.141  1.00  0.00     0.131 A 
HETATM   10  N3  UNL     1      22.779  -0.731  52.897  1.00  0.00    -0.224 NA
HETATM   11  C15 UNL     1      21.582  -0.271  52.506  1.00  0.00     0.235 A 
HETATM   12  N4  UNL     1      21.487   1.086  52.363  1.00  0.00    -0.242 NA
BRANCH   9  13
HETATM   13  N2  UNL     1      25.006  -0.616  53.520  1.00  0.00    -0.341 N 
HETATM   14  H7  UNL     1      24.994  -1.632  53.800  1.00  0.00     0.167 HD
BRANCH  13  15
HETATM   15  C9  UNL     1      26.392  -0.541  53.728  1.00  0.00     0.033 A 
HETATM   16  C10 UNL     1      27.210  -1.387  52.965  1.00  0.00     0.029 A 
HETATM   17  C11 UNL     1      28.606  -1.418  53.087  1.00  0.00     0.002 A 
HETATM   18  C12 UNL     1      29.080  -0.535  54.030  1.00  0.00     0.000 A 
HETATM   19  C13 UNL     1      28.385   0.345  54.839  1.00  0.00     0.002 A 
HETATM   20  C14 UNL     1      27.000   0.303  54.643  1.00  0.00     0.029 A 
ENDBRANCH  13  15
ENDBRANCH   9  13
ENDBRANCH   6   7
BRANCH   5  21
HETATM   21  O1  UNL     1      22.271   5.543  51.813  1.00  0.00    -0.352 OA
BRANCH  21  22
HETATM   22  C16 UNL     1      21.745   6.194  50.709  1.00  0.00     0.195 C 
BRANCH  22  23
HETATM   23  C17 UNL     1      22.509   7.512  50.511  1.00  0.00     0.144 C 
BRANCH  23  24
HETATM   24  N5  UNL     1      23.109   7.596  49.239  1.00  0.00    -0.403 N 
HETATM   25  C18 UNL     1      22.327   7.256  48.106  1.00  0.00     0.143 C 
HETATM   26  C19 UNL     1      23.265   6.870  46.975  1.00  0.00     0.187 C 
HETATM   27  O2  UNL     1      24.234   7.811  46.743  1.00  0.00    -0.388 OA
HETATM   28  C20 UNL     1      25.050   8.077  47.838  1.00  0.00     0.192 C 
HETATM   29  C21 UNL     1      24.503   7.423  49.106  1.00  0.00     0.099 C 
HETATM   30  C22 UNL     1      25.331   7.897  50.253  1.00  0.00     0.034 C 
ENDBRANCH  23  24
ENDBRANCH  22  23
ENDBRANCH  21  22
ENDBRANCH   5  21
ENDBRANCH   4   5
ENDBRANCH   3   4
TORSDOF 9
ENDMDL
