MODEL 1
REMARK VINA RESULT:      -8.5      0.000      0.000
REMARK  0 active torsions:
REMARK  status: ('A' for Active; 'I' for Inactive)
ROOT
HETATM    1  C1  UNL     1      20.418   2.446  52.707  1.00  0.00     0.012 C 
HETATM    2  C2  UNL     1      20.679   1.923  51.346  1.00  0.00     0.073 A 
HETATM    3  C3  UNL     1      20.971   2.646  50.437  1.00  0.00     0.051 A 
HETATM    4  O1  UNL     1      20.599   1.715  51.588  1.00  0.00     0.000 OA
HETATM    5  C4  UNL     1      21.510   0.525  51.607  1.00  0.00     0.034 A 
HETATM    6  C5  UNL     1      22.026   0.113  52.873  1.00  0.00    -0.014 C 
HETATM    7  C6  UNL     1      23.114   0.578  53.495  1.00  0.00    -0.023 C 
HETATM    8  C7  UNL     1      24.142   0.607  52.695  1.00  0.00    -0.043 C 
HETATM    9  C8  UNL     1      23.947   1.250  51.400  1.00  0.00     0.022 C 
HETATM   10  C9  UNL     1      24.709   2.386  51.320  1.00  0.00    -0.006 C 
HETATM   11  C10 UNL     1      26.088   2.040  51.643  1.00  0.00     0.010 C 
HETATM   12  C11 UNL     1      26.441   0.789  51.958  1.00  0.00    -0.021 C 
HETATM   13  C12 UNL     1      25.502   0.088  52.873  1.00  0.00     0.066 C 
HETATM   14  C13 UNL     1      24.429   3.790  50.991  1.00  0.00     0.078 A 
HETATM   15  N1  UNL     1      24.914   3.871  49.715  1.00  0.00    -0.241 NA
HETATM   16  C14 UNL     1      24.704   5.055  49.042  1.00  0.00     0.236 A 
HETATM   17  N2  UNL     1      24.037   6.061  49.659  1.00  0.00    -0.224 NA
HETATM   18  C15 UNL     1      23.582   5.955  50.887  1.00  0.00     0.133 A 
HETATM   19  C16 UNL     1      23.761   4.806  51.629  1.00  0.00     0.013 A 
HETATM   20  C17 UNL     1      23.458   4.505  53.053  1.00  0.00     0.055 C 
HETATM   21  N3  UNL     1      22.782   7.013  51.466  1.00  0.00    -0.371 N 
HETATM   22  C18 UNL     1      21.549   6.751  50.654  1.00  0.00     0.150 C 
HETATM   23  C19 UNL     1      21.306   5.329  50.801  1.00  0.00     0.012 C 
HETATM   24  C20 UNL     1      21.141   4.068  50.668  1.00  0.00     0.013 A 
HETATM   25 CL1  UNL     1      21.431   3.834  48.978  1.00  0.00    -0.175 Cl
HETATM   26  H17 UNL     1      23.545   7.324  52.098  1.00  0.00     0.161 HD
ENDROOT
TORSDOF 0
ENDMDL
MODEL 2
REMARK VINA RESULT:      -8.5      2.668      4.537
REMARK  0 active torsions:
REMARK  status: ('A' for Active; 'I' for Inactive)
ROOT
HETATM    1  C1  UNL     1      24.393   2.855  50.473  1.00  0.00     0.012 C 
HETATM    2  C2  UNL     1      23.792   3.631  51.583  1.00  0.00     0.073 A 
HETATM    3  C3  UNL     1      22.703   4.121  51.494  1.00  0.00     0.051 A 
HETATM    4  O1  UNL     1      24.093   3.501  51.619  1.00  0.00     0.000 OA
HETATM    5  C4  UNL     1      24.232   2.800  52.936  1.00  0.00     0.034 A 
HETATM    6  C5  UNL     1      24.843   1.510  52.931  1.00  0.00    -0.014 C 
HETATM    7  C6  UNL     1      24.252   0.332  52.708  1.00  0.00    -0.023 C 
HETATM    8  C7  UNL     1      23.171   0.201  53.425  1.00  0.00    -0.043 C 
HETATM    9  C8  UNL     1      22.215   1.302  53.378  1.00  0.00     0.022 C 
HETATM   10  C9  UNL     1      21.053   0.889  52.780  1.00  0.00    -0.006 C 
HETATM   11  C10 UNL     1      20.587  -0.314  53.460  1.00  0.00     0.010 C 
HETATM   12  C11 UNL     1      21.262  -0.847  54.484  1.00  0.00    -0.021 C 
HETATM   13  C12 UNL     1      22.737  -0.893  54.301  1.00  0.00     0.066 C 
HETATM   14  C13 UNL     1      20.237   1.389  51.666  1.00  0.00     0.078 A 
HETATM   15  N1  UNL     1      19.200   1.979  52.332  1.00  0.00    -0.241 NA
HETATM   16  C14 UNL     1      18.280   2.668  51.572  1.00  0.00     0.236 A 
HETATM   17  N2  UNL     1      18.445   2.732  50.227  1.00  0.00    -0.224 NA
HETATM   18  C15 UNL     1      19.452   2.156  49.613  1.00  0.00     0.133 A 
HETATM   19  C16 UNL     1      20.408   1.440  50.304  1.00  0.00     0.013 A 
HETATM   20  C17 UNL     1      21.543   0.608  49.823  1.00  0.00     0.055 C 
HETATM   21  N3  UNL     1      19.647   2.343  48.191  1.00  0.00    -0.371 N 
HETATM   22  C18 UNL     1      20.108   3.768  48.274  1.00  0.00     0.150 C 
HETATM   23  C19 UNL     1      21.154   3.759  49.277  1.00  0.00     0.012 C 
HETATM   24  C20 UNL     1      21.908   3.907  50.300  1.00  0.00     0.013 A 
HETATM   25 CL1  UNL     1      20.944   4.914  51.326  1.00  0.00    -0.175 Cl
HETATM   26  H17 UNL     1      19.348   1.376  47.963  1.00  0.00     0.161 HD
ENDROOT
TORSDOF 0
ENDMDL
MODEL 3
REMARK VINA RESULT:      -8.3      2.546      5.019
REMARK  0 active torsions:
REMARK  status: ('A' for Active; 'I' for Inactive)
ROOT
HETATM    1  C1  UNL     1      21.228   6.598  49.133  1.00  0.00     0.012 C 
HETATM    2  C2  UNL     1      21.727   6.495  50.525  1.00  0.00     0.073 A 
HETATM    3  C3  UNL     1      21.512   5.531  51.203  1.00  0.00     0.051 A 
HETATM    4  O1  UNL     1      21.793   6.764  50.348  1.00  0.00     0.000 OA
HETATM    5  C4  UNL     1      23.235   7.155  50.458  1.00  0.00     0.034 A 
HETATM    6  C5  UNL     1      23.916   7.501  49.251  1.00  0.00    -0.014 C 
HETATM    7  C6  UNL     1      24.518   6.671  48.394  1.00  0.00    -0.023 C 
HETATM    8  C7  UNL     1      25.310   5.841  49.013  1.00  0.00    -0.043 C 
HETATM    9  C8  UNL     1      24.747   5.123  50.151  1.00  0.00     0.022 C 
HETATM   10  C9  UNL     1      24.674   3.784  49.872  1.00  0.00    -0.006 C 
HETATM   11  C10 UNL     1      25.990   3.331  49.438  1.00  0.00     0.010 C 
HETATM   12  C11 UNL     1      27.028   4.170  49.356  1.00  0.00    -0.021 C 
HETATM   13  C12 UNL     1      26.712   5.495  48.759  1.00  0.00     0.066 C 
HETATM   14  C13 UNL     1      23.603   2.780  49.925  1.00  0.00     0.078 A 
HETATM   15  N1  UNL     1      23.920   2.104  51.069  1.00  0.00    -0.241 NA
HETATM   16  C14 UNL     1      23.031   1.140  51.491  1.00  0.00     0.236 A 
HETATM   17  N2  UNL     1      21.905   0.913  50.772  1.00  0.00    -0.224 NA
HETATM   18  C15 UNL     1      21.625   1.579  49.675  1.00  0.00     0.133 A 
HETATM   19  C16 UNL     1      22.470   2.553  49.183  1.00  0.00     0.013 A 
HETATM   20  C17 UNL     1      22.431   3.332  47.917  1.00  0.00     0.055 C 
HETATM   21  N3  UNL     1      20.359   1.381  49.000  1.00  0.00    -0.371 N 
HETATM   22  C18 UNL     1      19.516   2.090  50.017  1.00  0.00     0.150 C 
HETATM   23  C19 UNL     1      20.177   3.365  50.220  1.00  0.00     0.012 C 
HETATM   24  C20 UNL     1      20.800   4.398  50.646  1.00  0.00     0.013 A 
HETATM   25 CL1  UNL     1      21.144   3.970  52.287  1.00  0.00    -0.175 Cl
HETATM   26  H17 UNL     1      20.794   0.862  48.213  1.00  0.00     0.161 HD
ENDROOT
TORSDOF 0
ENDMDL
MODEL 4
REMARK VINA RESULT:      -8.2      1.420      1.978
REMARK  0 active torsions:
REMARK  status: ('A' for Active; 'I' for Inactive)
ROOT
HETATM    1  C1  UNL     1      19.802   3.169  50.771  1.00  0.00     0.012 C 
HETATM    2  C2  UNL     1      20.475   2.216  49.857  1.00  0.00     0.073 A 
HETATM    3  C3  UNL     1      21.448   2.523  49.230  1.00  0.00     0.051 A 
HETATM    4  O1  UNL     1      20.209   2.120  50.025  1.00  0.00     0.000 OA
HETATM    5  C4  UNL     1      20.414   0.779  50.662  1.00  0.00     0.034 A 
HETATM    6  C5  UNL     1      20.005   0.629  52.021  1.00  0.00    -0.014 C 
HETATM    7  C6  UNL     1      20.710   0.922  53.118  1.00  0.00    -0.023 C 
HETATM    8  C7  UNL     1      21.911   0.418  53.059  1.00  0.00    -0.043 C 
HETATM    9  C8  UNL     1      22.673   0.677  51.843  1.00  0.00     0.022 C 
HETATM   10  C9  UNL     1      23.755   1.470  52.126  1.00  0.00    -0.006 C 
HETATM   11  C10 UNL     1      24.505   0.852  53.213  1.00  0.00     0.010 C 
HETATM   12  C11 UNL     1      24.111  -0.296  53.773  1.00  0.00    -0.021 C 
HETATM   13  C12 UNL     1      22.651  -0.395  54.031  1.00  0.00     0.066 C 
HETATM   14  C13 UNL     1      24.273   2.732  51.585  1.00  0.00     0.078 A 
HETATM   15  N1  UNL     1      25.318   2.291  50.822  1.00  0.00    -0.241 NA
HETATM   16  C14 UNL     1      25.974   3.232  50.059  1.00  0.00     0.236 A 
HETATM   17  N2  UNL     1      25.561   4.523  50.094  1.00  0.00    -0.224 NA
HETATM   18  C15 UNL     1      24.553   4.919  50.838  1.00  0.00     0.133 A 
HETATM   19  C16 UNL     1      23.853   4.039  51.636  1.00  0.00     0.013 A 
HETATM   20  C17 UNL     1      22.782   4.271  52.642  1.00  0.00     0.055 C 
HETATM   21  N3  UNL     1      24.078   6.284  50.761  1.00  0.00    -0.371 N 
HETATM   22  C18 UNL     1      23.439   6.161  49.410  1.00  0.00     0.150 C 
HETATM   23  C19 UNL     1      22.604   4.979  49.503  1.00  0.00     0.012 C 
HETATM   24  C20 UNL     1      22.036   3.838  49.402  1.00  0.00     0.013 A 
HETATM   25 CL1  UNL     1      23.013   3.043  48.215  1.00  0.00    -0.175 Cl
HETATM   26  H17 UNL     1      24.468   6.534  51.690  1.00  0.00     0.161 HD
ENDROOT
TORSDOF 0
ENDMDL
MODEL 5
REMARK VINA RESULT:      -8.2      7.918     10.836
REMARK  0 active torsions:
REMARK  status: ('A' for Active; 'I' for Inactive)
ROOT
HETATM    1  C1  UNL     1      31.871   9.816  47.559  1.00  0.00     0.012 C 
HETATM    2  C2  UNL     1      31.477   9.142  46.299  1.00  0.00     0.073 A 
HETATM    3  C3  UNL     1      32.018   8.142  45.922  1.00  0.00     0.051 A 
HETATM    4  O1  UNL     1      31.321   9.416  46.393  1.00  0.00     0.000 OA
HETATM    5  C4  UNL     1      29.835   9.269  46.275  1.00  0.00     0.034 A 
HETATM    6  C5  UNL     1      29.041   9.723  47.372  1.00  0.00    -0.014 C 
HETATM    7  C6  UNL     1      28.718   9.044  48.476  1.00  0.00    -0.023 C 
HETATM    8  C7  UNL     1      28.263   7.857  48.188  1.00  0.00    -0.043 C 
HETATM    9  C8  UNL     1      29.066   7.051  47.274  1.00  0.00     0.022 C 
HETATM   10  C9  UNL     1      29.566   5.956  47.930  1.00  0.00    -0.006 C 
HETATM   11  C10 UNL     1      28.459   5.257  48.571  1.00  0.00     0.010 C 
HETATM   12  C11 UNL     1      27.201   5.700  48.476  1.00  0.00    -0.021 C 
HETATM   13  C12 UNL     1      27.045   7.171  48.631  1.00  0.00     0.066 C 
HETATM   14  C13 UNL     1      30.909   5.386  48.100  1.00  0.00     0.078 A 
HETATM   15  N1  UNL     1      30.867   4.331  47.232  1.00  0.00    -0.241 NA
HETATM   16  C14 UNL     1      32.036   3.625  47.050  1.00  0.00     0.236 A 
HETATM   17  N2  UNL     1      33.152   4.003  47.723  1.00  0.00    -0.224 NA
HETATM   18  C15 UNL     1      33.163   5.021  48.552  1.00  0.00     0.133 A 
HETATM   19  C16 UNL     1      32.030   5.771  48.794  1.00  0.00     0.013 A 
HETATM   20  C17 UNL     1      31.771   6.864  49.767  1.00  0.00     0.055 C 
HETATM   21  N3  UNL     1      34.401   5.455  49.163  1.00  0.00    -0.371 N 
HETATM   22  C18 UNL     1      34.996   6.056  47.924  1.00  0.00     0.150 C 
HETATM   23  C19 UNL     1      33.960   6.926  47.403  1.00  0.00     0.012 C 
HETATM   24  C20 UNL     1      33.046   7.523  46.736  1.00  0.00     0.013 A 
HETATM   25 CL1  UNL     1      32.913   6.533  45.324  1.00  0.00    -0.175 Cl
HETATM   26  H17 UNL     1      34.137   5.087  50.097  1.00  0.00     0.161 HD
ENDROOT
TORSDOF 0
ENDMDL
MODEL 6
REMARK VINA RESULT:      -8.0      2.121      3.066
REMARK  0 active torsions:
REMARK  status: ('A' for Active; 'I' for Inactive)
ROOT
HETATM    1  C1  UNL     1      20.249   3.268  47.838  1.00  0.00     0.012 C 
HETATM    2  C2  UNL     1      21.689   3.272  47.489  1.00  0.00     0.073 A 
HETATM    3  C3  UNL     1      22.356   4.263  47.573  1.00  0.00     0.051 A 
HETATM    4  O1  UNL     1      21.516   2.994  47.462  1.00  0.00     0.000 OA
HETATM    5  C4  UNL     1      22.245   1.834  48.070  1.00  0.00     0.034 A 
HETATM    6  C5  UNL     1      21.499   0.957  48.913  1.00  0.00    -0.014 C 
HETATM    7  C6  UNL     1      21.255   1.100  50.219  1.00  0.00    -0.023 C 
HETATM    8  C7  UNL     1      22.346   1.369  50.879  1.00  0.00    -0.043 C 
HETATM    9  C8  UNL     1      23.174   2.454  50.364  1.00  0.00     0.022 C 
HETATM   10  C9  UNL     1      23.188   3.497  51.252  1.00  0.00    -0.006 C 
HETATM   11  C10 UNL     1      23.576   2.983  52.560  1.00  0.00     0.010 C 
HETATM   12  C11 UNL     1      23.847   1.688  52.752  1.00  0.00    -0.021 C 
HETATM   13  C12 UNL     1      22.907   0.749  52.084  1.00  0.00     0.066 C 
HETATM   14  C13 UNL     1      22.910   4.936  51.152  1.00  0.00     0.078 A 
HETATM   15  N1  UNL     1      24.174   5.457  51.155  1.00  0.00    -0.241 NA
HETATM   16  C14 UNL     1      24.289   6.815  50.953  1.00  0.00     0.236 A 
HETATM   17  N2  UNL     1      23.170   7.556  50.760  1.00  0.00    -0.224 NA
HETATM   18  C15 UNL     1      21.967   7.028  50.762  1.00  0.00     0.133 A 
HETATM   19  C16 UNL     1      21.769   5.678  50.967  1.00  0.00     0.013 A 
HETATM   20  C17 UNL     1      20.521   4.889  51.139  1.00  0.00     0.055 C 
HETATM   21  N3  UNL     1      20.811   7.839  50.443  1.00  0.00    -0.371 N 
HETATM   22  C18 UNL     1      21.094   7.961  48.976  1.00  0.00     0.150 C 
HETATM   23  C19 UNL     1      21.323   6.600  48.530  1.00  0.00     0.012 C 
HETATM   24  C20 UNL     1      21.773   5.488  48.087  1.00  0.00     0.013 A 
HETATM   25 CL1  UNL     1      23.414   5.880  47.703  1.00  0.00    -0.175 Cl
HETATM   26  H17 UNL     1      20.477   7.852  51.426  1.00  0.00     0.161 HD
ENDROOT
TORSDOF 0
ENDMDL
MODEL 7
REMARK VINA RESULT:      -7.5      9.642     12.790
REMARK  0 active torsions:
REMARK  status: ('A' for Active; 'I' for Inactive)
ROOT
HETATM    1  C1  UNL     1      34.819   9.005  45.245  1.00  0.00     0.012 C 
HETATM    2  C2  UNL     1      33.472   8.711  44.701  1.00  0.00     0.073 A 
HETATM    3  C3  UNL     1      32.929   7.661  44.895  1.00  0.00     0.051 A 
HETATM    4  O1  UNL     1      33.612   9.003  44.642  1.00  0.00     0.000 OA
HETATM    5  C4  UNL     1      32.651  10.127  44.880  1.00  0.00     0.034 A 
HETATM    6  C5  UNL     1      33.127  11.253  45.619  1.00  0.00    -0.014 C 
HETATM    7  C6  UNL     1      33.158  11.397  46.947  1.00  0.00    -0.023 C 
HETATM    8  C7  UNL     1      32.011  11.090  47.485  1.00  0.00    -0.043 C 
HETATM    9  C8  UNL     1      31.425   9.813  47.095  1.00  0.00     0.022 C 
HETATM   10  C9  UNL     1      31.387   8.966  48.172  1.00  0.00    -0.006 C 
HETATM   11  C10 UNL     1      30.719   9.649  49.273  1.00  0.00     0.010 C 
HETATM   12  C11 UNL     1      30.261  10.899  49.147  1.00  0.00    -0.021 C 
HETATM   13  C12 UNL     1      31.179  11.830  48.439  1.00  0.00     0.066 C 
HETATM   14  C13 UNL     1      31.854   7.595  48.418  1.00  0.00     0.078 A 
HETATM   15  N1  UNL     1      30.683   6.893  48.348  1.00  0.00    -0.241 NA
HETATM   16  C14 UNL     1      30.772   5.520  48.422  1.00  0.00     0.236 A 
HETATM   17  N2  UNL     1      31.991   4.940  48.552  1.00  0.00    -0.224 NA
HETATM   18  C15 UNL     1      33.101   5.639  48.616  1.00  0.00     0.133 A 
HETATM   19  C16 UNL     1      33.092   7.018  48.559  1.00  0.00     0.013 A 
HETATM   20  C17 UNL     1      34.185   8.010  48.739  1.00  0.00     0.055 C 
HETATM   21  N3  UNL     1      34.386   4.974  48.645  1.00  0.00    -0.371 N 
HETATM   22  C18 UNL     1      34.377   4.535  47.210  1.00  0.00     0.150 C 
HETATM   23  C19 UNL     1      34.062   5.735  46.460  1.00  0.00     0.012 C 
HETATM   24  C20 UNL     1      33.561   6.661  45.733  1.00  0.00     0.013 A 
HETATM   25 CL1  UNL     1      32.072   5.953  45.209  1.00  0.00    -0.175 Cl
HETATM   26  H17 UNL     1      34.545   5.197  49.646  1.00  0.00     0.161 HD
ENDROOT
TORSDOF 0
ENDMDL
MODEL 8
REMARK VINA RESULT:      -7.4      9.525     11.352
REMARK  0 active torsions:
REMARK  status: ('A' for Active; 'I' for Inactive)
ROOT
HETATM    1  C1  UNL     1      32.462   5.790  49.342  1.00  0.00     0.012 C 
HETATM    2  C2  UNL     1      31.391   5.300  48.443  1.00  0.00     0.073 A 
HETATM    3  C3  UNL     1      30.640   6.049  47.888  1.00  0.00     0.051 A 
HETATM    4  O1  UNL     1      31.592   5.084  48.590  1.00  0.00     0.000 OA
HETATM    5  C4  UNL     1      32.097   4.058  47.622  1.00  0.00     0.034 A 
HETATM    6  C5  UNL     1      33.490   3.751  47.657  1.00  0.00    -0.014 C 
HETATM    7  C6  UNL     1      34.479   4.393  47.027  1.00  0.00    -0.023 C 
HETATM    8  C7  UNL     1      34.197   4.579  45.768  1.00  0.00    -0.043 C 
HETATM    9  C8  UNL     1      32.895   5.165  45.467  1.00  0.00     0.022 C 
HETATM   10  C9  UNL     1      33.057   6.409  44.914  1.00  0.00    -0.006 C 
HETATM   11  C10 UNL     1      33.967   6.294  43.781  1.00  0.00     0.010 C 
HETATM   12  C11 UNL     1      34.504   5.121  43.428  1.00  0.00    -0.021 C 
HETATM   13  C12 UNL     1      34.982   4.289  44.563  1.00  0.00     0.066 C 
HETATM   14  C13 UNL     1      32.526   7.744  45.216  1.00  0.00     0.078 A 
HETATM   15  N1  UNL     1      31.579   7.887  44.241  1.00  0.00    -0.241 NA
HETATM   16  C14 UNL     1      30.787   9.013  44.300  1.00  0.00     0.236 A 
HETATM   17  N2  UNL     1      30.975   9.906  45.304  1.00  0.00    -0.224 NA
HETATM   18  C15 UNL     1      31.893   9.742  46.228  1.00  0.00     0.133 A 
HETATM   19  C16 UNL     1      32.732   8.647  46.231  1.00  0.00     0.013 A 
HETATM   20  C17 UNL     1      33.907   8.318  47.080  1.00  0.00     0.055 C 
HETATM   21  N3  UNL     1      31.985  10.664  47.340  1.00  0.00    -0.371 N 
HETATM   22  C18 UNL     1      30.747  10.196  48.046  1.00  0.00     0.150 C 
HETATM   23  C19 UNL     1      30.891   8.755  48.127  1.00  0.00     0.012 C 
HETATM   24  C20 UNL     1      30.804   7.482  48.038  1.00  0.00     0.013 A 
HETATM   25 CL1  UNL     1      29.427   7.278  47.011  1.00  0.00    -0.175 Cl
HETATM   26  H17 UNL     1      32.855  11.102  46.982  1.00  0.00     0.161 HD
ENDROOT
TORSDOF 0
ENDMDL
MODEL 9
REMARK VINA RESULT:      -7.4      8.763     11.812
REMARK  0 active torsions:
REMARK  status: ('A' for Active; 'I' for Inactive)
ROOT
HETATM    1  C1  UNL     1      34.059   8.212  46.234  1.00  0.00     0.012 C 
HETATM    2  C2  UNL     1      33.204   7.672  45.151  1.00  0.00     0.073 A 
HETATM    3  C3  UNL     1      33.205   6.509  44.865  1.00  0.00     0.051 A 
HETATM    4  O1  UNL     1      33.195   7.994  45.221  1.00  0.00     0.000 OA
HETATM    5  C4  UNL     1      31.786   8.495  45.313  1.00  0.00     0.034 A 
HETATM    6  C5  UNL     1      31.461   9.339  46.418  1.00  0.00    -0.014 C 
HETATM    7  C6  UNL     1      31.088   8.961  47.645  1.00  0.00    -0.023 C 
HETATM    8  C7  UNL     1      30.139   8.069  47.599  1.00  0.00    -0.043 C 
HETATM    9  C8  UNL     1      30.359   6.921  46.726  1.00  0.00     0.022 C 
HETATM   10  C9  UNL     1      30.469   5.778  47.472  1.00  0.00    -0.006 C 
HETATM   11  C10 UNL     1      29.305   5.684  48.345  1.00  0.00     0.010 C 
HETATM   12  C11 UNL     1      28.348   6.618  48.342  1.00  0.00    -0.021 C 
HETATM   13  C12 UNL     1      28.846   8.018  48.290  1.00  0.00     0.066 C 
HETATM   14  C13 UNL     1      31.461   4.698  47.558  1.00  0.00     0.078 A 
HETATM   15  N1  UNL     1      30.833   3.697  46.872  1.00  0.00    -0.241 NA
HETATM   16  C14 UNL     1      31.552   2.542  46.656  1.00  0.00     0.236 A 
HETATM   17  N2  UNL     1      32.824   2.454  47.119  1.00  0.00    -0.224 NA
HETATM   18  C15 UNL     1      33.403   3.433  47.775  1.00  0.00     0.133 A 
HETATM   19  C16 UNL     1      32.745   4.617  48.040  1.00  0.00     0.013 A 
HETATM   20  C17 UNL     1      33.140   5.792  48.861  1.00  0.00     0.055 C 
HETATM   21  N3  UNL     1      34.796   3.337  48.154  1.00  0.00    -0.371 N 
HETATM   22  C18 UNL     1      35.356   3.515  46.774  1.00  0.00     0.150 C 
HETATM   23  C19 UNL     1      34.698   4.701  46.260  1.00  0.00     0.012 C 
HETATM   24  C20 UNL     1      34.011   5.576  45.630  1.00  0.00     0.013 A 
HETATM   25 CL1  UNL     1      33.231   4.627  44.412  1.00  0.00    -0.175 Cl
HETATM   26  H17 UNL     1      34.574   3.199  49.159  1.00  0.00     0.161 HD
ENDROOT
TORSDOF 0
ENDMDL
