MODEL 1
REMARK VINA RESULT:      -8.5      0.000      0.000
REMARK  5 active torsions:
REMARK  status: ('A' for Active; 'I' for Inactive)
REMARK    1  A    between atoms: N1_2  and  C2_3 
REMARK    2  A    between atoms: C2_3  and  C3_4 
REMARK    3  A    between atoms: C4_5  and  C5_6 
REMARK       I    between atoms: C5_6  and  N2_8 
REMARK    4  A    between atoms: N2_8  and  C6_9 
REMARK    5  A    between atoms: C12_17  and  N4_18 
ROOT
HETATM    1  C6  UNL     1      25.448   2.522  51.122  1.00  0.00     0.027 A 
HETATM    2  C7  UNL     1      24.626   3.363  50.369  1.00  0.00     0.133 A 
HETATM    3  C8  UNL     1      23.031   3.748  50.243  1.00  0.00     0.015 A 
HETATM    4  C9  UNL     1      23.901   4.507  51.048  1.00  0.00     0.166 A 
HETATM    5  N3  UNL     1      24.353   5.080  49.854  1.00  0.00    -0.262 NA
HETATM    6  C10 UNL     1      23.800   4.666  48.698  1.00  0.00     0.140 A 
HETATM    7  C11 UNL     1      22.794   3.714  48.438  1.00  0.00     0.078 A 
HETATM    8 CL1  UNL     1      22.133   3.272  46.838  1.00  0.00    -0.080 Cl
HETATM    9  C12 UNL     1      22.196   3.019  49.483  1.00  0.00     0.061 A 
HETATM   10  N4  UNL     1      21.150   2.048  49.606  1.00  0.00    -0.375 N 
HETATM   11  C13 UNL     1      19.801   2.643  49.320  1.00  0.00     0.150 C 
HETATM   12  C14 UNL     1      19.154   2.726  50.703  1.00  0.00    -0.007 C 
HETATM   13  C15 UNL     1      19.779   2.643  51.953  1.00  0.00     0.007 C 
HETATM   14  C16 UNL     1      21.044   1.867  52.023  1.00  0.00    -0.023 C 
HETATM   15  C17 UNL     1      22.144   2.547  52.301  1.00  0.00     0.076 C 
HETATM   16  C18 UNL     1      21.881   3.953  52.480  1.00  0.00     0.054 C 
HETATM   17  C19 UNL     1      22.687   4.973  52.621  1.00  0.00     0.088 C 
HETATM   18  N5  UNL     1      23.991   4.531  52.530  1.00  0.00    -0.367 N 
HETATM   19  O2  UNL     1      23.396   1.843  52.391  1.00  0.00    -0.346 OA
HETATM   20  C20 UNL     1      24.156   1.956  51.237  1.00  0.00     0.219 A 
HETATM   21  C21 UNL     1      21.245   0.464  51.517  1.00  0.00     0.061 C 
HETATM   22  C22 UNL     1      21.217   0.598  49.969  1.00  0.00     0.128 C 
HETATM   23  H18 UNL     1      25.014   4.214  52.759  1.00  0.00     0.161 HD
ENDROOT
BRANCH   1  24
HETATM   24  N2  UNL     1      26.519   1.816  51.698  1.00  0.00    -0.328 N 
HETATM   25  C5  UNL     1      26.774   1.823  53.070  1.00  0.00     0.245 C 
HETATM   26  O1  UNL     1      26.325   2.311  54.111  1.00  0.00    -0.268 OA
HETATM   27  H9  UNL     1      27.002   1.354  50.911  1.00  0.00     0.168 HD
BRANCH  25  28
HETATM   28  C4  UNL     1      27.931   0.985  53.323  1.00  0.00     0.072 C 
HETATM   29  C3  UNL     1      27.788  -0.305  53.082  1.00  0.00     0.008 C 
BRANCH  29  30
HETATM   30  C2  UNL     1      27.000  -1.477  52.649  1.00  0.00     0.296 C 
BRANCH  30  31
HETATM   31  N1  UNL     1      27.632  -2.740  53.060  1.00  0.00     0.082 N 
HETATM   32  C1  UNL     1      29.067  -2.560  53.233  1.00  0.00     0.307 C 
HETATM   33  H4  UNL     1      27.248  -2.947  54.022  1.00  0.00     0.315 HD
ENDBRANCH  30  31
ENDBRANCH  29  30
ENDBRANCH  25  28
ENDBRANCH   1  24
TORSDOF 5
ENDMDL
MODEL 2
REMARK VINA RESULT:      -8.2      7.830     10.731
REMARK  5 active torsions:
REMARK  status: ('A' for Active; 'I' for Inactive)
REMARK    1  A    between atoms: N1_2  and  C2_3 
REMARK    2  A    between atoms: C2_3  and  C3_4 
REMARK    3  A    between atoms: C4_5  and  C5_6 
REMARK       I    between atoms: C5_6  and  N2_8 
REMARK    4  A    between atoms: N2_8  and  C6_9 
REMARK    5  A    between atoms: C12_17  and  N4_18 
ROOT
HETATM    1  C6  UNL     1      29.051   5.893  48.008  1.00  0.00     0.027 A 
HETATM    2  C7  UNL     1      30.399   5.558  47.867  1.00  0.00     0.133 A 
HETATM    3  C8  UNL     1      31.824   6.289  47.488  1.00  0.00     0.015 A 
HETATM    4  C9  UNL     1      31.420   6.133  48.826  1.00  0.00     0.166 A 
HETATM    5  N3  UNL     1      31.823   4.799  48.694  1.00  0.00    -0.262 NA
HETATM    6  C10 UNL     1      32.323   4.399  47.510  1.00  0.00     0.140 A 
HETATM    7  C11 UNL     1      32.535   5.100  46.306  1.00  0.00     0.078 A 
HETATM    8 CL1  UNL     1      33.235   4.442  44.799  1.00  0.00    -0.080 Cl
HETATM    9  C12 UNL     1      32.208   6.447  46.210  1.00  0.00     0.061 A 
HETATM   10  N4  UNL     1      32.318   7.462  45.205  1.00  0.00    -0.375 N 
HETATM   11  C13 UNL     1      33.747   7.863  44.973  1.00  0.00     0.150 C 
HETATM   12  C14 UNL     1      33.833   9.247  45.617  1.00  0.00    -0.007 C 
HETATM   13  C15 UNL     1      32.942   9.830  46.527  1.00  0.00     0.007 C 
HETATM   14  C16 UNL     1      31.529   9.376  46.471  1.00  0.00    -0.023 C 
HETATM   15  C17 UNL     1      31.075   8.718  47.524  1.00  0.00     0.076 C 
HETATM   16  C18 UNL     1      32.081   8.566  48.544  1.00  0.00     0.054 C 
HETATM   17  C19 UNL     1      32.092   7.873  49.654  1.00  0.00     0.088 C 
HETATM   18  N5  UNL     1      30.908   7.172  49.756  1.00  0.00    -0.367 N 
HETATM   19  O2  UNL     1      29.709   8.264  47.527  1.00  0.00    -0.346 OA
HETATM   20  C20 UNL     1      29.592   6.921  47.200  1.00  0.00     0.219 A 
HETATM   21  C21 UNL     1      30.670   9.321  45.236  1.00  0.00     0.061 C 
HETATM   22  C22 UNL     1      31.256   8.147  44.403  1.00  0.00     0.128 C 
HETATM   23  H18 UNL     1      29.904   6.835  50.037  1.00  0.00     0.161 HD
ENDROOT
BRANCH   1  24
HETATM   24  N2  UNL     1      27.662   5.907  48.232  1.00  0.00    -0.328 N 
HETATM   25  C5  UNL     1      27.014   4.932  48.990  1.00  0.00     0.245 C 
HETATM   26  O1  UNL     1      27.268   3.903  49.622  1.00  0.00    -0.268 OA
HETATM   27  H9  UNL     1      27.309   6.738  47.733  1.00  0.00     0.168 HD
BRANCH  25  28
HETATM   28  C4  UNL     1      25.600   5.254  49.033  1.00  0.00     0.072 C 
HETATM   29  C3  UNL     1      25.291   6.526  49.212  1.00  0.00     0.008 C 
BRANCH  29  30
HETATM   30  C2  UNL     1      25.649   7.944  49.412  1.00  0.00     0.296 C 
BRANCH  30  31
HETATM   31  N1  UNL     1      26.586   8.116  50.534  1.00  0.00     0.082 N 
HETATM   32  C1  UNL     1      27.478   9.241  50.284  1.00  0.00     0.307 C 
HETATM   33  H4  UNL     1      25.988   8.399  51.358  1.00  0.00     0.315 HD
ENDBRANCH  30  31
ENDBRANCH  29  30
ENDBRANCH  25  28
ENDBRANCH   1  24
TORSDOF 5
ENDMDL
MODEL 3
REMARK VINA RESULT:      -7.9      7.686     10.255
REMARK  5 active torsions:
REMARK  status: ('A' for Active; 'I' for Inactive)
REMARK    1  A    between atoms: N1_2  and  C2_3 
REMARK    2  A    between atoms: C2_3  and  C3_4 
REMARK    3  A    between atoms: C4_5  and  C5_6 
REMARK       I    between atoms: C5_6  and  N2_8 
REMARK    4  A    between atoms: N2_8  and  C6_9 
REMARK    5  A    between atoms: C12_17  and  N4_18 
ROOT
HETATM    1  C6  UNL     1      29.078   5.929  48.148  1.00  0.00     0.027 A 
HETATM    2  C7  UNL     1      30.417   5.581  47.961  1.00  0.00     0.133 A 
HETATM    3  C8  UNL     1      31.832   6.294  47.516  1.00  0.00     0.015 A 
HETATM    4  C9  UNL     1      31.478   6.164  48.871  1.00  0.00     0.166 A 
HETATM    5  N3  UNL     1      31.866   4.825  48.748  1.00  0.00    -0.262 NA
HETATM    6  C10 UNL     1      32.318   4.401  47.553  1.00  0.00     0.140 A 
HETATM    7  C11 UNL     1      32.489   5.079  46.330  1.00  0.00     0.078 A 
HETATM    8 CL1  UNL     1      33.127   4.389  44.809  1.00  0.00    -0.080 Cl
HETATM    9  C12 UNL     1      32.168   6.427  46.222  1.00  0.00     0.061 A 
HETATM   10  N4  UNL     1      32.247   7.423  45.195  1.00  0.00    -0.375 N 
HETATM   11  C13 UNL     1      33.669   7.808  44.902  1.00  0.00     0.150 C 
HETATM   12  C14 UNL     1      33.789   9.203  45.518  1.00  0.00    -0.007 C 
HETATM   13  C15 UNL     1      32.938   9.809  46.450  1.00  0.00     0.007 C 
HETATM   14  C16 UNL     1      31.521   9.365  46.456  1.00  0.00    -0.023 C 
HETATM   15  C17 UNL     1      31.102   8.729  47.537  1.00  0.00     0.076 C 
HETATM   16  C18 UNL     1      32.145   8.587  48.521  1.00  0.00     0.054 C 
HETATM   17  C19 UNL     1      32.193   7.914  49.642  1.00  0.00     0.088 C 
HETATM   18  N5  UNL     1      31.008   7.224  49.801  1.00  0.00    -0.367 N 
HETATM   19  O2  UNL     1      29.734   8.286  47.600  1.00  0.00    -0.346 OA
HETATM   20  C20 UNL     1      29.595   6.938  47.301  1.00  0.00     0.219 A 
HETATM   21  C21 UNL     1      30.615   9.294  45.255  1.00  0.00     0.061 C 
HETATM   22  C22 UNL     1      31.161   8.101  44.422  1.00  0.00     0.128 C 
HETATM   23  H18 UNL     1      30.014   6.900  50.125  1.00  0.00     0.161 HD
ENDROOT
BRANCH   1  24
HETATM   24  N2  UNL     1      27.699   5.957  48.423  1.00  0.00    -0.328 N 
HETATM   25  C5  UNL     1      27.005   4.845  48.900  1.00  0.00     0.245 C 
HETATM   26  O1  UNL     1      27.205   3.665  49.203  1.00  0.00    -0.268 OA
HETATM   27  H9  UNL     1      27.390   6.915  48.196  1.00  0.00     0.168 HD
BRANCH  25  28
HETATM   28  C4  UNL     1      25.617   5.221  49.091  1.00  0.00     0.072 C 
HETATM   29  C3  UNL     1      24.890   4.426  49.855  1.00  0.00     0.008 C 
BRANCH  29  30
HETATM   30  C2  UNL     1      24.713   3.233  50.707  1.00  0.00     0.296 C 
BRANCH  30  31
HETATM   31  N1  UNL     1      25.607   3.260  51.875  1.00  0.00     0.082 N 
HETATM   32  C1  UNL     1      25.241   2.213  52.821  1.00  0.00     0.307 C 
HETATM   33  H4  UNL     1      26.561   2.995  51.506  1.00  0.00     0.315 HD
ENDBRANCH  30  31
ENDBRANCH  29  30
ENDBRANCH  25  28
ENDBRANCH   1  24
TORSDOF 5
ENDMDL
MODEL 4
REMARK VINA RESULT:      -7.9      4.239      5.628
REMARK  5 active torsions:
REMARK  status: ('A' for Active; 'I' for Inactive)
REMARK    1  A    between atoms: N1_2  and  C2_3 
REMARK    2  A    between atoms: C2_3  and  C3_4 
REMARK    3  A    between atoms: C4_5  and  C5_6 
REMARK       I    between atoms: C5_6  and  N2_8 
REMARK    4  A    between atoms: N2_8  and  C6_9 
REMARK    5  A    between atoms: C12_17  and  N4_18 
ROOT
HETATM    1  C6  UNL     1      26.853   5.898  48.710  1.00  0.00     0.027 A 
HETATM    2  C7  UNL     1      25.627   6.501  48.425  1.00  0.00     0.133 A 
HETATM    3  C8  UNL     1      24.053   6.389  48.892  1.00  0.00     0.015 A 
HETATM    4  C9  UNL     1      24.925   7.317  49.490  1.00  0.00     0.166 A 
HETATM    5  N3  UNL     1      24.750   8.085  48.333  1.00  0.00    -0.262 NA
HETATM    6  C10 UNL     1      23.945   7.607  47.366  1.00  0.00     0.140 A 
HETATM    7  C11 UNL     1      23.197   6.415  47.285  1.00  0.00     0.078 A 
HETATM    8 CL1  UNL     1      22.141   5.910  45.934  1.00  0.00    -0.080 Cl
HETATM    9  C12 UNL     1      23.220   5.498  48.328  1.00  0.00     0.061 A 
HETATM   10  N4  UNL     1      22.580   4.248  48.612  1.00  0.00    -0.375 N 
HETATM   11  C13 UNL     1      21.114   4.423  48.889  1.00  0.00     0.150 C 
HETATM   12  C14 UNL     1      21.013   4.205  50.399  1.00  0.00    -0.007 C 
HETATM   13  C15 UNL     1      22.046   4.226  51.343  1.00  0.00     0.007 C 
HETATM   14  C16 UNL     1      23.405   3.869  50.862  1.00  0.00    -0.023 C 
HETATM   15  C17 UNL     1      24.314   4.830  50.883  1.00  0.00     0.076 C 
HETATM   16  C18 UNL     1      23.778   6.072  51.380  1.00  0.00     0.054 C 
HETATM   17  C19 UNL     1      24.286   7.277  51.428  1.00  0.00     0.088 C 
HETATM   18  N5  UNL     1      25.536   7.260  50.843  1.00  0.00    -0.367 N 
HETATM   19  O2  UNL     1      25.651   4.536  50.438  1.00  0.00    -0.346 OA
HETATM   20  C20 UNL     1      25.885   4.958  49.137  1.00  0.00     0.219 A 
HETATM   21  C21 UNL     1      23.767   2.634  50.081  1.00  0.00     0.061 C 
HETATM   22  C22 UNL     1      23.147   2.865  48.675  1.00  0.00     0.128 C 
HETATM   23  H18 UNL     1      26.617   7.254  50.669  1.00  0.00     0.161 HD
ENDROOT
BRANCH   1  24
HETATM   24  N2  UNL     1      28.204   5.511  48.774  1.00  0.00    -0.328 N 
HETATM   25  C5  UNL     1      29.196   6.115  48.000  1.00  0.00     0.245 C 
HETATM   26  O1  UNL     1      29.321   6.997  47.146  1.00  0.00    -0.268 OA
HETATM   27  H9  UNL     1      28.242   4.748  49.467  1.00  0.00     0.168 HD
BRANCH  25  28
HETATM   28  C4  UNL     1      30.467   5.494  48.323  1.00  0.00     0.072 C 
HETATM   29  C3  UNL     1      31.358   6.257  48.928  1.00  0.00     0.008 C 
BRANCH  29  30
HETATM   30  C2  UNL     1      31.803   7.537  49.514  1.00  0.00     0.296 C 
BRANCH  30  31
HETATM   31  N1  UNL     1      30.679   8.464  49.718  1.00  0.00     0.082 N 
HETATM   32  C1  UNL     1      30.873   9.680  48.940  1.00  0.00     0.307 C 
HETATM   33  H4  UNL     1      29.837   7.982  49.297  1.00  0.00     0.315 HD
ENDBRANCH  30  31
ENDBRANCH  29  30
ENDBRANCH  25  28
ENDBRANCH   1  24
TORSDOF 5
ENDMDL
MODEL 5
REMARK VINA RESULT:      -7.9      3.408      4.986
REMARK  5 active torsions:
REMARK  status: ('A' for Active; 'I' for Inactive)
REMARK    1  A    between atoms: N1_2  and  C2_3 
REMARK    2  A    between atoms: C2_3  and  C3_4 
REMARK    3  A    between atoms: C4_5  and  C5_6 
REMARK       I    between atoms: C5_6  and  N2_8 
REMARK    4  A    between atoms: N2_8  and  C6_9 
REMARK    5  A    between atoms: C12_17  and  N4_18 
ROOT
HETATM    1  C6  UNL     1      24.676   5.548  49.339  1.00  0.00     0.027 A 
HETATM    2  C7  UNL     1      23.453   5.699  49.996  1.00  0.00     0.133 A 
HETATM    3  C8  UNL     1      22.171   4.776  50.456  1.00  0.00     0.015 A 
HETATM    4  C9  UNL     1      23.236   5.033  51.339  1.00  0.00     0.166 A 
HETATM    5  N3  UNL     1      22.661   6.298  51.514  1.00  0.00    -0.262 NA
HETATM    6  C10 UNL     1      21.534   6.585  50.836  1.00  0.00     0.140 A 
HETATM    7  C11 UNL     1      20.772   5.817  49.933  1.00  0.00     0.078 A 
HETATM    8 CL1  UNL     1      19.267   6.322  49.111  1.00  0.00    -0.080 Cl
HETATM    9  C12 UNL     1      21.157   4.521  49.611  1.00  0.00     0.061 A 
HETATM   10  N4  UNL     1      20.631   3.463  48.801  1.00  0.00    -0.375 N 
HETATM   11  C13 UNL     1      19.386   2.872  49.398  1.00  0.00     0.150 C 
HETATM   12  C14 UNL     1      19.857   1.514  49.919  1.00  0.00    -0.007 C 
HETATM   13  C15 UNL     1      21.171   1.086  50.142  1.00  0.00     0.007 C 
HETATM   14  C16 UNL     1      22.234   1.717  49.319  1.00  0.00    -0.023 C 
HETATM   15  C17 UNL     1      23.115   2.467  49.960  1.00  0.00     0.076 C 
HETATM   16  C18 UNL     1      22.849   2.526  51.375  1.00  0.00     0.054 C 
HETATM   17  C19 UNL     1      23.378   3.253  52.326  1.00  0.00     0.088 C 
HETATM   18  N5  UNL     1      24.311   4.105  51.773  1.00  0.00    -0.367 N 
HETATM   19  O2  UNL     1      24.172   3.095  49.212  1.00  0.00    -0.346 OA
HETATM   20  C20 UNL     1      23.911   4.429  48.933  1.00  0.00     0.219 A 
HETATM   21  C21 UNL     1      22.231   1.837  47.818  1.00  0.00     0.061 C 
HETATM   22  C22 UNL     1      21.133   2.893  47.512  1.00  0.00     0.128 C 
HETATM   23  H18 UNL     1      25.245   4.580  51.453  1.00  0.00     0.161 HD
ENDROOT
BRANCH   1  24
HETATM   24  N2  UNL     1      25.937   5.723  48.740  1.00  0.00    -0.328 N 
HETATM   25  C5  UNL     1      27.035   4.922  49.054  1.00  0.00     0.245 C 
HETATM   26  O1  UNL     1      27.335   3.976  49.788  1.00  0.00    -0.268 OA
HETATM   27  H9  UNL     1      25.827   6.515  48.089  1.00  0.00     0.168 HD
BRANCH  25  28
HETATM   28  C4  UNL     1      28.161   5.357  48.250  1.00  0.00     0.072 C 
HETATM   29  C3  UNL     1      28.426   6.651  48.259  1.00  0.00     0.008 C 
BRANCH  29  30
HETATM   30  C2  UNL     1      28.164   8.037  48.693  1.00  0.00     0.296 C 
BRANCH  30  31
HETATM   31  N1  UNL     1      29.261   8.567  49.518  1.00  0.00     0.082 N 
HETATM   32  C1  UNL     1      30.551   8.227  48.930  1.00  0.00     0.307 C 
HETATM   33  H4  UNL     1      29.181   9.619  49.451  1.00  0.00     0.315 HD
ENDBRANCH  30  31
ENDBRANCH  29  30
ENDBRANCH  25  28
ENDBRANCH   1  24
TORSDOF 5
ENDMDL
MODEL 6
REMARK VINA RESULT:      -7.7      1.931      2.844
REMARK  5 active torsions:
REMARK  status: ('A' for Active; 'I' for Inactive)
REMARK    1  A    between atoms: N1_2  and  C2_3 
REMARK    2  A    between atoms: C2_3  and  C3_4 
REMARK    3  A    between atoms: C4_5  and  C5_6 
REMARK       I    between atoms: C5_6  and  N2_8 
REMARK    4  A    between atoms: N2_8  and  C6_9 
REMARK    5  A    between atoms: C12_17  and  N4_18 
ROOT
HETATM    1  C6  UNL     1      24.585   2.273  51.474  1.00  0.00     0.027 A 
HETATM    2  C7  UNL     1      23.890   3.481  51.563  1.00  0.00     0.133 A 
HETATM    3  C8  UNL     1      22.473   4.135  51.040  1.00  0.00     0.015 A 
HETATM    4  C9  UNL     1      22.573   3.535  52.308  1.00  0.00     0.166 A 
HETATM    5  N3  UNL     1      23.215   4.711  52.711  1.00  0.00    -0.262 NA
HETATM    6  C10 UNL     1      23.389   5.687  51.799  1.00  0.00     0.140 A 
HETATM    7  C11 UNL     1      23.029   5.762  50.439  1.00  0.00     0.078 A 
HETATM    8 CL1  UNL     1      23.306   7.142  49.338  1.00  0.00    -0.080 Cl
HETATM    9  C12 UNL     1      22.374   4.701  49.825  1.00  0.00     0.061 A 
HETATM   10  N4  UNL     1      21.831   4.442  48.525  1.00  0.00    -0.375 N 
HETATM   11  C13 UNL     1      20.602   5.265  48.261  1.00  0.00     0.150 C 
HETATM   12  C14 UNL     1      19.469   4.242  48.348  1.00  0.00    -0.007 C 
HETATM   13  C15 UNL     1      19.507   2.960  48.910  1.00  0.00     0.007 C 
HETATM   14  C16 UNL     1      20.824   2.272  48.928  1.00  0.00    -0.023 C 
HETATM   15  C17 UNL     1      21.358   2.045  50.116  1.00  0.00     0.076 C 
HETATM   16  C18 UNL     1      20.528   2.535  51.187  1.00  0.00     0.054 C 
HETATM   17  C19 UNL     1      20.746   2.640  52.473  1.00  0.00     0.088 C 
HETATM   18  N5  UNL     1      22.032   2.222  52.746  1.00  0.00    -0.367 N 
HETATM   19  O2  UNL     1      22.628   1.372  50.193  1.00  0.00    -0.346 OA
HETATM   20  C20 UNL     1      23.687   2.249  50.382  1.00  0.00     0.219 A 
HETATM   21  C21 UNL     1      21.736   2.086  47.746  1.00  0.00     0.061 C 
HETATM   22  C22 UNL     1      22.295   3.506  47.454  1.00  0.00     0.128 C 
HETATM   23  H18 UNL     1      22.907   1.643  53.061  1.00  0.00     0.161 HD
ENDROOT
BRANCH   1  24
HETATM   24  N2  UNL     1      25.508   1.217  51.579  1.00  0.00    -0.328 N 
HETATM   25  C5  UNL     1      25.612   0.420  52.720  1.00  0.00     0.245 C 
HETATM   26  O1  UNL     1      25.107   0.304  53.840  1.00  0.00    -0.268 OA
HETATM   27  H9  UNL     1      26.022   1.207  50.684  1.00  0.00     0.168 HD
BRANCH  25  28
HETATM   28  C4  UNL     1      26.641  -0.576  52.487  1.00  0.00     0.072 C 
HETATM   29  C3  UNL     1      27.701  -0.523  53.273  1.00  0.00     0.008 C 
BRANCH  29  30
HETATM   30  C2  UNL     1      28.483   0.067  54.377  1.00  0.00     0.296 C 
BRANCH  30  31
HETATM   31  N1  UNL     1      28.087   1.459  54.643  1.00  0.00     0.082 N 
HETATM   32  C1  UNL     1      28.651   2.350  53.636  1.00  0.00     0.307 C 
HETATM   33  H4  UNL     1      27.040   1.486  54.499  1.00  0.00     0.315 HD
ENDBRANCH  30  31
ENDBRANCH  29  30
ENDBRANCH  25  28
ENDBRANCH   1  24
TORSDOF 5
ENDMDL
MODEL 7
REMARK VINA RESULT:      -7.6      1.662      2.147
REMARK  5 active torsions:
REMARK  status: ('A' for Active; 'I' for Inactive)
REMARK    1  A    between atoms: N1_2  and  C2_3 
REMARK    2  A    between atoms: C2_3  and  C3_4 
REMARK    3  A    between atoms: C4_5  and  C5_6 
REMARK       I    between atoms: C5_6  and  N2_8 
REMARK    4  A    between atoms: N2_8  and  C6_9 
REMARK    5  A    between atoms: C12_17  and  N4_18 
ROOT
HETATM    1  C6  UNL     1      25.506   3.463  50.845  1.00  0.00     0.027 A 
HETATM    2  C7  UNL     1      24.772   4.589  50.467  1.00  0.00     0.133 A 
HETATM    3  C8  UNL     1      23.232   4.978  50.036  1.00  0.00     0.015 A 
HETATM    4  C9  UNL     1      23.669   5.103  51.368  1.00  0.00     0.166 A 
HETATM    5  N3  UNL     1      24.309   6.275  50.949  1.00  0.00    -0.262 NA
HETATM    6  C10 UNL     1      24.197   6.635  49.656  1.00  0.00     0.140 A 
HETATM    7  C11 UNL     1      23.521   6.030  48.579  1.00  0.00     0.078 A 
HETATM    8 CL1  UNL     1      23.437   6.634  46.899  1.00  0.00    -0.080 Cl
HETATM    9  C12 UNL     1      22.811   4.850  48.767  1.00  0.00     0.061 A 
HETATM   10  N4  UNL     1      21.994   4.001  47.952  1.00  0.00    -0.375 N 
HETATM   11  C13 UNL     1      20.686   4.653  47.605  1.00  0.00     0.150 C 
HETATM   12  C14 UNL     1      19.676   3.895  48.467  1.00  0.00    -0.007 C 
HETATM   13  C15 UNL     1      19.931   3.079  49.576  1.00  0.00     0.007 C 
HETATM   14  C16 UNL     1      21.257   2.411  49.630  1.00  0.00    -0.023 C 
HETATM   15  C17 UNL     1      22.071   2.787  50.602  1.00  0.00     0.076 C 
HETATM   16  C18 UNL     1      21.488   3.808  51.435  1.00  0.00     0.054 C 
HETATM   17  C19 UNL     1      21.996   4.540  52.393  1.00  0.00     0.088 C 
HETATM   18  N5  UNL     1      23.336   4.235  52.527  1.00  0.00    -0.367 N 
HETATM   19  O2  UNL     1      23.365   2.165  50.708  1.00  0.00    -0.346 OA
HETATM   20  C20 UNL     1      24.378   2.944  50.166  1.00  0.00     0.219 A 
HETATM   21  C21 UNL     1      21.874   1.588  48.532  1.00  0.00     0.061 C 
HETATM   22  C22 UNL     1      22.252   2.621  47.433  1.00  0.00     0.128 C 
HETATM   23  H18 UNL     1      24.296   3.842  52.875  1.00  0.00     0.161 HD
ENDROOT
BRANCH   1  24
HETATM   24  N2  UNL     1      26.495   2.549  51.251  1.00  0.00    -0.328 N 
HETATM   25  C5  UNL     1      26.615   2.108  52.570  1.00  0.00     0.245 C 
HETATM   26  O1  UNL     1      26.082   2.268  53.671  1.00  0.00    -0.268 OA
HETATM   27  H9  UNL     1      27.038   2.331  50.401  1.00  0.00     0.168 HD
BRANCH  25  28
HETATM   28  C4  UNL     1      27.717   1.167  52.637  1.00  0.00     0.072 C 
HETATM   29  C3  UNL     1      27.398  -0.104  52.799  1.00  0.00     0.008 C 
BRANCH  29  30
HETATM   30  C2  UNL     1      26.418  -1.196  52.967  1.00  0.00     0.296 C 
BRANCH  30  31
HETATM   31  N1  UNL     1      25.086  -0.684  53.322  1.00  0.00     0.082 N 
HETATM   32  C1  UNL     1      24.826  -0.878  54.743  1.00  0.00     0.307 C 
HETATM   33  H4  UNL     1      25.139   0.362  53.178  1.00  0.00     0.315 HD
ENDBRANCH  30  31
ENDBRANCH  29  30
ENDBRANCH  25  28
ENDBRANCH   1  24
TORSDOF 5
ENDMDL
MODEL 8
REMARK VINA RESULT:      -7.5      3.291      5.917
REMARK  5 active torsions:
REMARK  status: ('A' for Active; 'I' for Inactive)
REMARK    1  A    between atoms: N1_2  and  C2_3 
REMARK    2  A    between atoms: C2_3  and  C3_4 
REMARK    3  A    between atoms: C4_5  and  C5_6 
REMARK       I    between atoms: C5_6  and  N2_8 
REMARK    4  A    between atoms: N2_8  and  C6_9 
REMARK    5  A    between atoms: C12_17  and  N4_18 
ROOT
HETATM    1  C6  UNL     1      19.529   2.368  51.186  1.00  0.00     0.027 A 
HETATM    2  C7  UNL     1      19.928   3.465  50.420  1.00  0.00     0.133 A 
HETATM    3  C8  UNL     1      21.311   4.108  49.802  1.00  0.00     0.015 A 
HETATM    4  C9  UNL     1      20.505   3.245  49.037  1.00  0.00     0.166 A 
HETATM    5  N3  UNL     1      19.660   4.346  48.858  1.00  0.00    -0.262 NA
HETATM    6  C10 UNL     1      20.004   5.514  49.435  1.00  0.00     0.140 A 
HETATM    7  C11 UNL     1      21.113   5.867  50.229  1.00  0.00     0.078 A 
HETATM    8 CL1  UNL     1      21.460   7.478  50.920  1.00  0.00    -0.080 Cl
HETATM    9  C12 UNL     1      22.088   4.924  50.535  1.00  0.00     0.061 A 
HETATM   10  N4  UNL     1      23.331   4.925  51.248  1.00  0.00    -0.375 N 
HETATM   11  C13 UNL     1      24.395   5.686  50.510  1.00  0.00     0.150 C 
HETATM   12  C14 UNL     1      25.315   4.584  49.984  1.00  0.00    -0.007 C 
HETATM   13  C15 UNL     1      25.042   3.215  49.872  1.00  0.00     0.007 C 
HETATM   14  C16 UNL     1      24.048   2.647  50.818  1.00  0.00    -0.023 C 
HETATM   15  C17 UNL     1      22.919   2.200  50.296  1.00  0.00     0.076 C 
HETATM   16  C18 UNL     1      22.879   2.367  48.865  1.00  0.00     0.054 C 
HETATM   17  C19 UNL     1      21.914   2.195  47.999  1.00  0.00     0.088 C 
HETATM   18  N5  UNL     1      20.767   1.829  48.673  1.00  0.00    -0.367 N 
HETATM   19  O2  UNL     1      21.924   1.629  51.166  1.00  0.00    -0.346 OA
HETATM   20  C20 UNL     1      20.906   2.521  51.471  1.00  0.00     0.219 A 
HETATM   21  C21 UNL     1      24.066   2.806  52.315  1.00  0.00     0.061 C 
HETATM   22  C22 UNL     1      23.694   4.295  52.556  1.00  0.00     0.128 C 
HETATM   23  H18 UNL     1      19.931   1.265  49.100  1.00  0.00     0.161 HD
ENDROOT
BRANCH   1  24
HETATM   24  N2  UNL     1      18.821   1.392  51.910  1.00  0.00    -0.328 N 
HETATM   25  C5  UNL     1      18.125   0.354  51.290  1.00  0.00     0.245 C 
HETATM   26  O1  UNL     1      17.868  -0.067  50.158  1.00  0.00    -0.268 OA
HETATM   27  H9  UNL     1      18.948   1.638  52.904  1.00  0.00     0.168 HD
BRANCH  25  28
HETATM   28  C4  UNL     1      17.529  -0.475  52.321  1.00  0.00     0.072 C 
HETATM   29  C3  UNL     1      18.363  -1.066  53.157  1.00  0.00     0.008 C 
BRANCH  29  30
HETATM   30  C2  UNL     1      19.718  -1.368  53.659  1.00  0.00     0.296 C 
BRANCH  30  31
HETATM   31  N1  UNL     1      20.232  -0.294  54.523  1.00  0.00     0.082 N 
HETATM   32  C1  UNL     1      21.682  -0.204  54.417  1.00  0.00     0.307 C 
HETATM   33  H4  UNL     1      19.855   0.603  54.111  1.00  0.00     0.315 HD
ENDBRANCH  30  31
ENDBRANCH  29  30
ENDBRANCH  25  28
ENDBRANCH   1  24
TORSDOF 5
ENDMDL
MODEL 9
REMARK VINA RESULT:      -7.2      6.700      9.532
REMARK  5 active torsions:
REMARK  status: ('A' for Active; 'I' for Inactive)
REMARK    1  A    between atoms: N1_2  and  C2_3 
REMARK    2  A    between atoms: C2_3  and  C3_4 
REMARK    3  A    between atoms: C4_5  and  C5_6 
REMARK       I    between atoms: C5_6  and  N2_8 
REMARK    4  A    between atoms: N2_8  and  C6_9 
REMARK    5  A    between atoms: C12_17  and  N4_18 
ROOT
HETATM    1  C6  UNL     1      26.362   9.112  49.728  1.00  0.00     0.027 A 
HETATM    2  C7  UNL     1      27.063  10.098  49.031  1.00  0.00     0.133 A 
HETATM    3  C8  UNL     1      28.273  10.209  47.922  1.00  0.00     0.015 A 
HETATM    4  C9  UNL     1      26.923  10.198  47.527  1.00  0.00     0.166 A 
HETATM    5  N3  UNL     1      26.889  11.535  47.939  1.00  0.00    -0.262 NA
HETATM    6  C10 UNL     1      28.016  12.076  48.439  1.00  0.00     0.140 A 
HETATM    7  C11 UNL     1      29.299  11.531  48.639  1.00  0.00     0.078 A 
HETATM    8 CL1  UNL     1      30.727  12.379  49.300  1.00  0.00    -0.080 Cl
HETATM    9  C12 UNL     1      29.563  10.210  48.296  1.00  0.00     0.061 A 
HETATM   10  N4  UNL     1      30.713   9.354  48.311  1.00  0.00    -0.375 N 
HETATM   11  C13 UNL     1      31.718   9.754  47.270  1.00  0.00     0.150 C 
HETATM   12  C14 UNL     1      31.583   8.658  46.212  1.00  0.00    -0.007 C 
HETATM   13  C15 UNL     1      30.537   7.742  46.050  1.00  0.00     0.007 C 
HETATM   14  C16 UNL     1      29.764   7.380  47.266  1.00  0.00    -0.023 C 
HETATM   15  C17 UNL     1      28.496   7.754  47.296  1.00  0.00     0.076 C 
HETATM   16  C18 UNL     1      28.112   8.466  46.104  1.00  0.00     0.054 C 
HETATM   17  C19 UNL     1      27.019   9.117  45.798  1.00  0.00     0.088 C 
HETATM   18  N5  UNL     1      26.165   9.094  46.882  1.00  0.00    -0.367 N 
HETATM   19  O2  UNL     1      27.698   7.421  48.446  1.00  0.00    -0.346 OA
HETATM   20  C20 UNL     1      27.565   8.482  49.330  1.00  0.00     0.219 A 
HETATM   21  C21 UNL     1      30.346   6.911  48.572  1.00  0.00     0.061 C 
HETATM   22  C22 UNL     1      31.025   8.173  49.175  1.00  0.00     0.128 C 
HETATM   23  H18 UNL     1      25.347   8.867  47.573  1.00  0.00     0.161 HD
ENDROOT
BRANCH   1  24
HETATM   24  N2  UNL     1      25.490   8.380  50.555  1.00  0.00    -0.328 N 
HETATM   25  C5  UNL     1      24.671   7.360  50.068  1.00  0.00     0.245 C 
HETATM   26  O1  UNL     1      24.399   6.794  49.006  1.00  0.00    -0.268 OA
HETATM   27  H9  UNL     1      25.613   8.771  51.502  1.00  0.00     0.168 HD
BRANCH  25  28
HETATM   28  C4  UNL     1      23.920   6.809  51.180  1.00  0.00     0.072 C 
HETATM   29  C3  UNL     1      24.025   5.507  51.374  1.00  0.00     0.008 C 
BRANCH  29  30
HETATM   30  C2  UNL     1      24.550   4.171  51.031  1.00  0.00     0.296 C 
BRANCH  30  31
HETATM   31  N1  UNL     1      25.974   4.222  50.664  1.00  0.00     0.082 N 
HETATM   32  C1  UNL     1      26.244   3.329  49.545  1.00  0.00     0.307 C 
HETATM   33  H4  UNL     1      26.135   5.201  50.300  1.00  0.00     0.315 HD
ENDBRANCH  30  31
ENDBRANCH  29  30
ENDBRANCH  25  28
ENDBRANCH   1  24
TORSDOF 5
ENDMDL
