MODEL 1
REMARK VINA RESULT:      -7.1      0.000      0.000
REMARK  7 active torsions:
REMARK  status: ('A' for Active; 'I' for Inactive)
REMARK    1  A    between atoms: C5_5  and  N1_6 
REMARK       I    between atoms: N1_6  and  C6_7 
REMARK    2  A    between atoms: C6_7  and  C7_9 
REMARK    3  A    between atoms: C10_12  and  N2_13 
REMARK    4  A    between atoms: N2_13  and  C11_14 
REMARK    5  A    between atoms: N2_13  and  C13_17 
REMARK    6  A    between atoms: C11_14  and  C12_15 
REMARK    7  A    between atoms: C13_17  and  C14_18 
ROOT
HETATM    1  C7  UNL     1      22.037   0.111  52.577  1.00  0.00     0.032 A 
HETATM    2  C8  UNL     1      21.235  -0.274  53.659  1.00  0.00     0.019 A 
HETATM    3  C9  UNL     1      19.876  -0.315  53.442  1.00  0.00     0.030 A 
HETATM    4  C10 UNL     1      19.231  -0.019  52.279  1.00  0.00     0.030 A 
HETATM    5  C15 UNL     1      20.046   0.356  51.234  1.00  0.00     0.030 A 
HETATM    6  C16 UNL     1      21.423   0.418  51.383  1.00  0.00     0.019 A 
ENDROOT
BRANCH   1   7
HETATM    7  C6  UNL     1      23.495   0.165  52.752  1.00  0.00     0.256 C 
HETATM    8  N1  UNL     1      24.136  -0.779  53.592  1.00  0.00    -0.323 N 
HETATM    9  H6  UNL     1      23.569  -1.523  54.092  1.00  0.00     0.169 HD
HETATM   10  O1  UNL     1      24.292   0.980  52.229  1.00  0.00    -0.267 OA
BRANCH   8  11
HETATM   11  C5  UNL     1      25.553  -0.628  53.688  1.00  0.00     0.035 A 
HETATM   12  C4  UNL     1      26.164   0.135  54.661  1.00  0.00     0.030 A 
HETATM   13  C3  UNL     1      27.553   0.264  54.722  1.00  0.00     0.009 A 
HETATM   14  C2  UNL     1      28.325  -0.396  53.774  1.00  0.00    -0.062 A 
HETATM   15  C1  UNL     1      29.810  -0.253  53.845  1.00  0.00     0.048 C 
HETATM   16  C18 UNL     1      27.720  -1.170  52.786  1.00  0.00     0.009 A 
HETATM   17  C17 UNL     1      26.345  -1.268  52.766  1.00  0.00     0.030 A 
ENDBRANCH   8  11
ENDBRANCH   1   7
BRANCH   4  18
HETATM   18  N2  UNL     1      17.816  -0.073  52.126  1.00  0.00    -0.379 N 
BRANCH  18  19
HETATM   19  C11 UNL     1      16.927  -0.738  53.014  1.00  0.00     0.138 C 
BRANCH  19  20
HETATM   20  C12 UNL     1      16.627  -2.175  52.643  1.00  0.00     0.134 C 
HETATM   21 CL1  UNL     1      17.529  -3.316  53.647  1.00  0.00    -0.129 Cl
ENDBRANCH  19  20
ENDBRANCH  18  19
BRANCH  18  22
HETATM   22  C13 UNL     1      17.068   0.509  51.079  1.00  0.00     0.138 C 
BRANCH  22  23
HETATM   23  C14 UNL     1      16.415   1.825  51.382  1.00  0.00     0.134 C 
HETATM   24 CL2  UNL     1      17.557   3.137  51.636  1.00  0.00    -0.129 Cl
ENDBRANCH  22  23
ENDBRANCH  18  22
ENDBRANCH   4  18
TORSDOF 7
ENDMDL
MODEL 2
REMARK VINA RESULT:      -7.0      0.299      2.515
REMARK  7 active torsions:
REMARK  status: ('A' for Active; 'I' for Inactive)
REMARK    1  A    between atoms: C5_5  and  N1_6 
REMARK       I    between atoms: N1_6  and  C6_7 
REMARK    2  A    between atoms: C6_7  and  C7_9 
REMARK    3  A    between atoms: C10_12  and  N2_13 
REMARK    4  A    between atoms: N2_13  and  C11_14 
REMARK    5  A    between atoms: N2_13  and  C13_17 
REMARK    6  A    between atoms: C11_14  and  C12_15 
REMARK    7  A    between atoms: C13_17  and  C14_18 
ROOT
HETATM    1  C7  UNL     1      22.073   0.030  52.607  1.00  0.00     0.032 A 
HETATM    2  C8  UNL     1      21.300  -0.461  53.667  1.00  0.00     0.019 A 
HETATM    3  C9  UNL     1      19.939  -0.515  53.471  1.00  0.00     0.030 A 
HETATM    4  C10 UNL     1      19.265  -0.138  52.348  1.00  0.00     0.030 A 
HETATM    5  C15 UNL     1      20.052   0.341  51.324  1.00  0.00     0.030 A 
HETATM    6  C16 UNL     1      21.430   0.421  51.454  1.00  0.00     0.019 A 
ENDROOT
BRANCH   1   7
HETATM    7  C6  UNL     1      23.532   0.103  52.761  1.00  0.00     0.256 C 
HETATM    8  N1  UNL     1      24.190  -0.790  53.642  1.00  0.00    -0.323 N 
HETATM    9  H6  UNL     1      23.635  -1.509  54.189  1.00  0.00     0.169 HD
HETATM   10  O1  UNL     1      24.318   0.892  52.184  1.00  0.00    -0.267 OA
BRANCH   8  11
HETATM   11  C5  UNL     1      25.607  -0.626  53.712  1.00  0.00     0.035 A 
HETATM   12  C4  UNL     1      26.224   0.199  54.629  1.00  0.00     0.030 A 
HETATM   13  C3  UNL     1      27.613   0.339  54.665  1.00  0.00     0.009 A 
HETATM   14  C2  UNL     1      28.379  -0.373  53.751  1.00  0.00    -0.062 A 
HETATM   15  C1  UNL     1      29.863  -0.218  53.795  1.00  0.00     0.048 C 
HETATM   16  C18 UNL     1      27.767  -1.210  52.820  1.00  0.00     0.009 A 
HETATM   17  C17 UNL     1      26.392  -1.317  52.822  1.00  0.00     0.030 A 
ENDBRANCH   8  11
ENDBRANCH   1   7
BRANCH   4  18
HETATM   18  N2  UNL     1      17.848  -0.212  52.217  1.00  0.00    -0.379 N 
BRANCH  18  19
HETATM   19  C11 UNL     1      17.096   0.395  51.174  1.00  0.00     0.138 C 
BRANCH  19  20
HETATM   20  C12 UNL     1      16.607   1.794  51.483  1.00  0.00     0.134 C 
HETATM   21 CL1  UNL     1      17.308   2.992  50.390  1.00  0.00    -0.129 Cl
ENDBRANCH  19  20
ENDBRANCH  18  19
BRANCH  18  22
HETATM   22  C13 UNL     1      16.964  -0.881  53.091  1.00  0.00     0.138 C 
BRANCH  22  23
HETATM   23  C14 UNL     1      16.559  -2.269  52.690  1.00  0.00     0.134 C 
HETATM   24 CL2  UNL     1      17.341  -3.531  53.631  1.00  0.00    -0.129 Cl
ENDBRANCH  22  23
ENDBRANCH  18  22
ENDBRANCH   4  18
TORSDOF 7
ENDMDL
MODEL 3
REMARK VINA RESULT:      -6.8      8.557     10.893
REMARK  7 active torsions:
REMARK  status: ('A' for Active; 'I' for Inactive)
REMARK    1  A    between atoms: C5_5  and  N1_6 
REMARK       I    between atoms: N1_6  and  C6_7 
REMARK    2  A    between atoms: C6_7  and  C7_9 
REMARK    3  A    between atoms: C10_12  and  N2_13 
REMARK    4  A    between atoms: N2_13  and  C11_14 
REMARK    5  A    between atoms: N2_13  and  C13_17 
REMARK    6  A    between atoms: C11_14  and  C12_15 
REMARK    7  A    between atoms: C13_17  and  C14_18 
ROOT
HETATM    1  C7  UNL     1      26.762   5.072  49.007  1.00  0.00     0.032 A 
HETATM    2  C8  UNL     1      26.040   6.226  48.677  1.00  0.00     0.019 A 
HETATM    3  C9  UNL     1      26.717   7.207  47.989  1.00  0.00     0.030 A 
HETATM    4  C10 UNL     1      28.021   7.169  47.595  1.00  0.00     0.030 A 
HETATM    5  C15 UNL     1      28.704   6.022  47.934  1.00  0.00     0.030 A 
HETATM    6  C16 UNL     1      28.084   4.994  48.627  1.00  0.00     0.019 A 
ENDROOT
BRANCH   1   7
HETATM    7  C6  UNL     1      26.086   3.990  49.736  1.00  0.00     0.256 C 
HETATM    8  N1  UNL     1      26.503   3.662  51.049  1.00  0.00    -0.323 N 
HETATM    9  H6  UNL     1      27.299   4.193  51.507  1.00  0.00     0.169 HD
HETATM   10  O1  UNL     1      25.136   3.279  49.329  1.00  0.00    -0.267 OA
BRANCH   8  11
HETATM   11  C5  UNL     1      25.775   2.594  51.658  1.00  0.00     0.035 A 
HETATM   12  C4  UNL     1      24.529   2.760  52.224  1.00  0.00     0.030 A 
HETATM   13  C3  UNL     1      23.847   1.695  52.815  1.00  0.00     0.009 A 
HETATM   14  C2  UNL     1      24.451   0.444  52.829  1.00  0.00    -0.062 A 
HETATM   15  C1  UNL     1      23.717  -0.691  53.463  1.00  0.00     0.048 C 
HETATM   16  C18 UNL     1      25.710   0.262  52.261  1.00  0.00     0.009 A 
HETATM   17  C17 UNL     1      26.344   1.344  51.687  1.00  0.00     0.030 A 
ENDBRANCH   8  11
ENDBRANCH   1   7
BRANCH   4  18
HETATM   18  N2  UNL     1      28.663   8.229  46.891  1.00  0.00    -0.379 N 
BRANCH  18  19
HETATM   19  C11 UNL     1      29.120   8.153  45.547  1.00  0.00     0.138 C 
BRANCH  19  20
HETATM   20  C12 UNL     1      30.597   8.432  45.369  1.00  0.00     0.134 C 
HETATM   21 CL1  UNL     1      31.596   7.128  46.019  1.00  0.00    -0.129 Cl
ENDBRANCH  19  20
ENDBRANCH  18  19
BRANCH  18  22
HETATM   22  C13 UNL     1      28.958   9.511  47.404  1.00  0.00     0.138 C 
BRANCH  22  23
HETATM   23  C14 UNL     1      29.401   9.566  48.837  1.00  0.00     0.134 C 
HETATM   24 CL2  UNL     1      30.907   8.712  49.143  1.00  0.00    -0.129 Cl
ENDBRANCH  22  23
ENDBRANCH  18  22
ENDBRANCH   4  18
TORSDOF 7
ENDMDL
MODEL 4
REMARK VINA RESULT:      -6.8      8.594     10.937
REMARK  7 active torsions:
REMARK  status: ('A' for Active; 'I' for Inactive)
REMARK    1  A    between atoms: C5_5  and  N1_6 
REMARK       I    between atoms: N1_6  and  C6_7 
REMARK    2  A    between atoms: C6_7  and  C7_9 
REMARK    3  A    between atoms: C10_12  and  N2_13 
REMARK    4  A    between atoms: N2_13  and  C11_14 
REMARK    5  A    between atoms: N2_13  and  C13_17 
REMARK    6  A    between atoms: C11_14  and  C12_15 
REMARK    7  A    between atoms: C13_17  and  C14_18 
ROOT
HETATM    1  C7  UNL     1      26.814   5.088  49.002  1.00  0.00     0.032 A 
HETATM    2  C8  UNL     1      26.055   6.214  48.659  1.00  0.00     0.019 A 
HETATM    3  C9  UNL     1      26.702   7.211  47.964  1.00  0.00     0.030 A 
HETATM    4  C10 UNL     1      28.007   7.212  47.574  1.00  0.00     0.030 A 
HETATM    5  C15 UNL     1      28.727   6.092  47.927  1.00  0.00     0.030 A 
HETATM    6  C16 UNL     1      28.138   5.051  48.627  1.00  0.00     0.019 A 
ENDROOT
BRANCH   1   7
HETATM    7  C6  UNL     1      26.171   3.992  49.739  1.00  0.00     0.256 C 
HETATM    8  N1  UNL     1      26.700   3.580  50.987  1.00  0.00    -0.323 N 
HETATM    9  H6  UNL     1      27.556   4.060  51.391  1.00  0.00     0.169 HD
HETATM   10  O1  UNL     1      25.160   3.335  49.393  1.00  0.00    -0.267 OA
BRANCH   8  11
HETATM   11  C5  UNL     1      25.995   2.505  51.611  1.00  0.00     0.035 A 
HETATM   12  C4  UNL     1      26.476   1.214  51.652  1.00  0.00     0.030 A 
HETATM   13  C3  UNL     1      25.758   0.187  52.266  1.00  0.00     0.009 A 
HETATM   14  C2  UNL     1      24.530   0.486  52.844  1.00  0.00    -0.062 A 
HETATM   15  C1  UNL     1      23.767  -0.618  53.499  1.00  0.00     0.048 C 
HETATM   16  C18 UNL     1      24.033   1.786  52.808  1.00  0.00     0.009 A 
HETATM   17  C17 UNL     1      24.779   2.769  52.191  1.00  0.00     0.030 A 
ENDBRANCH   8  11
ENDBRANCH   1   7
BRANCH   4  18
HETATM   18  N2  UNL     1      28.617   8.286  46.863  1.00  0.00    -0.379 N 
BRANCH  18  19
HETATM   19  C11 UNL     1      28.853   9.583  47.394  1.00  0.00     0.138 C 
BRANCH  19  20
HETATM   20  C12 UNL     1      29.312   9.597  48.837  1.00  0.00     0.134 C 
HETATM   21 CL1  UNL     1      30.904   8.853  49.028  1.00  0.00    -0.129 Cl
ENDBRANCH  19  20
ENDBRANCH  18  19
BRANCH  18  22
HETATM   22  C13 UNL     1      29.074   8.247  45.527  1.00  0.00     0.138 C 
BRANCH  22  23
HETATM   23  C14 UNL     1      30.543   8.473  45.322  1.00  0.00     0.134 C 
HETATM   24 CL2  UNL     1      31.549   7.161  45.920  1.00  0.00    -0.129 Cl
ENDBRANCH  22  23
ENDBRANCH  18  22
ENDBRANCH   4  18
TORSDOF 7
ENDMDL
MODEL 5
REMARK VINA RESULT:      -6.7      8.655     11.017
REMARK  7 active torsions:
REMARK  status: ('A' for Active; 'I' for Inactive)
REMARK    1  A    between atoms: C5_5  and  N1_6 
REMARK       I    between atoms: N1_6  and  C6_7 
REMARK    2  A    between atoms: C6_7  and  C7_9 
REMARK    3  A    between atoms: C10_12  and  N2_13 
REMARK    4  A    between atoms: N2_13  and  C11_14 
REMARK    5  A    between atoms: N2_13  and  C13_17 
REMARK    6  A    between atoms: C11_14  and  C12_15 
REMARK    7  A    between atoms: C13_17  and  C14_18 
ROOT
HETATM    1  C7  UNL     1      26.831   5.116  48.991  1.00  0.00     0.032 A 
HETATM    2  C8  UNL     1      28.174   4.997  48.609  1.00  0.00     0.019 A 
HETATM    3  C9  UNL     1      28.724   6.062  47.932  1.00  0.00     0.030 A 
HETATM    4  C10 UNL     1      28.094   7.222  47.596  1.00  0.00     0.030 A 
HETATM    5  C15 UNL     1      26.775   7.310  47.985  1.00  0.00     0.030 A 
HETATM    6  C16 UNL     1      26.158   6.274  48.670  1.00  0.00     0.019 A 
ENDROOT
BRANCH   1   7
HETATM    7  C6  UNL     1      26.196   4.011  49.722  1.00  0.00     0.256 C 
HETATM    8  N1  UNL     1      26.706   3.621  50.984  1.00  0.00    -0.323 N 
HETATM    9  H6  UNL     1      27.540   4.123  51.404  1.00  0.00     0.169 HD
HETATM   10  O1  UNL     1      25.208   3.329  49.357  1.00  0.00    -0.267 OA
BRANCH   8  11
HETATM   11  C5  UNL     1      26.010   2.535  51.600  1.00  0.00     0.035 A 
HETATM   12  C4  UNL     1      26.510   1.250  51.643  1.00  0.00     0.030 A 
HETATM   13  C3  UNL     1      25.801   0.212  52.249  1.00  0.00     0.009 A 
HETATM   14  C2  UNL     1      24.564   0.492  52.817  1.00  0.00    -0.062 A 
HETATM   15  C1  UNL     1      23.811  -0.624  53.463  1.00  0.00     0.048 C 
HETATM   16  C18 UNL     1      24.049   1.786  52.780  1.00  0.00     0.009 A 
HETATM   17  C17 UNL     1      24.786   2.779  52.171  1.00  0.00     0.030 A 
ENDBRANCH   8  11
ENDBRANCH   1   7
BRANCH   4  18
HETATM   18  N2  UNL     1      28.724   8.284  46.884  1.00  0.00    -0.379 N 
BRANCH  18  19
HETATM   19  C11 UNL     1      29.079   8.241  45.508  1.00  0.00     0.138 C 
BRANCH  19  20
HETATM   20  C12 UNL     1      30.556   8.431  45.235  1.00  0.00     0.134 C 
HETATM   21 CL1  UNL     1      31.536   7.191  46.025  1.00  0.00    -0.129 Cl
ENDBRANCH  19  20
ENDBRANCH  18  19
BRANCH  18  22
HETATM   22  C13 UNL     1      29.103   9.535  47.417  1.00  0.00     0.138 C 
BRANCH  22  23
HETATM   23  C14 UNL     1      29.819   9.505  48.735  1.00  0.00     0.134 C 
HETATM   24 CL2  UNL     1      30.669  10.999  49.110  1.00  0.00    -0.129 Cl
ENDBRANCH  22  23
ENDBRANCH  18  22
ENDBRANCH   4  18
TORSDOF 7
ENDMDL
MODEL 6
REMARK VINA RESULT:      -6.4      7.518      9.987
REMARK  7 active torsions:
REMARK  status: ('A' for Active; 'I' for Inactive)
REMARK    1  A    between atoms: C5_5  and  N1_6 
REMARK       I    between atoms: N1_6  and  C6_7 
REMARK    2  A    between atoms: C6_7  and  C7_9 
REMARK    3  A    between atoms: C10_12  and  N2_13 
REMARK    4  A    between atoms: N2_13  and  C11_14 
REMARK    5  A    between atoms: N2_13  and  C13_17 
REMARK    6  A    between atoms: C11_14  and  C12_15 
REMARK    7  A    between atoms: C13_17  and  C14_18 
ROOT
HETATM    1  C7  UNL     1      25.858   4.500  49.880  1.00  0.00     0.032 A 
HETATM    2  C8  UNL     1      25.358   5.800  50.025  1.00  0.00     0.019 A 
HETATM    3  C9  UNL     1      26.057   6.808  49.398  1.00  0.00     0.030 A 
HETATM    4  C10 UNL     1      27.187   6.667  48.650  1.00  0.00     0.030 A 
HETATM    5  C15 UNL     1      27.654   5.377  48.527  1.00  0.00     0.030 A 
HETATM    6  C16 UNL     1      26.999   4.315  49.131  1.00  0.00     0.019 A 
ENDROOT
BRANCH   1   7
HETATM    7  C6  UNL     1      25.147   3.386  50.523  1.00  0.00     0.256 C 
HETATM    8  N1  UNL     1      25.301   3.164  51.913  1.00  0.00    -0.323 N 
HETATM    9  H6  UNL     1      25.926   3.798  52.491  1.00  0.00     0.169 HD
HETATM   10  O1  UNL     1      24.378   2.560  49.975  1.00  0.00    -0.267 OA
BRANCH   8  11
HETATM   11  C5  UNL     1      24.564   2.054  52.427  1.00  0.00     0.035 A 
HETATM   12  C4  UNL     1      25.144   0.836  52.716  1.00  0.00     0.030 A 
HETATM   13  C3  UNL     1      24.392  -0.230  53.213  1.00  0.00     0.009 A 
HETATM   14  C2  UNL     1      23.029  -0.047  53.415  1.00  0.00    -0.062 A 
HETATM   15  C1  UNL     1      22.231  -1.192  53.946  1.00  0.00     0.048 C 
HETATM   16  C18 UNL     1      22.432   1.178  53.126  1.00  0.00     0.009 A 
HETATM   17  C17 UNL     1      23.216   2.202  52.638  1.00  0.00     0.030 A 
ENDBRANCH   8  11
ENDBRANCH   1   7
BRANCH   4  18
HETATM   18  N2  UNL     1      27.867   7.759  48.036  1.00  0.00    -0.379 N 
BRANCH  18  19
HETATM   19  C11 UNL     1      28.535   8.799  48.738  1.00  0.00     0.138 C 
BRANCH  19  20
HETATM   20  C12 UNL     1      30.007   8.546  48.986  1.00  0.00     0.134 C 
HETATM   21 CL1  UNL     1      30.807   9.956  49.690  1.00  0.00    -0.129 Cl
ENDBRANCH  19  20
ENDBRANCH  18  19
BRANCH  18  22
HETATM   22  C13 UNL     1      27.985   7.993  46.649  1.00  0.00     0.138 C 
BRANCH  22  23
HETATM   23  C14 UNL     1      26.964   8.910  46.042  1.00  0.00     0.134 C 
HETATM   24 CL2  UNL     1      25.362   8.198  45.917  1.00  0.00    -0.129 Cl
ENDBRANCH  22  23
ENDBRANCH  18  22
ENDBRANCH   4  18
TORSDOF 7
ENDMDL
MODEL 7
REMARK VINA RESULT:      -6.3      7.783     10.304
REMARK  7 active torsions:
REMARK  status: ('A' for Active; 'I' for Inactive)
REMARK    1  A    between atoms: C5_5  and  N1_6 
REMARK       I    between atoms: N1_6  and  C6_7 
REMARK    2  A    between atoms: C6_7  and  C7_9 
REMARK    3  A    between atoms: C10_12  and  N2_13 
REMARK    4  A    between atoms: N2_13  and  C11_14 
REMARK    5  A    between atoms: N2_13  and  C13_17 
REMARK    6  A    between atoms: C11_14  and  C12_15 
REMARK    7  A    between atoms: C13_17  and  C14_18 
ROOT
HETATM    1  C7  UNL     1      26.021   4.737  49.710  1.00  0.00     0.032 A 
HETATM    2  C8  UNL     1      25.657   6.080  49.877  1.00  0.00     0.019 A 
HETATM    3  C9  UNL     1      26.475   7.022  49.294  1.00  0.00     0.030 A 
HETATM    4  C10 UNL     1      27.603   6.780  48.570  1.00  0.00     0.030 A 
HETATM    5  C15 UNL     1      27.934   5.451  48.423  1.00  0.00     0.030 A 
HETATM    6  C16 UNL     1      27.155   4.451  48.983  1.00  0.00     0.019 A 
ENDROOT
BRANCH   1   7
HETATM    7  C6  UNL     1      25.179   3.691  50.305  1.00  0.00     0.256 C 
HETATM    8  N1  UNL     1      25.226   3.464  51.703  1.00  0.00    -0.323 N 
HETATM    9  H6  UNL     1      25.862   4.047  52.319  1.00  0.00     0.169 HD
HETATM   10  O1  UNL     1      24.381   2.928  49.710  1.00  0.00    -0.267 OA
BRANCH   8  11
HETATM   11  C5  UNL     1      24.367   2.422  52.169  1.00  0.00     0.035 A 
HETATM   12  C4  UNL     1      23.007   2.583  52.331  1.00  0.00     0.030 A 
HETATM   13  C3  UNL     1      22.199   1.544  52.793  1.00  0.00     0.009 A 
HETATM   14  C2  UNL     1      22.790   0.323  53.094  1.00  0.00    -0.062 A 
HETATM   15  C1  UNL     1      21.919  -0.784  53.589  1.00  0.00     0.048 C 
HETATM   16  C18 UNL     1      24.163   0.147  52.935  1.00  0.00     0.009 A 
HETATM   17  C17 UNL     1      24.921   1.203  52.475  1.00  0.00     0.030 A 
ENDBRANCH   8  11
ENDBRANCH   1   7
BRANCH   4  18
HETATM   18  N2  UNL     1      28.410   7.808  48.001  1.00  0.00    -0.379 N 
BRANCH  18  19
HETATM   19  C11 UNL     1      28.328   8.256  46.655  1.00  0.00     0.138 C 
BRANCH  19  20
HETATM   20  C12 UNL     1      26.917   8.472  46.150  1.00  0.00     0.134 C 
HETATM   21 CL1  UNL     1      26.125   9.823  46.969  1.00  0.00    -0.129 Cl
ENDBRANCH  19  20
ENDBRANCH  18  19
BRANCH  18  22
HETATM   22  C13 UNL     1      29.419   8.538  48.667  1.00  0.00     0.138 C 
BRANCH  22  23
HETATM   23  C14 UNL     1      29.102   9.970  48.985  1.00  0.00     0.134 C 
HETATM   24 CL2  UNL     1      30.526  10.990  49.137  1.00  0.00    -0.129 Cl
ENDBRANCH  22  23
ENDBRANCH  18  22
ENDBRANCH   4  18
TORSDOF 7
ENDMDL
MODEL 8
REMARK VINA RESULT:      -6.2      8.097      9.345
REMARK  7 active torsions:
REMARK  status: ('A' for Active; 'I' for Inactive)
REMARK    1  A    between atoms: C5_5  and  N1_6 
REMARK       I    between atoms: N1_6  and  C6_7 
REMARK    2  A    between atoms: C6_7  and  C7_9 
REMARK    3  A    between atoms: C10_12  and  N2_13 
REMARK    4  A    between atoms: N2_13  and  C11_14 
REMARK    5  A    between atoms: N2_13  and  C13_17 
REMARK    6  A    between atoms: C11_14  and  C12_15 
REMARK    7  A    between atoms: C13_17  and  C14_18 
ROOT
HETATM    1  C7  UNL     1      27.018   5.718  48.645  1.00  0.00     0.032 A 
HETATM    2  C8  UNL     1      27.256   4.392  49.029  1.00  0.00     0.019 A 
HETATM    3  C9  UNL     1      26.162   3.653  49.420  1.00  0.00     0.030 A 
HETATM    4  C10 UNL     1      24.870   4.081  49.471  1.00  0.00     0.030 A 
HETATM    5  C15 UNL     1      24.668   5.389  49.088  1.00  0.00     0.030 A 
HETATM    6  C16 UNL     1      25.725   6.190  48.683  1.00  0.00     0.019 A 
ENDROOT
BRANCH   1   7
HETATM    7  C6  UNL     1      28.150   6.550  48.213  1.00  0.00     0.256 C 
HETATM    8  N1  UNL     1      29.373   6.495  48.925  1.00  0.00    -0.323 N 
HETATM    9  H6  UNL     1      29.476   5.856  49.766  1.00  0.00     0.169 HD
HETATM   10  O1  UNL     1      28.180   7.346  47.244  1.00  0.00    -0.267 OA
BRANCH   8  11
HETATM   11  C5  UNL     1      30.400   7.347  48.416  1.00  0.00     0.035 A 
HETATM   12  C4  UNL     1      31.290   6.951  47.439  1.00  0.00     0.030 A 
HETATM   13  C3  UNL     1      32.285   7.809  46.968  1.00  0.00     0.009 A 
HETATM   14  C2  UNL     1      32.372   9.088  47.504  1.00  0.00    -0.062 A 
HETATM   15  C1  UNL     1      33.439   9.999  46.996  1.00  0.00     0.048 C 
HETATM   16  C18 UNL     1      31.479   9.499  48.491  1.00  0.00     0.009 A 
HETATM   17  C17 UNL     1      30.512   8.617  48.925  1.00  0.00     0.030 A 
ENDBRANCH   8  11
ENDBRANCH   1   7
BRANCH   4  18
HETATM   18  N2  UNL     1      23.784   3.262  49.896  1.00  0.00    -0.379 N 
BRANCH  18  19
HETATM   19  C11 UNL     1      23.816   2.385  51.015  1.00  0.00     0.138 C 
BRANCH  19  20
HETATM   20  C12 UNL     1      23.844   3.082  52.359  1.00  0.00     0.134 C 
HETATM   21 CL1  UNL     1      25.110   2.434  53.409  1.00  0.00    -0.129 Cl
ENDBRANCH  19  20
ENDBRANCH  18  19
BRANCH  18  22
HETATM   22  C13 UNL     1      22.514   3.178  49.284  1.00  0.00     0.138 C 
BRANCH  22  23
HETATM   23  C14 UNL     1      22.225   1.916  48.527  1.00  0.00     0.134 C 
HETATM   24 CL2  UNL     1      20.908   0.971  49.208  1.00  0.00    -0.129 Cl
ENDBRANCH  22  23
ENDBRANCH  18  22
ENDBRANCH   4  18
TORSDOF 7
ENDMDL
MODEL 9
REMARK VINA RESULT:      -6.1      5.355      6.094
REMARK  7 active torsions:
REMARK  status: ('A' for Active; 'I' for Inactive)
REMARK    1  A    between atoms: C5_5  and  N1_6 
REMARK       I    between atoms: N1_6  and  C6_7 
REMARK    2  A    between atoms: C6_7  and  C7_9 
REMARK    3  A    between atoms: C10_12  and  N2_13 
REMARK    4  A    between atoms: N2_13  and  C11_14 
REMARK    5  A    between atoms: N2_13  and  C13_17 
REMARK    6  A    between atoms: C11_14  and  C12_15 
REMARK    7  A    between atoms: C13_17  and  C14_18 
ROOT
HETATM    1  C7  UNL     1      23.179   3.125  50.777  1.00  0.00     0.032 A 
HETATM    2  C8  UNL     1      23.211   1.735  50.606  1.00  0.00     0.019 A 
HETATM    3  C9  UNL     1      22.318   0.997  51.349  1.00  0.00     0.030 A 
HETATM    4  C10 UNL     1      21.403   1.482  52.234  1.00  0.00     0.030 A 
HETATM    5  C15 UNL     1      21.395   2.852  52.380  1.00  0.00     0.030 A 
HETATM    6  C16 UNL     1      22.268   3.656  51.663  1.00  0.00     0.019 A 
ENDROOT
BRANCH   1   7
HETATM    7  C6  UNL     1      24.107   3.961  50.004  1.00  0.00     0.256 C 
HETATM    8  N1  UNL     1      25.339   4.359  50.579  1.00  0.00    -0.323 N 
HETATM    9  H6  UNL     1      25.593   4.055  51.563  1.00  0.00     0.169 HD
HETATM   10  O1  UNL     1      23.947   4.395  48.837  1.00  0.00    -0.267 OA
BRANCH   8  11
HETATM   11  C5  UNL     1      26.158   5.171  49.737  1.00  0.00     0.035 A 
HETATM   12  C4  UNL     1      27.234   4.675  49.030  1.00  0.00     0.030 A 
HETATM   13  C3  UNL     1      28.017   5.498  48.219  1.00  0.00     0.009 A 
HETATM   14  C2  UNL     1      27.695   6.847  48.132  1.00  0.00    -0.062 A 
HETATM   15  C1  UNL     1      28.537   7.722  47.263  1.00  0.00     0.048 C 
HETATM   16  C18 UNL     1      26.611   7.360  48.841  1.00  0.00     0.009 A 
HETATM   17  C17 UNL     1      25.866   6.508  49.628  1.00  0.00     0.030 A 
ENDBRANCH   8  11
ENDBRANCH   1   7
BRANCH   4  18
HETATM   18  N2  UNL     1      20.512   0.657  52.979  1.00  0.00    -0.379 N 
BRANCH  18  19
HETATM   19  C11 UNL     1      19.344   0.040  52.454  1.00  0.00     0.138 C 
BRANCH  19  20
HETATM   20  C12 UNL     1      18.429   0.974  51.690  1.00  0.00     0.134 C 
HETATM   21 CL1  UNL     1      17.896   0.267  50.160  1.00  0.00    -0.129 Cl
ENDBRANCH  19  20
ENDBRANCH  18  19
BRANCH  18  22
HETATM   22  C13 UNL     1      20.631   0.324  54.346  1.00  0.00     0.138 C 
BRANCH  22  23
HETATM   23  C14 UNL     1      21.350  -0.956  54.657  1.00  0.00     0.134 C 
HETATM   24 CL2  UNL     1      23.077  -0.891  54.334  1.00  0.00    -0.129 Cl
ENDBRANCH  22  23
ENDBRANCH  18  22
ENDBRANCH   4  18
TORSDOF 7
ENDMDL
