MODEL 1
REMARK VINA RESULT:      -8.7      0.000      0.000
REMARK  5 active torsions:
REMARK  status: ('A' for Active; 'I' for Inactive)
REMARK    1  A    between atoms: C2_2  and  C4_4 
REMARK    2  A    between atoms: C9_9  and  N1_10 
REMARK    3  A    between atoms: N1_10  and  C10_11 
REMARK    4  A    between atoms: C11_13  and  N3_14 
REMARK    5  A    between atoms: C15_19  and  C16_20 
ROOT
HETATM    1  C10 UNL     1      26.720   2.171  51.403  1.00  0.00     0.157 A 
HETATM    2  N2  UNL     1      27.813   2.540  52.119  1.00  0.00    -0.045 NA
HETATM    3  C11 UNL     1      27.978   2.148  53.396  1.00  0.00     0.724 A 
HETATM    4  N4  UNL     1      27.077   1.367  54.052  1.00  0.00    -0.045 NA
HETATM    5  C12 UNL     1      25.964   0.964  53.393  1.00  0.00     0.153 A 
HETATM    6  C13 UNL     1      25.787   1.366  52.071  1.00  0.00     0.037 A 
HETATM    7  C14 UNL     1      24.504   0.805  51.558  1.00  0.00     0.076 A 
HETATM    8  C15 UNL     1      23.949   0.073  52.736  1.00  0.00     0.123 A 
HETATM    9  N5  UNL     1      24.883   0.166  53.816  1.00  0.00    -0.365 N 
HETATM   10  H19 UNL     1      24.681  -0.312  54.695  1.00  0.00     0.162 HD
ENDROOT
BRANCH   1  11
HETATM   11  N1  UNL     1      26.463   2.531  50.045  1.00  0.00    -0.339 N 
HETATM   12  H12 UNL     1      26.403   1.539  49.745  1.00  0.00     0.167 HD
BRANCH  11  13
HETATM   13  C9  UNL     1      26.394   3.891  49.643  1.00  0.00     0.040 A 
HETATM   14  C4  UNL     1      25.270   4.637  49.911  1.00  0.00    -0.028 A 
HETATM   15  C5  UNL     1      25.275   5.960  49.464  1.00  0.00     0.010 A 
HETATM   16  C6  UNL     1      26.383   6.434  48.795  1.00  0.00     0.001 A 
HETATM   17  C7  UNL     1      27.492   5.654  48.545  1.00  0.00     0.002 A 
HETATM   18  C8  UNL     1      27.514   4.336  48.977  1.00  0.00     0.030 A 
BRANCH  14  19
HETATM   19  C2  UNL     1      24.092   4.109  50.655  1.00  0.00     0.013 C 
HETATM   20  C1  UNL     1      23.637   5.021  51.769  1.00  0.00     0.015 C 
HETATM   21  C3  UNL     1      22.981   3.694  49.728  1.00  0.00     0.015 C 
ENDBRANCH  14  19
ENDBRANCH  11  13
ENDBRANCH   1  11
BRANCH   3  22
HETATM   22  N3  UNL     1      29.165   2.606  54.029  1.00  0.00    -0.231 N 
HETATM   23  H13 UNL     1      28.941   3.623  54.245  1.00  0.00     0.174 HD
HETATM   24  H14 UNL     1      29.712   1.705  53.982  1.00  0.00     0.174 HD
ENDBRANCH   3  22
BRANCH   8  25
HETATM   25  C16 UNL     1      22.669   0.639  53.212  1.00  0.00    -0.001 C 
HETATM   26  C17 UNL     1      22.102   1.818  53.013  1.00  0.00     0.008 C 
HETATM   27  C18 UNL     1      20.783   1.729  52.931  1.00  0.00     0.047 C 
HETATM   28 CL1  UNL     1      19.387   2.426  52.118  1.00  0.00    -0.083 Cl
HETATM   29  C19 UNL     1      20.526   0.641  53.897  1.00  0.00     0.049 C 
HETATM   30  C20 UNL     1      21.674  -0.032  54.075  1.00  0.00     0.044 C 
HETATM   31 CL2  UNL     1      21.991  -1.432  55.109  1.00  0.00    -0.084 Cl
ENDBRANCH   8  25
TORSDOF 5
ENDMDL
MODEL 2
REMARK VINA RESULT:      -8.3      2.907      5.682
REMARK  5 active torsions:
REMARK  status: ('A' for Active; 'I' for Inactive)
REMARK    1  A    between atoms: C2_2  and  C4_4 
REMARK    2  A    between atoms: C9_9  and  N1_10 
REMARK    3  A    between atoms: N1_10  and  C10_11 
REMARK    4  A    between atoms: C11_13  and  N3_14 
REMARK    5  A    between atoms: C15_19  and  C16_20 
ROOT
HETATM    1  C10 UNL     1      24.651  -0.237  53.000  1.00  0.00     0.157 A 
HETATM    2  N2  UNL     1      24.507  -0.968  54.136  1.00  0.00    -0.045 NA
HETATM    3  C11 UNL     1      23.373  -0.921  54.860  1.00  0.00     0.724 A 
HETATM    4  N4  UNL     1      22.306  -0.150  54.514  1.00  0.00    -0.045 NA
HETATM    5  C12 UNL     1      22.386   0.604  53.391  1.00  0.00     0.153 A 
HETATM    6  C13 UNL     1      23.556   0.560  52.636  1.00  0.00     0.037 A 
HETATM    7  C14 UNL     1      23.411   1.461  51.457  1.00  0.00     0.076 A 
HETATM    8  C15 UNL     1      22.052   2.053  51.637  1.00  0.00     0.123 A 
HETATM    9  N5  UNL     1      21.452   1.479  52.803  1.00  0.00    -0.365 N 
HETATM   10  H19 UNL     1      20.500   1.744  53.057  1.00  0.00     0.162 HD
ENDROOT
BRANCH   1  11
HETATM   11  N1  UNL     1      25.810  -0.228  52.167  1.00  0.00    -0.339 N 
HETATM   12  H12 UNL     1      25.282   0.157  51.358  1.00  0.00     0.167 HD
BRANCH  11  13
HETATM   13  C9  UNL     1      27.068  -0.675  52.647  1.00  0.00     0.040 A 
HETATM   14  C4  UNL     1      27.983   0.227  53.139  1.00  0.00    -0.028 A 
HETATM   15  C5  UNL     1      29.204  -0.293  53.573  1.00  0.00     0.010 A 
HETATM   16  C6  UNL     1      29.420  -1.651  53.488  1.00  0.00     0.001 A 
HETATM   17  C7  UNL     1      28.476  -2.524  52.988  1.00  0.00     0.002 A 
HETATM   18  C8  UNL     1      27.254  -2.036  52.549  1.00  0.00     0.030 A 
BRANCH  14  19
HETATM   19  C2  UNL     1      27.721   1.690  53.240  1.00  0.00     0.013 C 
HETATM   20  C1  UNL     1      28.884   2.462  53.817  1.00  0.00     0.015 C 
HETATM   21  C3  UNL     1      27.205   2.261  51.946  1.00  0.00     0.015 C 
ENDBRANCH  14  19
ENDBRANCH  11  13
ENDBRANCH   1  11
BRANCH   3  22
HETATM   22  N3  UNL     1      23.356  -1.734  56.025  1.00  0.00    -0.231 N 
HETATM   23  H13 UNL     1      22.340  -2.040  56.085  1.00  0.00     0.174 HD
HETATM   24  H14 UNL     1      24.376  -1.644  56.281  1.00  0.00     0.174 HD
ENDBRANCH   3  22
BRANCH   8  25
HETATM   25  C16 UNL     1      22.086   3.518  51.836  1.00  0.00    -0.001 C 
HETATM   26  C17 UNL     1      22.993   4.309  52.386  1.00  0.00     0.008 C 
HETATM   27  C18 UNL     1      23.067   5.481  51.776  1.00  0.00     0.047 C 
HETATM   28 CL1  UNL     1      24.203   6.744  51.315  1.00  0.00    -0.083 Cl
HETATM   29  C19 UNL     1      21.651   5.683  51.406  1.00  0.00     0.049 C 
HETATM   30  C20 UNL     1      21.042   4.487  51.439  1.00  0.00     0.044 C 
HETATM   31 CL2  UNL     1      19.352   4.090  51.094  1.00  0.00    -0.084 Cl
ENDBRANCH   8  25
TORSDOF 5
ENDMDL
MODEL 3
REMARK VINA RESULT:      -8.1      2.663      4.567
REMARK  5 active torsions:
REMARK  status: ('A' for Active; 'I' for Inactive)
REMARK    1  A    between atoms: C2_2  and  C4_4 
REMARK    2  A    between atoms: C9_9  and  N1_10 
REMARK    3  A    between atoms: N1_10  and  C10_11 
REMARK    4  A    between atoms: C11_13  and  N3_14 
REMARK    5  A    between atoms: C15_19  and  C16_20 
ROOT
HETATM    1  C10 UNL     1      23.926   4.095  49.904  1.00  0.00     0.157 A 
HETATM    2  N2  UNL     1      23.397   3.942  48.663  1.00  0.00    -0.045 NA
HETATM    3  C11 UNL     1      22.617   2.887  48.359  1.00  0.00     0.724 A 
HETATM    4  N4  UNL     1      22.307   1.914  49.259  1.00  0.00    -0.045 NA
HETATM    5  C12 UNL     1      22.804   2.008  50.516  1.00  0.00     0.153 A 
HETATM    6  C13 UNL     1      23.611   3.097  50.837  1.00  0.00     0.037 A 
HETATM    7  C14 UNL     1      24.033   2.988  52.263  1.00  0.00     0.076 A 
HETATM    8  C15 UNL     1      23.415   1.705  52.711  1.00  0.00     0.123 A 
HETATM    9  N5  UNL     1      22.650   1.161  51.631  1.00  0.00    -0.365 N 
HETATM   10  H19 UNL     1      22.124   0.299  51.774  1.00  0.00     0.162 HD
ENDROOT
BRANCH   1  11
HETATM   11  N1  UNL     1      24.755   5.181  50.319  1.00  0.00    -0.339 N 
HETATM   12  H12 UNL     1      24.157   5.383  51.145  1.00  0.00     0.167 HD
BRANCH  11  13
HETATM   13  C9  UNL     1      25.911   5.549  49.583  1.00  0.00     0.040 A 
HETATM   14  C4  UNL     1      26.095   6.854  49.187  1.00  0.00    -0.028 A 
HETATM   15  C5  UNL     1      27.248   7.130  48.450  1.00  0.00     0.010 A 
HETATM   16  C6  UNL     1      28.121   6.101  48.168  1.00  0.00     0.001 A 
HETATM   17  C7  UNL     1      27.903   4.805  48.584  1.00  0.00     0.002 A 
HETATM   18  C8  UNL     1      26.765   4.502  49.317  1.00  0.00     0.030 A 
BRANCH  14  19
HETATM   19  C2  UNL     1      25.146   7.954  49.521  1.00  0.00     0.013 C 
HETATM   20  C1  UNL     1      25.841   9.220  49.965  1.00  0.00     0.015 C 
HETATM   21  C3  UNL     1      24.134   8.177  48.429  1.00  0.00     0.015 C 
ENDBRANCH  14  19
ENDBRANCH  11  13
ENDBRANCH   1  11
BRANCH   3  22
HETATM   22  N3  UNL     1      22.131   2.848  47.024  1.00  0.00    -0.231 N 
HETATM   23  H13 UNL     1      22.407   3.802  46.644  1.00  0.00     0.174 HD
HETATM   24  H14 UNL     1      21.722   1.876  47.047  1.00  0.00     0.174 HD
ENDBRANCH   3  22
BRANCH   8  25
HETATM   25  C16 UNL     1      24.417   0.688  53.094  1.00  0.00    -0.001 C 
HETATM   26  C17 UNL     1      25.685   0.530  52.749  1.00  0.00     0.008 C 
HETATM   27  C18 UNL     1      26.417   0.055  53.744  1.00  0.00     0.047 C 
HETATM   28 CL1  UNL     1      28.023   0.142  54.458  1.00  0.00    -0.083 Cl
HETATM   29  C19 UNL     1      25.437  -0.835  54.400  1.00  0.00     0.049 C 
HETATM   30  C20 UNL     1      24.209  -0.455  54.009  1.00  0.00     0.044 C 
HETATM   31 CL2  UNL     1      22.640  -1.139  54.457  1.00  0.00    -0.084 Cl
ENDBRANCH   8  25
TORSDOF 5
ENDMDL
MODEL 4
REMARK VINA RESULT:      -7.9      3.023      5.830
REMARK  5 active torsions:
REMARK  status: ('A' for Active; 'I' for Inactive)
REMARK    1  A    between atoms: C2_2  and  C4_4 
REMARK    2  A    between atoms: C9_9  and  N1_10 
REMARK    3  A    between atoms: N1_10  and  C10_11 
REMARK    4  A    between atoms: C11_13  and  N3_14 
REMARK    5  A    between atoms: C15_19  and  C16_20 
ROOT
HETATM    1  C10 UNL     1      23.334   1.000  53.042  1.00  0.00     0.157 A 
HETATM    2  N2  UNL     1      22.257   0.195  53.229  1.00  0.00    -0.045 NA
HETATM    3  C11 UNL     1      22.314  -0.873  54.046  1.00  0.00     0.724 A 
HETATM    4  N4  UNL     1      23.437  -1.219  54.733  1.00  0.00    -0.045 NA
HETATM    5  C12 UNL     1      24.548  -0.457  54.590  1.00  0.00     0.153 A 
HETATM    6  C13 UNL     1      24.495   0.650  53.746  1.00  0.00     0.037 A 
HETATM    7  C14 UNL     1      25.822   1.330  53.751  1.00  0.00     0.076 A 
HETATM    8  C15 UNL     1      26.648   0.475  54.654  1.00  0.00     0.123 A 
HETATM    9  N5  UNL     1      25.826  -0.577  55.168  1.00  0.00    -0.365 N 
HETATM   10  H19 UNL     1      26.221  -1.239  55.837  1.00  0.00     0.162 HD
ENDROOT
BRANCH   1  11
HETATM   11  N1  UNL     1      23.366   2.154  52.203  1.00  0.00    -0.339 N 
HETATM   12  H12 UNL     1      23.671   2.769  52.982  1.00  0.00     0.167 HD
BRANCH  11  13
HETATM   13  C9  UNL     1      23.023   2.077  50.827  1.00  0.00     0.040 A 
HETATM   14  C4  UNL     1      23.710   2.824  49.899  1.00  0.00    -0.028 A 
HETATM   15  C5  UNL     1      23.299   2.705  48.570  1.00  0.00     0.010 A 
HETATM   16  C6  UNL     1      22.249   1.863  48.269  1.00  0.00     0.001 A 
HETATM   17  C7  UNL     1      21.585   1.130  49.229  1.00  0.00     0.002 A 
HETATM   18  C8  UNL     1      21.973   1.228  50.557  1.00  0.00     0.030 A 
BRANCH  14  19
HETATM   19  C2  UNL     1      24.856   3.713  50.244  1.00  0.00     0.013 C 
HETATM   20  C1  UNL     1      26.152   3.290  49.595  1.00  0.00     0.015 C 
HETATM   21  C3  UNL     1      24.525   5.166  50.033  1.00  0.00     0.015 C 
ENDBRANCH  14  19
ENDBRANCH  11  13
ENDBRANCH   1  11
BRANCH   3  22
HETATM   22  N3  UNL     1      21.116  -1.631  54.149  1.00  0.00    -0.231 N 
HETATM   23  H13 UNL     1      21.441  -2.525  54.624  1.00  0.00     0.174 HD
HETATM   24  H14 UNL     1      20.464  -0.934  53.699  1.00  0.00     0.174 HD
ENDBRANCH   3  22
BRANCH   8  25
HETATM   25  C16 UNL     1      27.789  -0.159  53.960  1.00  0.00    -0.001 C 
HETATM   26  C17 UNL     1      29.092   0.060  54.030  1.00  0.00     0.008 C 
HETATM   27  C18 UNL     1      29.793  -1.055  53.898  1.00  0.00     0.047 C 
HETATM   28 CL1  UNL     1      31.260  -1.854  54.452  1.00  0.00    -0.083 Cl
HETATM   29  C19 UNL     1      28.949  -1.791  52.933  1.00  0.00     0.049 C 
HETATM   30  C20 UNL     1      27.721  -1.250  52.964  1.00  0.00     0.044 C 
HETATM   31 CL2  UNL     1      26.284  -1.702  52.034  1.00  0.00    -0.084 Cl
ENDBRANCH   8  25
TORSDOF 5
ENDMDL
MODEL 5
REMARK VINA RESULT:      -7.8      3.576      5.915
REMARK  5 active torsions:
REMARK  status: ('A' for Active; 'I' for Inactive)
REMARK    1  A    between atoms: C2_2  and  C4_4 
REMARK    2  A    between atoms: C9_9  and  N1_10 
REMARK    3  A    between atoms: N1_10  and  C10_11 
REMARK    4  A    between atoms: C11_13  and  N3_14 
REMARK    5  A    between atoms: C15_19  and  C16_20 
ROOT
HETATM    1  C10 UNL     1      23.695   0.588  52.544  1.00  0.00     0.157 A 
HETATM    2  N2  UNL     1      22.600  -0.102  52.954  1.00  0.00    -0.045 NA
HETATM    3  C11 UNL     1      22.643  -0.907  54.033  1.00  0.00     0.724 A 
HETATM    4  N4  UNL     1      23.768  -1.084  54.778  1.00  0.00    -0.045 NA
HETATM    5  C12 UNL     1      24.896  -0.423  54.421  1.00  0.00     0.153 A 
HETATM    6  C13 UNL     1      24.858   0.411  53.306  1.00  0.00     0.037 A 
HETATM    7  C14 UNL     1      26.202   1.027  53.112  1.00  0.00     0.076 A 
HETATM    8  C15 UNL     1      27.021   0.428  54.208  1.00  0.00     0.123 A 
HETATM    9  N5  UNL     1      26.180  -0.418  54.999  1.00  0.00    -0.365 N 
HETATM   10  H19 UNL     1      26.569  -0.883  55.820  1.00  0.00     0.162 HD
ENDROOT
BRANCH   1  11
HETATM   11  N1  UNL     1      23.742   1.467  51.420  1.00  0.00    -0.339 N 
HETATM   12  H12 UNL     1      24.453   0.885  50.935  1.00  0.00     0.167 HD
BRANCH  11  13
HETATM   13  C9  UNL     1      22.940   2.638  51.364  1.00  0.00     0.040 A 
HETATM   14  C4  UNL     1      21.995   2.784  50.375  1.00  0.00    -0.028 A 
HETATM   15  C5  UNL     1      21.263   3.973  50.379  1.00  0.00     0.010 A 
HETATM   16  C6  UNL     1      21.521   4.913  51.354  1.00  0.00     0.001 A 
HETATM   17  C7  UNL     1      22.478   4.728  52.329  1.00  0.00     0.002 A 
HETATM   18  C8  UNL     1      23.221   3.557  52.350  1.00  0.00     0.030 A 
BRANCH  14  19
HETATM   19  C2  UNL     1      21.719   1.745  49.343  1.00  0.00     0.013 C 
HETATM   20  C1  UNL     1      20.310   1.204  49.410  1.00  0.00     0.015 C 
HETATM   21  C3  UNL     1      22.123   2.198  47.966  1.00  0.00     0.015 C 
ENDBRANCH  14  19
ENDBRANCH  11  13
ENDBRANCH   1  11
BRANCH   3  22
HETATM   22  N3  UNL     1      21.428  -1.571  54.351  1.00  0.00    -0.231 N 
HETATM   23  H13 UNL     1      21.738  -2.310  55.050  1.00  0.00     0.174 HD
HETATM   24  H14 UNL     1      20.786  -1.005  53.733  1.00  0.00     0.174 HD
ENDBRANCH   3  22
BRANCH   8  25
HETATM   25  C16 UNL     1      28.133  -0.405  53.703  1.00  0.00    -0.001 C 
HETATM   26  C17 UNL     1      29.446  -0.259  53.781  1.00  0.00     0.008 C 
HETATM   27  C18 UNL     1      30.070  -1.420  53.906  1.00  0.00     0.047 C 
HETATM   28 CL1  UNL     1      31.462  -2.179  54.671  1.00  0.00    -0.083 Cl
HETATM   29  C19 UNL     1      29.203  -2.283  53.078  1.00  0.00     0.049 C 
HETATM   30  C20 UNL     1      28.015  -1.671  52.948  1.00  0.00     0.044 C 
HETATM   31 CL2  UNL     1      26.577  -2.213  52.072  1.00  0.00    -0.084 Cl
ENDBRANCH   8  25
TORSDOF 5
ENDMDL
MODEL 6
REMARK VINA RESULT:      -7.7      2.592      6.261
REMARK  5 active torsions:
REMARK  status: ('A' for Active; 'I' for Inactive)
REMARK    1  A    between atoms: C2_2  and  C4_4 
REMARK    2  A    between atoms: C9_9  and  N1_10 
REMARK    3  A    between atoms: N1_10  and  C10_11 
REMARK    4  A    between atoms: C11_13  and  N3_14 
REMARK    5  A    between atoms: C15_19  and  C16_20 
ROOT
HETATM    1  C10 UNL     1      24.537   0.605  53.192  1.00  0.00     0.157 A 
HETATM    2  N2  UNL     1      25.218  -0.570  53.170  1.00  0.00    -0.045 NA
HETATM    3  C11 UNL     1      26.315  -0.729  52.406  1.00  0.00     0.724 A 
HETATM    4  N4  UNL     1      26.814   0.258  51.613  1.00  0.00    -0.045 NA
HETATM    5  C12 UNL     1      26.180   1.456  51.589  1.00  0.00     0.153 A 
HETATM    6  C13 UNL     1      25.044   1.628  52.378  1.00  0.00     0.037 A 
HETATM    7  C14 UNL     1      24.527   3.013  52.192  1.00  0.00     0.076 A 
HETATM    8  C15 UNL     1      25.461   3.602  51.187  1.00  0.00     0.123 A 
HETATM    9  N5  UNL     1      26.469   2.635  50.875  1.00  0.00    -0.365 N 
HETATM   10  H19 UNL     1      27.218   2.883  50.229  1.00  0.00     0.162 HD
ENDROOT
BRANCH   1  11
HETATM   11  N1  UNL     1      23.372   0.869  53.973  1.00  0.00    -0.339 N 
HETATM   12  H12 UNL     1      23.823   1.666  54.463  1.00  0.00     0.167 HD
BRANCH  11  13
HETATM   13  C9  UNL     1      22.198   0.081  53.837  1.00  0.00     0.040 A 
HETATM   14  C4  UNL     1      21.214   0.451  52.949  1.00  0.00    -0.028 A 
HETATM   15  C5  UNL     1      20.084  -0.366  52.889  1.00  0.00     0.010 A 
HETATM   16  C6  UNL     1      20.019  -1.475  53.706  1.00  0.00     0.001 A 
HETATM   17  C7  UNL     1      21.027  -1.813  54.584  1.00  0.00     0.002 A 
HETATM   18  C8  UNL     1      22.161  -1.019  54.664  1.00  0.00     0.030 A 
BRANCH  14  19
HETATM   19  C2  UNL     1      21.316   1.643  52.061  1.00  0.00     0.013 C 
HETATM   20  C1  UNL     1      21.351   1.288  50.593  1.00  0.00     0.015 C 
HETATM   21  C3  UNL     1      20.286   2.688  52.401  1.00  0.00     0.015 C 
ENDBRANCH  14  19
ENDBRANCH  11  13
ENDBRANCH   1  11
BRANCH   3  22
HETATM   22  N3  UNL     1      26.929  -2.009  52.476  1.00  0.00    -0.231 N 
HETATM   23  H13 UNL     1      27.899  -1.827  52.080  1.00  0.00     0.174 HD
HETATM   24  H14 UNL     1      26.117  -2.538  52.894  1.00  0.00     0.174 HD
ENDBRANCH   3  22
BRANCH   8  25
HETATM   25  C16 UNL     1      24.790   3.960  49.919  1.00  0.00    -0.001 C 
HETATM   26  C17 UNL     1      23.976   3.275  49.132  1.00  0.00     0.008 C 
HETATM   27  C18 UNL     1      23.053   4.046  48.577  1.00  0.00     0.047 C 
HETATM   28 CL1  UNL     1      21.373   4.053  48.053  1.00  0.00    -0.083 Cl
HETATM   29  C19 UNL     1      23.824   5.292  48.384  1.00  0.00     0.049 C 
HETATM   30  C20 UNL     1      24.888   5.249  49.201  1.00  0.00     0.044 C 
HETATM   31 CL2  UNL     1      26.172   6.448  49.418  1.00  0.00    -0.084 Cl
ENDBRANCH   8  25
TORSDOF 5
ENDMDL
MODEL 7
REMARK VINA RESULT:      -7.7      1.763      2.254
REMARK  5 active torsions:
REMARK  status: ('A' for Active; 'I' for Inactive)
REMARK    1  A    between atoms: C2_2  and  C4_4 
REMARK    2  A    between atoms: C9_9  and  N1_10 
REMARK    3  A    between atoms: N1_10  and  C10_11 
REMARK    4  A    between atoms: C11_13  and  N3_14 
REMARK    5  A    between atoms: C15_19  and  C16_20 
ROOT
HETATM    1  C10 UNL     1      25.417   2.554  50.880  1.00  0.00     0.157 A 
HETATM    2  N2  UNL     1      26.375   2.675  51.835  1.00  0.00    -0.045 NA
HETATM    3  C11 UNL     1      26.150   2.292  53.105  1.00  0.00     0.724 A 
HETATM    4  N4  UNL     1      24.965   1.763  53.519  1.00  0.00    -0.045 NA
HETATM    5  C12 UNL     1      23.967   1.615  52.615  1.00  0.00     0.153 A 
HETATM    6  C13 UNL     1      24.194   2.010  51.298  1.00  0.00     0.037 A 
HETATM    7  C14 UNL     1      22.966   1.752  50.493  1.00  0.00     0.076 A 
HETATM    8  C15 UNL     1      22.002   1.206  51.494  1.00  0.00     0.123 A 
HETATM    9  N5  UNL     1      22.662   1.107  52.760  1.00  0.00    -0.365 N 
HETATM   10  H19 UNL     1      22.160   0.714  53.557  1.00  0.00     0.162 HD
ENDROOT
BRANCH   1  11
HETATM   11  N1  UNL     1      25.566   2.926  49.510  1.00  0.00    -0.339 N 
HETATM   12  H12 UNL     1      25.346   1.967  49.177  1.00  0.00     0.167 HD
BRANCH  11  13
HETATM   13  C9  UNL     1      25.910   4.253  49.139  1.00  0.00     0.040 A 
HETATM   14  C4  UNL     1      24.933   5.215  49.020  1.00  0.00    -0.028 A 
HETATM   15  C5  UNL     1      25.352   6.489  48.632  1.00  0.00     0.010 A 
HETATM   16  C6  UNL     1      26.693   6.707  48.395  1.00  0.00     0.001 A 
HETATM   17  C7  UNL     1      27.642   5.716  48.526  1.00  0.00     0.002 A 
HETATM   18  C8  UNL     1      27.255   4.441  48.910  1.00  0.00     0.030 A 
BRANCH  14  19
HETATM   19  C2  UNL     1      23.492   4.960  49.300  1.00  0.00     0.013 C 
HETATM   20  C1  UNL     1      22.895   5.946  50.277  1.00  0.00     0.015 C 
HETATM   21  C3  UNL     1      22.690   4.810  48.035  1.00  0.00     0.015 C 
ENDBRANCH  14  19
ENDBRANCH  11  13
ENDBRANCH   1  11
BRANCH   3  22
HETATM   22  N3  UNL     1      27.236   2.475  54.003  1.00  0.00    -0.231 N 
HETATM   23  H13 UNL     1      28.061   2.082  53.459  1.00  0.00     0.174 HD
HETATM   24  H14 UNL     1      26.698   2.920  54.794  1.00  0.00     0.174 HD
ENDBRANCH   3  22
BRANCH   8  25
HETATM   25  C16 UNL     1      20.818   2.070  51.683  1.00  0.00    -0.001 C 
HETATM   26  C17 UNL     1      20.694   3.385  51.760  1.00  0.00     0.008 C 
HETATM   27  C18 UNL     1      19.568   3.813  51.209  1.00  0.00     0.047 C 
HETATM   28 CL1  UNL     1      18.884   5.152  50.295  1.00  0.00    -0.083 Cl
HETATM   29  C19 UNL     1      18.661   2.697  51.548  1.00  0.00     0.049 C 
HETATM   30  C20 UNL     1      19.416   1.625  51.839  1.00  0.00     0.044 C 
HETATM   31 CL2  UNL     1      18.903   0.000  52.315  1.00  0.00    -0.084 Cl
ENDBRANCH   8  25
TORSDOF 5
ENDMDL
MODEL 8
REMARK VINA RESULT:      -7.7      3.577      7.391
REMARK  5 active torsions:
REMARK  status: ('A' for Active; 'I' for Inactive)
REMARK    1  A    between atoms: C2_2  and  C4_4 
REMARK    2  A    between atoms: C9_9  and  N1_10 
REMARK    3  A    between atoms: N1_10  and  C10_11 
REMARK    4  A    between atoms: C11_13  and  N3_14 
REMARK    5  A    between atoms: C15_19  and  C16_20 
ROOT
HETATM    1  C10 UNL     1      21.746   2.007  51.407  1.00  0.00     0.157 A 
HETATM    2  N2  UNL     1      20.524   1.579  51.000  1.00  0.00    -0.045 NA
HETATM    3  C11 UNL     1      20.172   1.599  49.701  1.00  0.00     0.724 A 
HETATM    4  N4  UNL     1      21.002   2.042  48.717  1.00  0.00    -0.045 NA
HETATM    5  C12 UNL     1      22.237   2.484  49.057  1.00  0.00     0.153 A 
HETATM    6  C13 UNL     1      22.607   2.465  50.400  1.00  0.00     0.037 A 
HETATM    7  C14 UNL     1      23.997   2.990  50.530  1.00  0.00     0.076 A 
HETATM    8  C15 UNL     1      24.367   3.345  49.128  1.00  0.00     0.123 A 
HETATM    9  N5  UNL     1      23.284   2.989  48.263  1.00  0.00    -0.365 N 
HETATM   10  H19 UNL     1      23.381   3.128  47.256  1.00  0.00     0.162 HD
ENDROOT
BRANCH   1  11
HETATM   11  N1  UNL     1      22.209   2.017  52.758  1.00  0.00    -0.339 N 
HETATM   12  H12 UNL     1      22.261   3.054  52.781  1.00  0.00     0.167 HD
BRANCH  11  13
HETATM   13  C9  UNL     1      22.407   0.810  53.479  1.00  0.00     0.040 A 
HETATM   14  C4  UNL     1      23.661   0.250  53.562  1.00  0.00    -0.028 A 
HETATM   15  C5  UNL     1      23.767  -0.946  54.273  1.00  0.00     0.010 A 
HETATM   16  C6  UNL     1      22.634  -1.488  54.841  1.00  0.00     0.001 A 
HETATM   17  C7  UNL     1      21.394  -0.896  54.736  1.00  0.00     0.002 A 
HETATM   18  C8  UNL     1      21.258   0.294  54.035  1.00  0.00     0.030 A 
BRANCH  14  19
HETATM   19  C2  UNL     1      24.876   0.865  52.956  1.00  0.00     0.013 C 
HETATM   20  C1  UNL     1      25.488   1.943  53.819  1.00  0.00     0.015 C 
HETATM   21  C3  UNL     1      25.867  -0.174  52.503  1.00  0.00     0.015 C 
ENDBRANCH  14  19
ENDBRANCH  11  13
ENDBRANCH   1  11
BRANCH   3  22
HETATM   22  N3  UNL     1      18.864   1.125  49.412  1.00  0.00    -0.231 N 
HETATM   23  H13 UNL     1      19.019   0.085  49.256  1.00  0.00     0.174 HD
HETATM   24  H14 UNL     1      18.354   2.045  49.492  1.00  0.00     0.174 HD
ENDBRANCH   3  22
BRANCH   8  25
HETATM   25  C16 UNL     1      24.615   4.791  48.949  1.00  0.00    -0.001 C 
HETATM   26  C17 UNL     1      23.794   5.801  48.711  1.00  0.00     0.008 C 
HETATM   27  C18 UNL     1      24.185   6.914  49.313  1.00  0.00     0.047 C 
HETATM   28 CL1  UNL     1      23.570   8.359  50.108  1.00  0.00    -0.083 Cl
HETATM   29  C19 UNL     1      25.652   6.770  49.219  1.00  0.00     0.049 C 
HETATM   30  C20 UNL     1      25.926   5.475  48.997  1.00  0.00     0.044 C 
HETATM   31 CL2  UNL     1      27.499   4.691  48.794  1.00  0.00    -0.084 Cl
ENDBRANCH   8  25
TORSDOF 5
ENDMDL
MODEL 9
REMARK VINA RESULT:      -7.6      6.642     10.123
REMARK  5 active torsions:
REMARK  status: ('A' for Active; 'I' for Inactive)
REMARK    1  A    between atoms: C2_2  and  C4_4 
REMARK    2  A    between atoms: C9_9  and  N1_10 
REMARK    3  A    between atoms: N1_10  and  C10_11 
REMARK    4  A    between atoms: C11_13  and  N3_14 
REMARK    5  A    between atoms: C15_19  and  C16_20 
ROOT
HETATM    1  C10 UNL     1      29.813   7.606  47.829  1.00  0.00     0.157 A 
HETATM    2  N2  UNL     1      29.726   8.487  48.858  1.00  0.00    -0.045 NA
HETATM    3  C11 UNL     1      30.825   9.055  49.388  1.00  0.00     0.724 A 
HETATM    4  N4  UNL     1      32.083   8.792  48.939  1.00  0.00    -0.045 NA
HETATM    5  C12 UNL     1      32.239   7.920  47.914  1.00  0.00     0.153 A 
HETATM    6  C13 UNL     1      31.105   7.329  47.360  1.00  0.00     0.037 A 
HETATM    7  C14 UNL     1      31.521   6.418  46.256  1.00  0.00     0.076 A 
HETATM    8  C15 UNL     1      33.010   6.521  46.261  1.00  0.00     0.123 A 
HETATM    9  N5  UNL     1      33.401   7.469  47.259  1.00  0.00    -0.365 N 
HETATM   10  H19 UNL     1      34.390   7.694  47.376  1.00  0.00     0.162 HD
ENDROOT
BRANCH   1  11
HETATM   11  N1  UNL     1      28.706   6.960  47.199  1.00  0.00    -0.339 N 
HETATM   12  H12 UNL     1      29.028   7.232  46.250  1.00  0.00     0.167 HD
BRANCH  11  13
HETATM   13  C9  UNL     1      27.714   6.288  47.960  1.00  0.00     0.040 A 
HETATM   14  C4  UNL     1      26.497   6.884  48.195  1.00  0.00    -0.028 A 
HETATM   15  C5  UNL     1      25.584   6.164  48.968  1.00  0.00     0.010 A 
HETATM   16  C6  UNL     1      25.946   4.921  49.442  1.00  0.00     0.001 A 
HETATM   17  C7  UNL     1      27.177   4.356  49.184  1.00  0.00     0.002 A 
HETATM   18  C8  UNL     1      28.103   5.049  48.419  1.00  0.00     0.030 A 
BRANCH  14  19
HETATM   19  C2  UNL     1      26.121   8.222  47.655  1.00  0.00     0.013 C 
HETATM   20  C1  UNL     1      24.957   8.167  46.694  1.00  0.00     0.015 C 
HETATM   21  C3  UNL     1      25.948   9.242  48.748  1.00  0.00     0.015 C 
ENDBRANCH  14  19
ENDBRANCH  11  13
ENDBRANCH   1  11
BRANCH   3  22
HETATM   22  N3  UNL     1      30.592   9.958  50.460  1.00  0.00    -0.231 N 
HETATM   23  H13 UNL     1      29.754   9.528  50.954  1.00  0.00     0.174 HD
HETATM   24  H14 UNL     1      31.373  10.636  50.252  1.00  0.00     0.174 HD
ENDBRANCH   3  22
BRANCH   8  25
HETATM   25  C16 UNL     1      33.673   5.240  46.589  1.00  0.00    -0.001 C 
HETATM   26  C17 UNL     1      33.815   4.592  47.734  1.00  0.00     0.008 C 
HETATM   27  C18 UNL     1      33.770   3.279  47.572  1.00  0.00     0.047 C 
HETATM   28 CL1  UNL     1      33.229   1.796  48.351  1.00  0.00    -0.083 Cl
HETATM   29  C19 UNL     1      34.426   3.146  46.255  1.00  0.00     0.049 C 
HETATM   30  C20 UNL     1      34.372   4.341  45.645  1.00  0.00     0.044 C 
HETATM   31 CL2  UNL     1      34.988   4.805  44.053  1.00  0.00    -0.084 Cl
ENDBRANCH   8  25
TORSDOF 5
ENDMDL
