MODEL 1
REMARK VINA RESULT:      -7.0      0.000      0.000
REMARK  8 active torsions:
REMARK  status: ('A' for Active; 'I' for Inactive)
REMARK    1  A    between atoms: O1_2  and  C2_3 
REMARK    2  A    between atoms: C3_4  and  C4_5 
REMARK    3  A    between atoms: C4_5  and  O2_6 
REMARK    4  A    between atoms: O2_6  and  C5_7 
REMARK    5  A    between atoms: C5_7  and  C6_8 
REMARK    6  A    between atoms: C6_8  and  C7_9 
REMARK    7  A    between atoms: C7_9  and  C8_10 
REMARK    8  A    between atoms: C10_14  and  N3_15 
ROOT
HETATM    1  C8  UNL     1      23.779   0.038  53.410  1.00  0.00     0.115 C 
HETATM    2  N1  UNL     1      23.486   0.800  52.173  1.00  0.00    -0.376 N 
HETATM    3  C9  UNL     1      24.224   1.829  51.467  1.00  0.00     0.206 C 
HETATM    4  N2  UNL     1      25.372   2.247  51.621  1.00  0.00    -0.218 N 
HETATM    5  C10 UNL     1      26.347   3.069  51.261  1.00  0.00     0.197 A 
HETATM    6  N4  UNL     1      26.809   2.324  52.188  1.00  0.00    -0.237 N 
HETATM    7  C11 UNL     1      28.112   2.335  52.763  1.00  0.00     0.274 C 
HETATM    8  N5  UNL     1      28.178   1.775  54.114  1.00  0.00    -0.372 N 
HETATM    9  C12 UNL     1      27.448   0.572  53.755  1.00  0.00     0.029 A 
HETATM   10  C13 UNL     1      27.994  -0.628  53.344  1.00  0.00     0.029 A 
HETATM   11  C14 UNL     1      27.187  -1.674  52.951  1.00  0.00     0.003 A 
HETATM   12  C15 UNL     1      25.829  -1.468  52.987  1.00  0.00     0.009 A 
HETATM   13  C16 UNL     1      25.180  -0.333  53.373  1.00  0.00    -0.033 A 
HETATM   14  C17 UNL     1      26.049   0.702  53.767  1.00  0.00     0.038 A 
HETATM   15  H13 UNL     1      22.571   0.515  51.764  1.00  0.00     0.161 HD
HETATM   16  H19 UNL     1      28.221   1.367  55.075  1.00  0.00     0.161 HD
ENDROOT
BRANCH   1  17
HETATM   17  C7  UNL     1      22.737  -0.908  53.800  1.00  0.00     0.032 C 
BRANCH  17  18
HETATM   18  C6  UNL     1      21.599  -0.519  54.638  1.00  0.00     0.029 C 
BRANCH  18  19
HETATM   19  C5  UNL     1      20.443   0.019  53.766  1.00  0.00     0.169 C 
BRANCH  19  20
HETATM   20  O2  UNL     1      20.558   1.364  53.558  1.00  0.00    -0.379 OA
BRANCH  20  21
HETATM   21  C4  UNL     1      20.052   1.877  52.405  1.00  0.00     0.263 C 
BRANCH  21  22
HETATM   22  C3  UNL     1      20.711   3.186  52.165  1.00  0.00    -0.050 C 
HETATM   23  C2  UNL     1      21.265   4.234  51.977  1.00  0.00     0.056 C 
BRANCH  23  24
HETATM   24  O1  UNL     1      21.891   5.454  51.771  1.00  0.00    -0.309 OA
HETATM   25  C1  UNL     1      23.262   5.477  51.345  1.00  0.00     0.223 C 
ENDBRANCH  23  24
ENDBRANCH  21  22
ENDBRANCH  20  21
ENDBRANCH  19  20
ENDBRANCH  18  19
ENDBRANCH  17  18
ENDBRANCH   1  17
BRANCH   5  26
HETATM   26  N3  UNL     1      26.524   4.112  50.329  1.00  0.00    -0.271 NA
HETATM   27  H15 UNL     1      27.454   4.552  50.520  1.00  0.00     0.127 HD
HETATM   28  H16 UNL     1      27.450   4.483  50.588  1.00  0.00     0.127 HD
ENDBRANCH   5  26
TORSDOF 8
ENDMDL
MODEL 2
REMARK VINA RESULT:      -6.7      3.150      6.385
REMARK  8 active torsions:
REMARK  status: ('A' for Active; 'I' for Inactive)
REMARK    1  A    between atoms: O1_2  and  C2_3 
REMARK    2  A    between atoms: C3_4  and  C4_5 
REMARK    3  A    between atoms: C4_5  and  O2_6 
REMARK    4  A    between atoms: O2_6  and  C5_7 
REMARK    5  A    between atoms: C5_7  and  C6_8 
REMARK    6  A    between atoms: C6_8  and  C7_9 
REMARK    7  A    between atoms: C7_9  and  C8_10 
REMARK    8  A    between atoms: C10_14  and  N3_15 
ROOT
HETATM    1  C8  UNL     1      24.640   0.488  52.767  1.00  0.00     0.115 C 
HETATM    2  N1  UNL     1      24.992   1.896  53.071  1.00  0.00    -0.376 N 
HETATM    3  C9  UNL     1      24.287   3.144  52.851  1.00  0.00     0.206 C 
HETATM    4  N2  UNL     1      23.132   3.363  52.483  1.00  0.00    -0.218 N 
HETATM    5  C10 UNL     1      22.175   4.228  52.179  1.00  0.00     0.197 A 
HETATM    6  N4  UNL     1      21.670   3.060  52.084  1.00  0.00    -0.237 N 
HETATM    7  C11 UNL     1      20.340   2.699  51.722  1.00  0.00     0.274 C 
HETATM    8  N5  UNL     1      20.210   1.343  51.186  1.00  0.00    -0.372 N 
HETATM    9  C12 UNL     1      20.958   0.738  52.273  1.00  0.00     0.029 A 
HETATM   10  C13 UNL     1      20.435   0.214  53.439  1.00  0.00     0.029 A 
HETATM   11  C14 UNL     1      21.261  -0.261  54.434  1.00  0.00     0.003 A 
HETATM   12  C15 UNL     1      22.615  -0.189  54.214  1.00  0.00     0.009 A 
HETATM   13  C16 UNL     1      23.243   0.304  53.109  1.00  0.00    -0.033 A 
HETATM   14  C17 UNL     1      22.355   0.772  52.122  1.00  0.00     0.038 A 
HETATM   15  H13 UNL     1      25.926   1.960  53.529  1.00  0.00     0.161 HD
HETATM   16  H19 UNL     1      20.120   0.372  50.811  1.00  0.00     0.161 HD
ENDROOT
BRANCH   1  17
HETATM   17  C7  UNL     1      25.664  -0.485  53.137  1.00  0.00     0.032 C 
BRANCH  17  18
HETATM   18  C6  UNL     1      26.531  -1.128  52.146  1.00  0.00     0.029 C 
BRANCH  18  19
HETATM   19  C5  UNL     1      27.143  -2.424  52.721  1.00  0.00     0.169 C 
BRANCH  19  20
HETATM   20  O2  UNL     1      28.469  -2.532  52.408  1.00  0.00    -0.379 OA
BRANCH  20  21
HETATM   21  C4  UNL     1      29.375  -2.377  53.409  1.00  0.00     0.263 C 
BRANCH  21  22
HETATM   22  C3  UNL     1      29.409  -0.936  53.769  1.00  0.00    -0.050 C 
HETATM   23  C2  UNL     1      29.414   0.230  54.053  1.00  0.00     0.056 C 
BRANCH  23  24
HETATM   24  O1  UNL     1      29.435   1.580  54.371  1.00  0.00    -0.309 OA
HETATM   25  C1  UNL     1      28.614   2.490  53.624  1.00  0.00     0.223 C 
ENDBRANCH  23  24
ENDBRANCH  21  22
ENDBRANCH  20  21
ENDBRANCH  19  20
ENDBRANCH  18  19
ENDBRANCH  17  18
ENDBRANCH   1  17
BRANCH   5  26
HETATM   26  N3  UNL     1      22.041   5.628  52.087  1.00  0.00    -0.271 NA
HETATM   27  H15 UNL     1      21.018   5.846  52.070  1.00  0.00     0.127 HD
HETATM   28  H16 UNL     1      21.018   5.750  52.075  1.00  0.00     0.127 HD
ENDBRANCH   5  26
TORSDOF 8
ENDMDL
MODEL 3
REMARK VINA RESULT:      -6.7      2.003      3.394
REMARK  8 active torsions:
REMARK  status: ('A' for Active; 'I' for Inactive)
REMARK    1  A    between atoms: O1_2  and  C2_3 
REMARK    2  A    between atoms: C3_4  and  C4_5 
REMARK    3  A    between atoms: C4_5  and  O2_6 
REMARK    4  A    between atoms: O2_6  and  C5_7 
REMARK    5  A    between atoms: C5_7  and  C6_8 
REMARK    6  A    between atoms: C6_8  and  C7_9 
REMARK    7  A    between atoms: C7_9  and  C8_10 
REMARK    8  A    between atoms: C10_14  and  N3_15 
ROOT
HETATM    1  C8  UNL     1      23.581  -0.651  53.373  1.00  0.00     0.115 C 
HETATM    2  N1  UNL     1      24.419  -0.822  54.585  1.00  0.00    -0.376 N 
HETATM    3  C9  UNL     1      25.769  -0.396  54.902  1.00  0.00     0.206 C 
HETATM    4  N2  UNL     1      26.538   0.357  54.303  1.00  0.00    -0.218 N 
HETATM    5  C10 UNL     1      27.715   0.960  54.224  1.00  0.00     0.197 A 
HETATM    6  N4  UNL     1      27.018   1.366  53.235  1.00  0.00    -0.237 N 
HETATM    7  C11 UNL     1      27.388   2.287  52.213  1.00  0.00     0.274 C 
HETATM    8  N5  UNL     1      26.627   2.144  50.971  1.00  0.00    -0.372 N 
HETATM    9  C12 UNL     1      25.342   2.138  51.646  1.00  0.00     0.029 A 
HETATM   10  C13 UNL     1      24.537   3.234  51.889  1.00  0.00     0.029 A 
HETATM   11  C14 UNL     1      23.372   3.109  52.616  1.00  0.00     0.003 A 
HETATM   12  C15 UNL     1      23.054   1.856  53.081  1.00  0.00     0.009 A 
HETATM   13  C16 UNL     1      23.766   0.708  52.903  1.00  0.00    -0.033 A 
HETATM   14  C17 UNL     1      24.944   0.890  52.153  1.00  0.00     0.038 A 
HETATM   15  H13 UNL     1      23.909  -1.351  55.323  1.00  0.00     0.161 HD
HETATM   16  H19 UNL     1      26.076   2.043  50.088  1.00  0.00     0.161 HD
ENDROOT
BRANCH   1  17
HETATM   17  C7  UNL     1      22.261  -1.269  53.459  1.00  0.00     0.032 C 
BRANCH  17  18
HETATM   18  C6  UNL     1      21.220  -0.774  54.365  1.00  0.00     0.029 C 
BRANCH  18  19
HETATM   19  C5  UNL     1      20.068  -0.128  53.565  1.00  0.00     0.169 C 
BRANCH  19  20
HETATM   20  O2  UNL     1      20.213  -0.336  52.222  1.00  0.00    -0.379 OA
BRANCH  20  21
HETATM   21  C4  UNL     1      19.687   0.587  51.373  1.00  0.00     0.263 C 
BRANCH  21  22
HETATM   22  C3  UNL     1      20.782   1.065  50.491  1.00  0.00    -0.050 C 
HETATM   23  C2  UNL     1      21.658   1.473  49.780  1.00  0.00     0.056 C 
BRANCH  23  24
HETATM   24  O1  UNL     1      22.667   1.931  48.945  1.00  0.00    -0.309 OA
HETATM   25  C1  UNL     1      22.542   3.225  48.336  1.00  0.00     0.223 C 
ENDBRANCH  23  24
ENDBRANCH  21  22
ENDBRANCH  20  21
ENDBRANCH  19  20
ENDBRANCH  18  19
ENDBRANCH  17  18
ENDBRANCH   1  17
BRANCH   5  26
HETATM   26  N3  UNL     1      28.917   0.975  54.959  1.00  0.00    -0.271 NA
HETATM   27  H15 UNL     1      28.826   1.711  55.697  1.00  0.00     0.127 HD
HETATM   28  H16 UNL     1      28.741   1.717  55.652  1.00  0.00     0.127 HD
ENDBRANCH   5  26
TORSDOF 8
ENDMDL
MODEL 4
REMARK VINA RESULT:      -6.6      4.089      6.857
REMARK  8 active torsions:
REMARK  status: ('A' for Active; 'I' for Inactive)
REMARK    1  A    between atoms: O1_2  and  C2_3 
REMARK    2  A    between atoms: C3_4  and  C4_5 
REMARK    3  A    between atoms: C4_5  and  O2_6 
REMARK    4  A    between atoms: O2_6  and  C5_7 
REMARK    5  A    between atoms: C5_7  and  C6_8 
REMARK    6  A    between atoms: C6_8  and  C7_9 
REMARK    7  A    between atoms: C7_9  and  C8_10 
REMARK    8  A    between atoms: C10_14  and  N3_15 
ROOT
HETATM    1  C8  UNL     1      26.185   2.561  50.705  1.00  0.00     0.115 C 
HETATM    2  N1  UNL     1      24.825   2.870  51.208  1.00  0.00    -0.376 N 
HETATM    3  C9  UNL     1      23.903   2.120  52.039  1.00  0.00     0.206 C 
HETATM    4  N2  UNL     1      24.058   1.079  52.679  1.00  0.00    -0.218 N 
HETATM    5  C10 UNL     1      23.563   0.145  53.478  1.00  0.00     0.197 A 
HETATM    6  N4  UNL     1      24.797  -0.127  53.302  1.00  0.00    -0.237 N 
HETATM    7  C11 UNL     1      25.547  -1.215  53.836  1.00  0.00     0.274 C 
HETATM    8  N5  UNL     1      26.737  -1.563  53.059  1.00  0.00    -0.372 N 
HETATM    9  C12 UNL     1      27.212  -0.193  52.990  1.00  0.00     0.029 A 
HETATM   10  C13 UNL     1      28.090   0.416  53.864  1.00  0.00     0.029 A 
HETATM   11  C14 UNL     1      28.402   1.753  53.736  1.00  0.00     0.003 A 
HETATM   12  C15 UNL     1      27.802   2.442  52.710  1.00  0.00     0.009 A 
HETATM   13  C16 UNL     1      26.925   1.949  51.791  1.00  0.00    -0.033 A 
HETATM   14  C17 UNL     1      26.644   0.580  51.963  1.00  0.00     0.038 A 
HETATM   15  H13 UNL     1      24.508   3.808  50.885  1.00  0.00     0.161 HD
HETATM   16  H19 UNL     1      27.590  -1.804  52.504  1.00  0.00     0.161 HD
ENDROOT
BRANCH   1  17
HETATM   17  C7  UNL     1      26.767   3.600  49.860  1.00  0.00     0.032 C 
BRANCH  17  18
HETATM   18  C6  UNL     1      25.966   4.686  49.287  1.00  0.00     0.029 C 
BRANCH  18  19
HETATM   19  C5  UNL     1      26.880   5.757  48.653  1.00  0.00     0.169 C 
BRANCH  19  20
HETATM   20  O2  UNL     1      28.127   5.262  48.396  1.00  0.00    -0.379 OA
BRANCH  20  21
HETATM   21  C4  UNL     1      29.151   6.147  48.265  1.00  0.00     0.263 C 
BRANCH  21  22
HETATM   22  C3  UNL     1      30.363   5.382  47.875  1.00  0.00    -0.050 C 
HETATM   23  C2  UNL     1      31.355   4.782  47.568  1.00  0.00     0.056 C 
BRANCH  23  24
HETATM   24  O1  UNL     1      32.494   4.084  47.195  1.00  0.00    -0.309 OA
HETATM   25  C1  UNL     1      32.362   2.760  46.656  1.00  0.00     0.223 C 
ENDBRANCH  23  24
ENDBRANCH  21  22
ENDBRANCH  20  21
ENDBRANCH  19  20
ENDBRANCH  18  19
ENDBRANCH  17  18
ENDBRANCH   1  17
BRANCH   5  26
HETATM   26  N3  UNL     1      22.316  -0.159  54.060  1.00  0.00    -0.271 NA
HETATM   27  H15 UNL     1      22.032   0.662  54.644  1.00  0.00     0.127 HD
HETATM   28  H16 UNL     1      22.117   0.691  54.609  1.00  0.00     0.127 HD
ENDBRANCH   5  26
TORSDOF 8
ENDMDL
MODEL 5
REMARK VINA RESULT:      -6.5      1.722      4.522
REMARK  8 active torsions:
REMARK  status: ('A' for Active; 'I' for Inactive)
REMARK    1  A    between atoms: O1_2  and  C2_3 
REMARK    2  A    between atoms: C3_4  and  C4_5 
REMARK    3  A    between atoms: C4_5  and  O2_6 
REMARK    4  A    between atoms: O2_6  and  C5_7 
REMARK    5  A    between atoms: C5_7  and  C6_8 
REMARK    6  A    between atoms: C6_8  and  C7_9 
REMARK    7  A    between atoms: C7_9  and  C8_10 
REMARK    8  A    between atoms: C10_14  and  N3_15 
ROOT
HETATM    1  C8  UNL     1      26.020   2.477  50.872  1.00  0.00     0.115 C 
HETATM    2  N1  UNL     1      24.674   2.633  51.474  1.00  0.00    -0.376 N 
HETATM    3  C9  UNL     1      23.877   1.761  52.314  1.00  0.00     0.206 C 
HETATM    4  N2  UNL     1      24.165   0.706  52.883  1.00  0.00    -0.218 N 
HETATM    5  C10 UNL     1      23.808  -0.309  53.656  1.00  0.00     0.197 A 
HETATM    6  N4  UNL     1      25.047  -0.457  53.391  1.00  0.00    -0.237 N 
HETATM    7  C11 UNL     1      25.923  -1.498  53.815  1.00  0.00     0.274 C 
HETATM    8  N5  UNL     1      27.086  -1.695  52.948  1.00  0.00    -0.372 N 
HETATM    9  C12 UNL     1      27.433  -0.286  52.929  1.00  0.00     0.029 A 
HETATM   10  C13 UNL     1      28.309   0.356  53.782  1.00  0.00     0.029 A 
HETATM   11  C14 UNL     1      28.493   1.720  53.713  1.00  0.00     0.003 A 
HETATM   12  C15 UNL     1      27.768   2.403  52.766  1.00  0.00     0.009 A 
HETATM   13  C16 UNL     1      26.880   1.880  51.875  1.00  0.00    -0.033 A 
HETATM   14  C17 UNL     1      26.733   0.484  51.985  1.00  0.00     0.038 A 
HETATM   15  H13 UNL     1      24.255   3.554  51.224  1.00  0.00     0.161 HD
HETATM   16  H19 UNL     1      27.918  -1.829  52.330  1.00  0.00     0.161 HD
ENDROOT
BRANCH   1  17
HETATM   17  C7  UNL     1      26.452   3.607  50.054  1.00  0.00     0.032 C 
BRANCH  17  18
HETATM   18  C6  UNL     1      25.503   4.463  49.335  1.00  0.00     0.029 C 
BRANCH  18  19
HETATM   19  C5  UNL     1      25.261   5.775  50.113  1.00  0.00     0.169 C 
BRANCH  19  20
HETATM   20  O2  UNL     1      24.284   5.623  51.057  1.00  0.00    -0.379 OA
BRANCH  20  21
HETATM   21  C4  UNL     1      23.025   6.026  50.742  1.00  0.00     0.263 C 
BRANCH  21  22
HETATM   22  C3  UNL     1      22.074   5.109  51.422  1.00  0.00    -0.050 C 
HETATM   23  C2  UNL     1      21.310   4.380  51.991  1.00  0.00     0.056 C 
BRANCH  23  24
HETATM   24  O1  UNL     1      20.435   3.522  52.641  1.00  0.00    -0.309 OA
HETATM   25  C1  UNL     1      19.851   2.431  51.913  1.00  0.00     0.223 C 
ENDBRANCH  23  24
ENDBRANCH  21  22
ENDBRANCH  20  21
ENDBRANCH  19  20
ENDBRANCH  18  19
ENDBRANCH  17  18
ENDBRANCH   1  17
BRANCH   5  26
HETATM   26  N3  UNL     1      22.633  -0.755  54.294  1.00  0.00    -0.271 NA
HETATM   27  H15 UNL     1      22.621  -0.344  55.256  1.00  0.00     0.127 HD
HETATM   28  H16 UNL     1      22.704  -0.309  55.221  1.00  0.00     0.127 HD
ENDBRANCH   5  26
TORSDOF 8
ENDMDL
MODEL 6
REMARK VINA RESULT:      -6.5      2.723      6.031
REMARK  8 active torsions:
REMARK  status: ('A' for Active; 'I' for Inactive)
REMARK    1  A    between atoms: O1_2  and  C2_3 
REMARK    2  A    between atoms: C3_4  and  C4_5 
REMARK    3  A    between atoms: C4_5  and  O2_6 
REMARK    4  A    between atoms: O2_6  and  C5_7 
REMARK    5  A    between atoms: C5_7  and  C6_8 
REMARK    6  A    between atoms: C6_8  and  C7_9 
REMARK    7  A    between atoms: C7_9  and  C8_10 
REMARK    8  A    between atoms: C10_14  and  N3_15 
ROOT
HETATM    1  C8  UNL     1      24.950   1.716  51.952  1.00  0.00     0.115 C 
HETATM    2  N1  UNL     1      23.645   1.012  51.961  1.00  0.00    -0.376 N 
HETATM    3  C9  UNL     1      22.281   1.493  52.060  1.00  0.00     0.206 C 
HETATM    4  N2  UNL     1      21.824   2.636  52.014  1.00  0.00    -0.218 N 
HETATM    5  C10 UNL     1      20.781   3.452  52.056  1.00  0.00     0.197 A 
HETATM    6  N4  UNL     1      21.809   4.171  51.826  1.00  0.00    -0.237 N 
HETATM    7  C11 UNL     1      21.878   5.582  51.645  1.00  0.00     0.274 C 
HETATM    8  N5  UNL     1      23.191   6.162  51.936  1.00  0.00    -0.372 N 
HETATM    9  C12 UNL     1      23.906   5.193  51.125  1.00  0.00     0.029 A 
HETATM   10  C13 UNL     1      24.255   5.333  49.796  1.00  0.00     0.029 A 
HETATM   11  C14 UNL     1      24.864   4.302  49.112  1.00  0.00     0.003 A 
HETATM   12  C15 UNL     1      25.104   3.142  49.809  1.00  0.00     0.009 A 
HETATM   13  C16 UNL     1      24.806   2.891  51.115  1.00  0.00    -0.033 A 
HETATM   14  C17 UNL     1      24.189   3.976  51.767  1.00  0.00     0.038 A 
HETATM   15  H13 UNL     1      23.773  -0.019  51.878  1.00  0.00     0.161 HD
HETATM   16  H19 UNL     1      24.131   6.571  52.138  1.00  0.00     0.161 HD
ENDROOT
BRANCH   1  17
HETATM   17  C7  UNL     1      26.111   0.837  51.859  1.00  0.00     0.032 C 
BRANCH  17  18
HETATM   18  C6  UNL     1      27.253   0.946  52.772  1.00  0.00     0.029 C 
BRANCH  18  19
HETATM   19  C5  UNL     1      27.605  -0.435  53.368  1.00  0.00     0.169 C 
BRANCH  19  20
HETATM   20  O2  UNL     1      26.518  -1.018  53.954  1.00  0.00    -0.379 OA
BRANCH  20  21
HETATM   21  C4  UNL     1      25.901  -0.349  54.964  1.00  0.00     0.263 C 
BRANCH  21  22
HETATM   22  C3  UNL     1      24.525  -0.893  55.093  1.00  0.00    -0.050 C 
HETATM   23  C2  UNL     1      23.421  -1.348  55.213  1.00  0.00     0.056 C 
BRANCH  23  24
HETATM   24  O1  UNL     1      22.144  -1.875  55.333  1.00  0.00    -0.309 OA
HETATM   25  C1  UNL     1      21.153  -1.546  54.347  1.00  0.00     0.223 C 
ENDBRANCH  23  24
ENDBRANCH  21  22
ENDBRANCH  20  21
ENDBRANCH  19  20
ENDBRANCH  18  19
ENDBRANCH  17  18
ENDBRANCH   1  17
BRANCH   5  26
HETATM   26  N3  UNL     1      19.390   3.338  52.259  1.00  0.00    -0.271 NA
HETATM   27  H15 UNL     1      18.918   3.969  51.571  1.00  0.00     0.127 HD
HETATM   28  H16 UNL     1      19.011   3.984  51.551  1.00  0.00     0.127 HD
ENDBRANCH   5  26
TORSDOF 8
ENDMDL
MODEL 7
REMARK VINA RESULT:      -6.4      1.848      5.136
REMARK  8 active torsions:
REMARK  status: ('A' for Active; 'I' for Inactive)
REMARK    1  A    between atoms: O1_2  and  C2_3 
REMARK    2  A    between atoms: C3_4  and  C4_5 
REMARK    3  A    between atoms: C4_5  and  O2_6 
REMARK    4  A    between atoms: O2_6  and  C5_7 
REMARK    5  A    between atoms: C5_7  and  C6_8 
REMARK    6  A    between atoms: C6_8  and  C7_9 
REMARK    7  A    between atoms: C7_9  and  C8_10 
REMARK    8  A    between atoms: C10_14  and  N3_15 
ROOT
HETATM    1  C8  UNL     1      24.970   3.474  50.871  1.00  0.00     0.115 C 
HETATM    2  N1  UNL     1      26.193   2.634  50.875  1.00  0.00    -0.376 N 
HETATM    3  C9  UNL     1      26.533   1.415  51.582  1.00  0.00     0.206 C 
HETATM    4  N2  UNL     1      25.840   0.658  52.264  1.00  0.00    -0.218 N 
HETATM    5  C10 UNL     1      25.734  -0.432  53.009  1.00  0.00     0.197 A 
HETATM    6  N4  UNL     1      24.565   0.071  52.911  1.00  0.00    -0.237 N 
HETATM    7  C11 UNL     1      23.348  -0.406  53.477  1.00  0.00     0.274 C 
HETATM    8  N5  UNL     1      22.321   0.624  53.650  1.00  0.00    -0.372 N 
HETATM    9  C12 UNL     1      22.457   1.123  52.294  1.00  0.00     0.029 A 
HETATM   10  C13 UNL     1      21.723   0.724  51.194  1.00  0.00     0.029 A 
HETATM   11  C14 UNL     1      22.004   1.218  49.938  1.00  0.00     0.003 A 
HETATM   12  C15 UNL     1      23.039   2.116  49.834  1.00  0.00     0.009 A 
HETATM   13  C16 UNL     1      23.828   2.581  50.843  1.00  0.00    -0.033 A 
HETATM   14  C17 UNL     1      23.497   2.049  52.104  1.00  0.00     0.038 A 
HETATM   15  H13 UNL     1      26.919   3.025  50.238  1.00  0.00     0.161 HD
HETATM   16  H19 UNL     1      21.589   1.361  53.765  1.00  0.00     0.161 HD
ENDROOT
BRANCH   1  17
HETATM   17  C7  UNL     1      25.051   4.657  50.019  1.00  0.00     0.032 C 
BRANCH  17  18
HETATM   18  C6  UNL     1      24.793   6.008  50.526  1.00  0.00     0.029 C 
BRANCH  18  19
HETATM   19  C5  UNL     1      23.562   6.011  51.458  1.00  0.00     0.169 C 
BRANCH  19  20
HETATM   20  O2  UNL     1      22.513   6.684  50.899  1.00  0.00    -0.379 OA
BRANCH  20  21
HETATM   21  C4  UNL     1      21.693   6.002  50.056  1.00  0.00     0.263 C 
BRANCH  21  22
HETATM   22  C3  UNL     1      20.924   5.023  50.867  1.00  0.00    -0.050 C 
HETATM   23  C2  UNL     1      20.324   4.225  51.532  1.00  0.00     0.056 C 
BRANCH  23  24
HETATM   24  O1  UNL     1      19.620   3.297  52.285  1.00  0.00    -0.309 OA
HETATM   25  C1  UNL     1      18.552   2.559  51.672  1.00  0.00     0.223 C 
ENDBRANCH  23  24
ENDBRANCH  21  22
ENDBRANCH  20  21
ENDBRANCH  19  20
ENDBRANCH  18  19
ENDBRANCH  17  18
ENDBRANCH   1  17
BRANCH   5  26
HETATM   26  N3  UNL     1      26.595  -1.434  53.499  1.00  0.00    -0.271 NA
HETATM   27  H15 UNL     1      26.923  -1.134  54.445  1.00  0.00     0.127 HD
HETATM   28  H16 UNL     1      26.867  -1.060  54.420  1.00  0.00     0.127 HD
ENDBRANCH   5  26
TORSDOF 8
ENDMDL
MODEL 8
REMARK VINA RESULT:      -6.4      3.310      4.386
REMARK  8 active torsions:
REMARK  status: ('A' for Active; 'I' for Inactive)
REMARK    1  A    between atoms: O1_2  and  C2_3 
REMARK    2  A    between atoms: C3_4  and  C4_5 
REMARK    3  A    between atoms: C4_5  and  O2_6 
REMARK    4  A    between atoms: O2_6  and  C5_7 
REMARK    5  A    between atoms: C5_7  and  C6_8 
REMARK    6  A    between atoms: C6_8  and  C7_9 
REMARK    7  A    between atoms: C7_9  and  C8_10 
REMARK    8  A    between atoms: C10_14  and  N3_15 
ROOT
HETATM    1  C8  UNL     1      22.321   2.905  52.211  1.00  0.00     0.115 C 
HETATM    2  N1  UNL     1      22.667   3.201  50.800  1.00  0.00    -0.376 N 
HETATM    3  C9  UNL     1      23.938   3.395  50.131  1.00  0.00     0.206 C 
HETATM    4  N2  UNL     1      25.092   3.219  50.525  1.00  0.00    -0.218 N 
HETATM    5  C10 UNL     1      26.396   3.260  50.295  1.00  0.00     0.197 A 
HETATM    6  N4  UNL     1      26.236   2.782  51.468  1.00  0.00    -0.237 N 
HETATM    7  C11 UNL     1      27.234   2.361  52.393  1.00  0.00     0.274 C 
HETATM    8  N5  UNL     1      26.802   2.378  53.792  1.00  0.00    -0.372 N 
HETATM    9  C12 UNL     1      25.573   1.654  53.522  1.00  0.00     0.029 A 
HETATM   10  C13 UNL     1      25.394   0.287  53.593  1.00  0.00     0.029 A 
HETATM   11  C14 UNL     1      24.195  -0.289  53.232  1.00  0.00     0.003 A 
HETATM   12  C15 UNL     1      23.198   0.553  52.802  1.00  0.00     0.009 A 
HETATM   13  C16 UNL     1      23.259   1.910  52.692  1.00  0.00    -0.033 A 
HETATM   14  C17 UNL     1      24.503   2.448  53.076  1.00  0.00     0.038 A 
HETATM   15  H13 UNL     1      21.811   3.274  50.211  1.00  0.00     0.161 HD
HETATM   16  H19 UNL     1      26.487   2.386  54.789  1.00  0.00     0.161 HD
ENDROOT
BRANCH   1  17
HETATM   17  C7  UNL     1      20.888   2.810  52.476  1.00  0.00     0.032 C 
BRANCH  17  18
HETATM   18  C6  UNL     1      19.909   3.683  51.821  1.00  0.00     0.029 C 
BRANCH  18  19
HETATM   19  C5  UNL     1      18.621   2.899  51.490  1.00  0.00     0.169 C 
BRANCH  19  20
HETATM   20  O2  UNL     1      17.506   3.576  51.896  1.00  0.00    -0.379 OA
BRANCH  20  21
HETATM   21  C4  UNL     1      16.294   3.001  51.673  1.00  0.00     0.263 C 
BRANCH  21  22
HETATM   22  C3  UNL     1      15.317   3.632  52.598  1.00  0.00    -0.050 C 
HETATM   23  C2  UNL     1      14.541   4.161  53.343  1.00  0.00     0.056 C 
BRANCH  23  24
HETATM   24  O1  UNL     1      13.645   4.759  54.217  1.00  0.00    -0.309 OA
HETATM   25  C1  UNL     1      12.266   4.357  54.193  1.00  0.00     0.223 C 
ENDBRANCH  23  24
ENDBRANCH  21  22
ENDBRANCH  20  21
ENDBRANCH  19  20
ENDBRANCH  18  19
ENDBRANCH  17  18
ENDBRANCH   1  17
BRANCH   5  26
HETATM   26  N3  UNL     1      27.246   3.658  49.243  1.00  0.00    -0.271 NA
HETATM   27  H15 UNL     1      28.079   3.026  49.255  1.00  0.00     0.127 HD
HETATM   28  H16 UNL     1      28.028   2.993  49.329  1.00  0.00     0.127 HD
ENDBRANCH   5  26
TORSDOF 8
ENDMDL
MODEL 9
REMARK VINA RESULT:      -6.4      3.562      5.600
REMARK  8 active torsions:
REMARK  status: ('A' for Active; 'I' for Inactive)
REMARK    1  A    between atoms: O1_2  and  C2_3 
REMARK    2  A    between atoms: C3_4  and  C4_5 
REMARK    3  A    between atoms: C4_5  and  O2_6 
REMARK    4  A    between atoms: O2_6  and  C5_7 
REMARK    5  A    between atoms: C5_7  and  C6_8 
REMARK    6  A    between atoms: C6_8  and  C7_9 
REMARK    7  A    between atoms: C7_9  and  C8_10 
REMARK    8  A    between atoms: C10_14  and  N3_15 
ROOT
HETATM    1  C8  UNL     1      21.071   1.173  51.308  1.00  0.00     0.115 C 
HETATM    2  N1  UNL     1      20.422   0.522  52.470  1.00  0.00    -0.376 N 
HETATM    3  C9  UNL     1      20.952  -0.268  53.564  1.00  0.00     0.206 C 
HETATM    4  N2  UNL     1      22.114  -0.490  53.909  1.00  0.00    -0.218 N 
HETATM    5  C10 UNL     1      22.969  -1.076  54.735  1.00  0.00     0.197 A 
HETATM    6  N4  UNL     1      23.656  -0.375  53.920  1.00  0.00    -0.237 N 
HETATM    7  C11 UNL     1      25.071  -0.220  53.864  1.00  0.00     0.274 C 
HETATM    8  N5  UNL     1      25.580   0.181  52.551  1.00  0.00    -0.372 N 
HETATM    9  C12 UNL     1      24.628   1.267  52.405  1.00  0.00     0.029 A 
HETATM   10  C13 UNL     1      24.825   2.585  52.767  1.00  0.00     0.029 A 
HETATM   11  C14 UNL     1      23.808   3.509  52.652  1.00  0.00     0.003 A 
HETATM   12  C15 UNL     1      22.604   3.061  52.168  1.00  0.00     0.009 A 
HETATM   13  C16 UNL     1      22.294   1.791  51.781  1.00  0.00    -0.033 A 
HETATM   14  C17 UNL     1      23.367   0.888  51.914  1.00  0.00     0.038 A 
HETATM   15  H13 UNL     1      19.393   0.685  52.466  1.00  0.00     0.161 HD
HETATM   16  H19 UNL     1      25.938   0.473  51.613  1.00  0.00     0.161 HD
ENDROOT
BRANCH   1  17
HETATM   17  C7  UNL     1      20.151   1.865  50.409  1.00  0.00     0.032 C 
BRANCH  17  18
HETATM   18  C6  UNL     1      18.802   2.262  50.822  1.00  0.00     0.029 C 
BRANCH  18  19
HETATM   19  C5  UNL     1      18.799   3.721  51.331  1.00  0.00     0.169 C 
BRANCH  19  20
HETATM   20  O2  UNL     1      17.689   3.986  52.082  1.00  0.00    -0.379 OA
BRANCH  20  21
HETATM   21  C4  UNL     1      16.529   3.360  51.750  1.00  0.00     0.263 C 
BRANCH  21  22
HETATM   22  C3  UNL     1      15.471   3.850  52.670  1.00  0.00    -0.050 C 
HETATM   23  C2  UNL     1      14.601   4.244  53.396  1.00  0.00     0.056 C 
BRANCH  23  24
HETATM   24  O1  UNL     1      13.606   4.715  54.241  1.00  0.00    -0.309 OA
HETATM   25  C1  UNL     1      12.242   4.340  53.996  1.00  0.00     0.223 C 
ENDBRANCH  23  24
ENDBRANCH  21  22
ENDBRANCH  20  21
ENDBRANCH  19  20
ENDBRANCH  18  19
ENDBRANCH  17  18
ENDBRANCH   1  17
BRANCH   5  26
HETATM   26  N3  UNL     1      22.901  -1.953  55.836  1.00  0.00    -0.271 NA
HETATM   27  H15 UNL     1      23.878  -2.112  56.173  1.00  0.00     0.127 HD
HETATM   28  H16 UNL     1      23.893  -2.052  56.099  1.00  0.00     0.127 HD
ENDBRANCH   5  26
TORSDOF 8
ENDMDL
