MODEL 1
REMARK VINA RESULT:      -8.7      0.000      0.000
REMARK  7 active torsions:
REMARK  status: ('A' for Active; 'I' for Inactive)
REMARK    1  A    between atoms: N1_1  and  C1_2 
REMARK    2  A    between atoms: C1_2  and  N2_4 
REMARK    3  A    between atoms: N2_4  and  N3_5 
REMARK    4  A    between atoms: C2_6  and  C3_7 
REMARK    5  A    between atoms: C2_6  and  C11_16 
REMARK    6  A    between atoms: C3_7  and  C4_8 
REMARK    7  A    between atoms: C4_8  and  C5_9 
ROOT
HETATM    1  N3  UNL     1      23.519   2.675  52.630  1.00  0.00    -0.198 NA
HETATM    2  C2  UNL     1      23.761   1.380  52.722  1.00  0.00     0.068 C 
ENDROOT
BRANCH   2   3
HETATM    3  C3  UNL     1      24.910   0.502  52.519  1.00  0.00     0.077 C 
BRANCH   3   4
HETATM    4  C4  UNL     1      26.104   0.051  52.333  1.00  0.00    -0.003 C 
BRANCH   4   5
HETATM    5  C5  UNL     1      27.451  -0.192  52.829  1.00  0.00    -0.036 A 
HETATM    6  C6  UNL     1      28.192   0.931  53.171  1.00  0.00     0.011 A 
HETATM    7  C7  UNL     1      29.447   0.701  53.648  1.00  0.00     0.004 A 
HETATM    8  C8  UNL     1      29.937  -0.598  53.778  1.00  0.00     0.042 A 
HETATM    9  C9  UNL     1      29.130  -1.647  53.416  1.00  0.00     0.117 A 
HETATM   10  F1  UNL     1      29.489  -2.981  53.490  1.00  0.00    -0.206 F 
HETATM   11  C10 UNL     1      27.837  -1.486  52.919  1.00  0.00     0.053 A 
ENDBRANCH   4   5
ENDBRANCH   3   4
ENDBRANCH   2   3
BRANCH   2  12
HETATM   12  C11 UNL     1      22.642   0.538  53.188  1.00  0.00    -0.010 A 
HETATM   13  C12 UNL     1      22.987  -0.507  53.994  1.00  0.00     0.013 A 
HETATM   14  C13 UNL     1      22.121  -1.452  54.559  1.00  0.00     0.001 A 
HETATM   15  C14 UNL     1      20.787  -1.315  54.276  1.00  0.00     0.000 A 
HETATM   16  C15 UNL     1      20.393  -0.274  53.468  1.00  0.00     0.001 A 
HETATM   17  C16 UNL     1      21.285   0.660  52.913  1.00  0.00     0.013 A 
ENDBRANCH   2  12
BRANCH   1  18
HETATM   18  N2  UNL     1      24.518   3.589  52.249  1.00  0.00    -0.162 NA
HETATM   19  H3  UNL     1      24.776   2.599  52.294  1.00  0.00     0.157 HD
BRANCH  18  20
HETATM   20  C1  UNL     1      23.665   4.772  52.337  1.00  0.00     0.142 C 
HETATM   21  S1  UNL     1      22.585   5.543  51.341  1.00  0.00    -0.052 SA
BRANCH  20  22
HETATM   22  N1  UNL     1      23.810   5.447  53.612  1.00  0.00    -0.282 NA
HETATM   23  H1  UNL     1      23.341   5.052  54.488  1.00  0.00     0.126 HD
HETATM   24  H2  UNL     1      23.283   4.912  54.327  1.00  0.00     0.126 HD
ENDBRANCH  20  22
ENDBRANCH  18  20
ENDBRANCH   1  18
TORSDOF 7
ENDMDL
MODEL 2
REMARK VINA RESULT:      -8.6      2.650      5.875
REMARK  7 active torsions:
REMARK  status: ('A' for Active; 'I' for Inactive)
REMARK    1  A    between atoms: N1_1  and  C1_2 
REMARK    2  A    between atoms: C1_2  and  N2_4 
REMARK    3  A    between atoms: N2_4  and  N3_5 
REMARK    4  A    between atoms: C2_6  and  C3_7 
REMARK    5  A    between atoms: C2_6  and  C11_16 
REMARK    6  A    between atoms: C3_7  and  C4_8 
REMARK    7  A    between atoms: C4_8  and  C5_9 
ROOT
HETATM    1  N3  UNL     1      26.746   2.844  50.581  1.00  0.00    -0.198 NA
HETATM    2  C2  UNL     1      26.318   2.005  51.506  1.00  0.00     0.068 C 
ENDROOT
BRANCH   2   3
HETATM    3  C3  UNL     1      25.065   1.323  51.816  1.00  0.00     0.077 C 
BRANCH   3   4
HETATM    4  C4  UNL     1      23.862   1.060  52.203  1.00  0.00    -0.003 C 
BRANCH   4   5
HETATM    5  C5  UNL     1      22.947   0.307  53.047  1.00  0.00    -0.036 A 
HETATM    6  C6  UNL     1      21.595   0.437  52.759  1.00  0.00     0.011 A 
HETATM    7  C7  UNL     1      20.741  -0.279  53.543  1.00  0.00     0.004 A 
HETATM    8  C8  UNL     1      21.222  -1.092  54.568  1.00  0.00     0.042 A 
HETATM    9  C9  UNL     1      22.576  -1.159  54.778  1.00  0.00     0.117 A 
HETATM   10  F1  UNL     1      23.186  -1.921  55.759  1.00  0.00    -0.206 F 
HETATM   11  C10 UNL     1      23.508  -0.453  54.017  1.00  0.00     0.053 A 
ENDBRANCH   4   5
ENDBRANCH   3   4
ENDBRANCH   2   3
BRANCH   2  12
HETATM   12  C11 UNL     1      27.318   1.558  52.495  1.00  0.00    -0.010 A 
HETATM   13  C12 UNL     1      27.395   0.210  52.686  1.00  0.00     0.013 A 
HETATM   14  C13 UNL     1      28.250  -0.466  53.567  1.00  0.00     0.001 A 
HETATM   15  C14 UNL     1      29.100   0.306  54.316  1.00  0.00     0.000 A 
HETATM   16  C15 UNL     1      29.057   1.671  54.155  1.00  0.00     0.001 A 
HETATM   17  C16 UNL     1      28.189   2.323  53.263  1.00  0.00     0.013 A 
ENDBRANCH   2  12
BRANCH   1  18
HETATM   18  N2  UNL     1      25.905   3.304  49.552  1.00  0.00    -0.162 NA
HETATM   19  H3  UNL     1      25.722   2.370  49.930  1.00  0.00     0.157 HD
BRANCH  18  20
HETATM   20  C1  UNL     1      26.563   4.599  49.401  1.00  0.00     0.142 C 
HETATM   21  S1  UNL     1      27.869   5.185  48.561  1.00  0.00    -0.052 SA
BRANCH  20  22
HETATM   22  N1  UNL     1      25.919   5.627  50.196  1.00  0.00    -0.282 NA
HETATM   23  H1  UNL     1      26.315   6.620  50.218  1.00  0.00     0.126 HD
HETATM   24  H2  UNL     1      26.453   6.508  50.085  1.00  0.00     0.126 HD
ENDBRANCH  20  22
ENDBRANCH  18  20
ENDBRANCH   1  18
TORSDOF 7
ENDMDL
MODEL 3
REMARK VINA RESULT:      -8.5      1.160      1.555
REMARK  7 active torsions:
REMARK  status: ('A' for Active; 'I' for Inactive)
REMARK    1  A    between atoms: N1_1  and  C1_2 
REMARK    2  A    between atoms: C1_2  and  N2_4 
REMARK    3  A    between atoms: N2_4  and  N3_5 
REMARK    4  A    between atoms: C2_6  and  C3_7 
REMARK    5  A    between atoms: C2_6  and  C11_16 
REMARK    6  A    between atoms: C3_7  and  C4_8 
REMARK    7  A    between atoms: C4_8  and  C5_9 
ROOT
HETATM    1  N3  UNL     1      23.581   2.407  52.877  1.00  0.00    -0.198 NA
HETATM    2  C2  UNL     1      23.705   1.099  53.005  1.00  0.00     0.068 C 
ENDROOT
BRANCH   2   3
HETATM    3  C3  UNL     1      24.800   0.133  52.981  1.00  0.00     0.077 C 
BRANCH   3   4
HETATM    4  C4  UNL     1      25.958  -0.421  52.853  1.00  0.00    -0.003 C 
BRANCH   4   5
HETATM    5  C5  UNL     1      27.372  -0.477  53.194  1.00  0.00    -0.036 A 
HETATM    6  C6  UNL     1      28.019  -1.680  52.943  1.00  0.00     0.011 A 
HETATM    7  C7  UNL     1      29.345  -1.726  53.251  1.00  0.00     0.004 A 
HETATM    8  C8  UNL     1      29.995  -0.614  53.785  1.00  0.00     0.042 A 
HETATM    9  C9  UNL     1      29.273   0.534  53.998  1.00  0.00     0.117 A 
HETATM   10  F1  UNL     1      29.790   1.704  54.523  1.00  0.00    -0.206 F 
HETATM   11  C10 UNL     1      27.914   0.652  53.708  1.00  0.00     0.053 A 
ENDBRANCH   4   5
ENDBRANCH   3   4
ENDBRANCH   2   3
BRANCH   2  12
HETATM   12  C11 UNL     1      22.466   0.351  53.294  1.00  0.00    -0.010 A 
HETATM   13  C12 UNL     1      22.625  -0.796  54.014  1.00  0.00     0.013 A 
HETATM   14  C13 UNL     1      21.617  -1.684  54.411  1.00  0.00     0.001 A 
HETATM   15  C14 UNL     1      20.335  -1.371  54.038  1.00  0.00     0.000 A 
HETATM   16  C15 UNL     1      20.128  -0.222  53.311  1.00  0.00     0.001 A 
HETATM   17  C16 UNL     1      21.159   0.652  52.926  1.00  0.00     0.013 A 
ENDBRANCH   2  12
BRANCH   1  18
HETATM   18  N2  UNL     1      24.694   3.237  52.653  1.00  0.00    -0.162 NA
HETATM   19  H3  UNL     1      24.872   2.295  53.010  1.00  0.00     0.157 HD
BRANCH  18  20
HETATM   20  C1  UNL     1      23.921   4.381  52.174  1.00  0.00     0.142 C 
HETATM   21  S1  UNL     1      23.194   4.817  50.747  1.00  0.00    -0.052 SA
BRANCH  20  22
HETATM   22  N1  UNL     1      23.762   5.392  53.200  1.00  0.00    -0.282 NA
HETATM   23  H1  UNL     1      24.592   5.677  53.811  1.00  0.00     0.126 HD
HETATM   24  H2  UNL     1      24.674   5.521  53.676  1.00  0.00     0.126 HD
ENDBRANCH  20  22
ENDBRANCH  18  20
ENDBRANCH   1  18
TORSDOF 7
ENDMDL
MODEL 4
REMARK VINA RESULT:      -8.5      4.854      6.319
REMARK  7 active torsions:
REMARK  status: ('A' for Active; 'I' for Inactive)
REMARK    1  A    between atoms: N1_1  and  C1_2 
REMARK    2  A    between atoms: C1_2  and  N2_4 
REMARK    3  A    between atoms: N2_4  and  N3_5 
REMARK    4  A    between atoms: C2_6  and  C3_7 
REMARK    5  A    between atoms: C2_6  and  C11_16 
REMARK    6  A    between atoms: C3_7  and  C4_8 
REMARK    7  A    between atoms: C4_8  and  C5_9 
ROOT
HETATM    1  N3  UNL     1      27.211   1.909  52.828  1.00  0.00    -0.198 NA
HETATM    2  C2  UNL     1      26.319   2.130  51.880  1.00  0.00     0.068 C 
ENDROOT
BRANCH   2   3
HETATM    3  C3  UNL     1      26.293   2.817  50.592  1.00  0.00     0.077 C 
BRANCH   3   4
HETATM    4  C4  UNL     1      26.609   3.529  49.563  1.00  0.00    -0.003 C 
BRANCH   4   5
HETATM    5  C5  UNL     1      26.868   4.829  48.963  1.00  0.00    -0.036 A 
HETATM    6  C6  UNL     1      25.803   5.718  48.936  1.00  0.00     0.011 A 
HETATM    7  C7  UNL     1      26.051   6.940  48.386  1.00  0.00     0.004 A 
HETATM    8  C8  UNL     1      27.313   7.256  47.885  1.00  0.00     0.042 A 
HETATM    9  C9  UNL     1      28.307   6.312  47.956  1.00  0.00     0.117 A 
HETATM   10  F1  UNL     1      29.600   6.492  47.497  1.00  0.00    -0.206 F 
HETATM   11  C10 UNL     1      28.124   5.043  48.505  1.00  0.00     0.053 A 
ENDBRANCH   4   5
ENDBRANCH   3   4
ENDBRANCH   2   3
BRANCH   2  12
HETATM   12  C11 UNL     1      24.990   1.520  52.079  1.00  0.00    -0.010 A 
HETATM   13  C12 UNL     1      24.919   0.568  53.053  1.00  0.00     0.013 A 
HETATM   14  C13 UNL     1      23.785  -0.161  53.432  1.00  0.00     0.001 A 
HETATM   15  C14 UNL     1      22.623   0.106  52.754  1.00  0.00     0.000 A 
HETATM   16  C15 UNL     1      22.649   1.059  51.764  1.00  0.00     0.001 A 
HETATM   17  C16 UNL     1      23.802   1.777  51.404  1.00  0.00     0.013 A 
ENDBRANCH   2  12
BRANCH   1  18
HETATM   18  N2  UNL     1      28.529   2.391  52.731  1.00  0.00    -0.162 NA
HETATM   19  H3  UNL     1      27.824   2.819  52.125  1.00  0.00     0.157 HD
BRANCH  18  20
HETATM   20  C1  UNL     1      29.080   1.499  53.748  1.00  0.00     0.142 C 
HETATM   21  S1  UNL     1      29.259  -0.142  53.927  1.00  0.00    -0.052 SA
BRANCH  20  22
HETATM   22  N1  UNL     1      29.584   2.232  54.893  1.00  0.00    -0.282 NA
HETATM   23  H1  UNL     1      29.216   2.019  55.875  1.00  0.00     0.126 HD
HETATM   24  H2  UNL     1      29.104   1.881  55.743  1.00  0.00     0.126 HD
ENDBRANCH  20  22
ENDBRANCH  18  20
ENDBRANCH   1  18
TORSDOF 7
ENDMDL
MODEL 5
REMARK VINA RESULT:      -8.2      3.961      6.750
REMARK  7 active torsions:
REMARK  status: ('A' for Active; 'I' for Inactive)
REMARK    1  A    between atoms: N1_1  and  C1_2 
REMARK    2  A    between atoms: C1_2  and  N2_4 
REMARK    3  A    between atoms: N2_4  and  N3_5 
REMARK    4  A    between atoms: C2_6  and  C3_7 
REMARK    5  A    between atoms: C2_6  and  C11_16 
REMARK    6  A    between atoms: C3_7  and  C4_8 
REMARK    7  A    between atoms: C4_8  and  C5_9 
ROOT
HETATM    1  N3  UNL     1      26.984   1.784  53.582  1.00  0.00    -0.198 NA
HETATM    2  C2  UNL     1      25.904   1.379  52.940  1.00  0.00     0.068 C 
ENDROOT
BRANCH   2   3
HETATM    3  C3  UNL     1      24.889   0.345  53.122  1.00  0.00     0.077 C 
BRANCH   3   4
HETATM    4  C4  UNL     1      23.832  -0.300  53.484  1.00  0.00    -0.003 C 
BRANCH   4   5
HETATM    5  C5  UNL     1      22.385  -0.460  53.462  1.00  0.00    -0.036 A 
HETATM    6  C6  UNL     1      21.866  -1.468  54.262  1.00  0.00     0.011 A 
HETATM    7  C7  UNL     1      20.511  -1.608  54.250  1.00  0.00     0.004 A 
HETATM    8  C8  UNL     1      19.712  -0.773  53.471  1.00  0.00     0.042 A 
HETATM    9  C9  UNL     1      20.315   0.198  52.711  1.00  0.00     0.117 A 
HETATM   10  F1  UNL     1      19.645   1.090  51.893  1.00  0.00    -0.206 F 
HETATM   11  C10 UNL     1      21.695   0.398  52.674  1.00  0.00     0.053 A 
ENDBRANCH   4   5
ENDBRANCH   3   4
ENDBRANCH   2   3
BRANCH   2  12
HETATM   12  C11 UNL     1      25.534   2.150  51.737  1.00  0.00    -0.010 A 
HETATM   13  C12 UNL     1      26.567   2.491  50.914  1.00  0.00     0.013 A 
HETATM   14  C13 UNL     1      26.484   3.221  49.722  1.00  0.00     0.001 A 
HETATM   15  C14 UNL     1      25.236   3.640  49.338  1.00  0.00     0.000 A 
HETATM   16  C15 UNL     1      24.164   3.318  50.138  1.00  0.00     0.001 A 
HETATM   17  C16 UNL     1      24.276   2.583  51.330  1.00  0.00     0.013 A 
ENDBRANCH   2  12
BRANCH   1  18
HETATM   18  N2  UNL     1      27.412   1.166  54.771  1.00  0.00    -0.162 NA
HETATM   19  H3  UNL     1      26.420   1.406  54.695  1.00  0.00     0.157 HD
BRANCH  18  20
HETATM   20  C1  UNL     1      28.812   1.046  54.371  1.00  0.00     0.142 C 
HETATM   21  S1  UNL     1      29.752  -0.116  53.649  1.00  0.00    -0.052 SA
BRANCH  20  22
HETATM   22  N1  UNL     1      29.571   2.237  54.699  1.00  0.00    -0.282 NA
HETATM   23  H1  UNL     1      30.478   2.162  55.260  1.00  0.00     0.126 HD
HETATM   24  H2  UNL     1      30.406   1.953  55.243  1.00  0.00     0.126 HD
ENDBRANCH  20  22
ENDBRANCH  18  20
ENDBRANCH   1  18
TORSDOF 7
ENDMDL
MODEL 6
REMARK VINA RESULT:      -8.1      2.694      3.413
REMARK  7 active torsions:
REMARK  status: ('A' for Active; 'I' for Inactive)
REMARK    1  A    between atoms: N1_1  and  C1_2 
REMARK    2  A    between atoms: C1_2  and  N2_4 
REMARK    3  A    between atoms: N2_4  and  N3_5 
REMARK    4  A    between atoms: C2_6  and  C3_7 
REMARK    5  A    between atoms: C2_6  and  C11_16 
REMARK    6  A    between atoms: C3_7  and  C4_8 
REMARK    7  A    between atoms: C4_8  and  C5_9 
ROOT
HETATM    1  N3  UNL     1      24.582   4.976  49.982  1.00  0.00    -0.198 NA
HETATM    2  C2  UNL     1      24.754   3.677  50.145  1.00  0.00     0.068 C 
ENDROOT
BRANCH   2   3
HETATM    3  C3  UNL     1      25.798   2.807  50.679  1.00  0.00     0.077 C 
BRANCH   3   4
HETATM    4  C4  UNL     1      26.727   2.299  51.416  1.00  0.00    -0.003 C 
BRANCH   4   5
HETATM    5  C5  UNL     1      27.240   1.192  52.210  1.00  0.00    -0.036 A 
HETATM    6  C6  UNL     1      28.194   1.512  53.167  1.00  0.00     0.011 A 
HETATM    7  C7  UNL     1      28.663   0.477  53.918  1.00  0.00     0.004 A 
HETATM    8  C8  UNL     1      28.196  -0.821  53.720  1.00  0.00     0.042 A 
HETATM    9  C9  UNL     1      27.251  -1.042  52.750  1.00  0.00     0.117 A 
HETATM   10  F1  UNL     1      26.705  -2.276  52.446  1.00  0.00    -0.206 F 
HETATM   11  C10 UNL     1      26.727  -0.031  51.944  1.00  0.00     0.053 A 
ENDBRANCH   4   5
ENDBRANCH   3   4
ENDBRANCH   2   3
BRANCH   2  12
HETATM   12  C11 UNL     1      23.624   2.814  49.748  1.00  0.00    -0.010 A 
HETATM   13  C12 UNL     1      23.109   2.028  50.736  1.00  0.00     0.013 A 
HETATM   14  C13 UNL     1      22.047   1.121  50.619  1.00  0.00     0.001 A 
HETATM   15  C14 UNL     1      21.463   1.010  49.383  1.00  0.00     0.000 A 
HETATM   16  C15 UNL     1      21.951   1.784  48.357  1.00  0.00     0.001 A 
HETATM   17  C16 UNL     1      23.018   2.687  48.503  1.00  0.00     0.013 A 
ENDBRANCH   2  12
BRANCH   1  18
HETATM   18  N2  UNL     1      25.562   5.907  50.370  1.00  0.00    -0.162 NA
HETATM   19  H3  UNL     1      25.884   5.018  49.977  1.00  0.00     0.157 HD
BRANCH  18  20
HETATM   20  C1  UNL     1      24.617   6.924  50.824  1.00  0.00     0.142 C 
HETATM   21  S1  UNL     1      23.799   8.190  50.128  1.00  0.00    -0.052 SA
BRANCH  20  22
HETATM   22  N1  UNL     1      24.333   6.803  52.241  1.00  0.00    -0.282 NA
HETATM   23  H1  UNL     1      23.367   6.488  52.573  1.00  0.00     0.126 HD
HETATM   24  H2  UNL     1      23.351   6.490  52.352  1.00  0.00     0.126 HD
ENDBRANCH  20  22
ENDBRANCH  18  20
ENDBRANCH   1  18
TORSDOF 7
ENDMDL
MODEL 7
REMARK VINA RESULT:      -7.9      4.334      5.841
REMARK  7 active torsions:
REMARK  status: ('A' for Active; 'I' for Inactive)
REMARK    1  A    between atoms: N1_1  and  C1_2 
REMARK    2  A    between atoms: C1_2  and  N2_4 
REMARK    3  A    between atoms: N2_4  and  N3_5 
REMARK    4  A    between atoms: C2_6  and  C3_7 
REMARK    5  A    between atoms: C2_6  and  C11_16 
REMARK    6  A    between atoms: C3_7  and  C4_8 
REMARK    7  A    between atoms: C4_8  and  C5_9 
ROOT
HETATM    1  N3  UNL     1      25.677  -0.073  52.859  1.00  0.00    -0.198 NA
HETATM    2  C2  UNL     1      24.612   0.632  52.528  1.00  0.00     0.068 C 
ENDROOT
BRANCH   2   3
HETATM    3  C3  UNL     1      24.299   1.689  51.570  1.00  0.00     0.077 C 
BRANCH   3   4
HETATM    4  C4  UNL     1      24.387   2.594  50.654  1.00  0.00    -0.003 C 
BRANCH   4   5
HETATM    5  C5  UNL     1      25.153   3.628  49.975  1.00  0.00    -0.036 A 
HETATM    6  C6  UNL     1      26.488   3.342  49.726  1.00  0.00     0.011 A 
HETATM    7  C7  UNL     1      27.200   4.306  49.079  1.00  0.00     0.004 A 
HETATM    8  C8  UNL     1      26.599   5.504  48.696  1.00  0.00     0.042 A 
HETATM    9  C9  UNL     1      25.271   5.699  48.984  1.00  0.00     0.117 A 
HETATM   10  F1  UNL     1      24.554   6.837  48.665  1.00  0.00    -0.206 F 
HETATM   11  C10 UNL     1      24.483   4.757  49.644  1.00  0.00     0.053 A 
ENDBRANCH   4   5
ENDBRANCH   3   4
ENDBRANCH   2   3
BRANCH   2  12
HETATM   12  C11 UNL     1      23.360   0.294  53.232  1.00  0.00    -0.010 A 
HETATM   13  C12 UNL     1      22.275   1.052  52.902  1.00  0.00     0.013 A 
HETATM   14  C13 UNL     1      20.981   0.939  53.428  1.00  0.00     0.001 A 
HETATM   15  C14 UNL     1      20.781  -0.033  54.373  1.00  0.00     0.000 A 
HETATM   16  C15 UNL     1      21.847  -0.821  54.736  1.00  0.00     0.001 A 
HETATM   17  C16 UNL     1      23.136  -0.687  54.192  1.00  0.00     0.013 A 
ENDBRANCH   2  12
BRANCH   1  18
HETATM   18  N2  UNL     1      26.918   0.116  52.224  1.00  0.00    -0.162 NA
HETATM   19  H3  UNL     1      26.078   0.407  51.716  1.00  0.00     0.157 HD
BRANCH  18  20
HETATM   20  C1  UNL     1      27.720  -0.428  53.317  1.00  0.00     0.142 C 
HETATM   21  S1  UNL     1      28.449   0.179  54.679  1.00  0.00    -0.052 SA
BRANCH  20  22
HETATM   22  N1  UNL     1      27.944  -1.852  53.165  1.00  0.00    -0.282 NA
HETATM   23  H1  UNL     1      28.813  -2.210  52.653  1.00  0.00     0.126 HD
HETATM   24  H2  UNL     1      28.830  -1.989  52.644  1.00  0.00     0.126 HD
ENDBRANCH  20  22
ENDBRANCH  18  20
ENDBRANCH   1  18
TORSDOF 7
ENDMDL
MODEL 8
REMARK VINA RESULT:      -7.9      1.904      2.197
REMARK  7 active torsions:
REMARK  status: ('A' for Active; 'I' for Inactive)
REMARK    1  A    between atoms: N1_1  and  C1_2 
REMARK    2  A    between atoms: C1_2  and  N2_4 
REMARK    3  A    between atoms: N2_4  and  N3_5 
REMARK    4  A    between atoms: C2_6  and  C3_7 
REMARK    5  A    between atoms: C2_6  and  C11_16 
REMARK    6  A    between atoms: C3_7  and  C4_8 
REMARK    7  A    between atoms: C4_8  and  C5_9 
ROOT
HETATM    1  N3  UNL     1      22.851   2.029  50.798  1.00  0.00    -0.198 NA
HETATM    2  C2  UNL     1      23.536   1.503  51.796  1.00  0.00     0.068 C 
ENDROOT
BRANCH   2   3
HETATM    3  C3  UNL     1      24.935   1.462  52.213  1.00  0.00     0.077 C 
BRANCH   3   4
HETATM    4  C4  UNL     1      26.204   1.232  52.266  1.00  0.00    -0.003 C 
BRANCH   4   5
HETATM    5  C5  UNL     1      27.318   0.414  52.722  1.00  0.00    -0.036 A 
HETATM    6  C6  UNL     1      28.385   1.092  53.295  1.00  0.00     0.011 A 
HETATM    7  C7  UNL     1      29.421   0.323  53.733  1.00  0.00     0.004 A 
HETATM    8  C8  UNL     1      29.387  -1.064  53.604  1.00  0.00     0.042 A 
HETATM    9  C9  UNL     1      28.288  -1.647  53.025  1.00  0.00     0.117 A 
HETATM   10  F1  UNL     1      28.125  -3.007  52.833  1.00  0.00    -0.206 F 
HETATM   11  C10 UNL     1      27.193  -0.923  52.553  1.00  0.00     0.053 A 
ENDBRANCH   4   5
ENDBRANCH   3   4
ENDBRANCH   2   3
BRANCH   2  12
HETATM   12  C11 UNL     1      22.751   0.792  52.825  1.00  0.00    -0.010 A 
HETATM   13  C12 UNL     1      23.408  -0.206  53.482  1.00  0.00     0.013 A 
HETATM   14  C13 UNL     1      22.890  -1.030  54.489  1.00  0.00     0.001 A 
HETATM   15  C14 UNL     1      21.586  -0.814  54.855  1.00  0.00     0.000 A 
HETATM   16  C15 UNL     1      20.885   0.183  54.218  1.00  0.00     0.001 A 
HETATM   17  C16 UNL     1      21.431   0.996  53.210  1.00  0.00     0.013 A 
ENDBRANCH   2  12
BRANCH   1  18
HETATM   18  N2  UNL     1      23.476   2.776  49.784  1.00  0.00    -0.162 NA
HETATM   19  H3  UNL     1      24.042   2.515  50.596  1.00  0.00     0.157 HD
BRANCH  18  20
HETATM   20  C1  UNL     1      22.297   2.860  48.925  1.00  0.00     0.142 C 
HETATM   21  S1  UNL     1      20.997   3.882  48.779  1.00  0.00    -0.052 SA
BRANCH  20  22
HETATM   22  N1  UNL     1      22.244   1.769  47.972  1.00  0.00    -0.282 NA
HETATM   23  H1  UNL     1      23.139   1.255  47.691  1.00  0.00     0.126 HD
HETATM   24  H2  UNL     1      23.207   1.409  47.834  1.00  0.00     0.126 HD
ENDBRANCH  20  22
ENDBRANCH  18  20
ENDBRANCH   1  18
TORSDOF 7
ENDMDL
MODEL 9
REMARK VINA RESULT:      -7.7      2.837      4.417
REMARK  7 active torsions:
REMARK  status: ('A' for Active; 'I' for Inactive)
REMARK    1  A    between atoms: N1_1  and  C1_2 
REMARK    2  A    between atoms: C1_2  and  N2_4 
REMARK    3  A    between atoms: N2_4  and  N3_5 
REMARK    4  A    between atoms: C2_6  and  C3_7 
REMARK    5  A    between atoms: C2_6  and  C11_16 
REMARK    6  A    between atoms: C3_7  and  C4_8 
REMARK    7  A    between atoms: C4_8  and  C5_9 
ROOT
HETATM    1  N3  UNL     1      22.089   0.242  52.592  1.00  0.00    -0.198 NA
HETATM    2  C2  UNL     1      23.327   0.667  52.421  1.00  0.00     0.068 C 
ENDROOT
BRANCH   2   3
HETATM    3  C3  UNL     1      24.661   0.227  52.819  1.00  0.00     0.077 C 
BRANCH   3   4
HETATM    4  C4  UNL     1      25.864  -0.238  52.809  1.00  0.00    -0.003 C 
BRANCH   4   5
HETATM    5  C5  UNL     1      27.270  -0.104  53.164  1.00  0.00    -0.036 A 
HETATM    6  C6  UNL     1      28.047  -1.248  53.041  1.00  0.00     0.011 A 
HETATM    7  C7  UNL     1      29.364  -1.117  53.362  1.00  0.00     0.004 A 
HETATM    8  C8  UNL     1      29.880   0.107  53.786  1.00  0.00     0.042 A 
HETATM    9  C9  UNL     1      29.034   1.184  53.876  1.00  0.00     0.117 A 
HETATM   10  F1  UNL     1      29.411   2.451  54.284  1.00  0.00    -0.206 F 
HETATM   11  C10 UNL     1      27.676   1.123  53.565  1.00  0.00     0.053 A 
ENDBRANCH   4   5
ENDBRANCH   3   4
ENDBRANCH   2   3
BRANCH   2  12
HETATM   12  C11 UNL     1      23.493   1.871  51.583  1.00  0.00    -0.010 A 
HETATM   13  C12 UNL     1      22.923   1.812  50.346  1.00  0.00     0.013 A 
HETATM   14  C13 UNL     1      22.943   2.811  49.364  1.00  0.00     0.001 A 
HETATM   15  C14 UNL     1      23.604   3.971  49.676  1.00  0.00     0.000 A 
HETATM   16  C15 UNL     1      24.194   4.075  50.914  1.00  0.00     0.001 A 
HETATM   17  C16 UNL     1      24.158   3.056  51.881  1.00  0.00     0.013 A 
ENDBRANCH   2  12
BRANCH   1  18
HETATM   18  N2  UNL     1      21.802  -0.924  53.324  1.00  0.00    -0.162 NA
HETATM   19  H3  UNL     1      22.720  -0.862  52.877  1.00  0.00     0.157 HD
BRANCH  18  20
HETATM   20  C1  UNL     1      20.459  -0.511  53.725  1.00  0.00     0.142 C 
HETATM   21  S1  UNL     1      18.930  -0.648  53.094  1.00  0.00    -0.052 SA
BRANCH  20  22
HETATM   22  N1  UNL     1      20.470   0.211  54.982  1.00  0.00    -0.282 NA
HETATM   23  H1  UNL     1      19.793   1.024  55.143  1.00  0.00     0.126 HD
HETATM   24  H2  UNL     1      19.748   0.955  54.938  1.00  0.00     0.126 HD
ENDBRANCH  20  22
ENDBRANCH  18  20
ENDBRANCH   1  18
TORSDOF 7
ENDMDL
