MODEL 1
REMARK VINA RESULT:      -8.1      0.000      0.000
REMARK  8 active torsions:
REMARK  status: ('A' for Active; 'I' for Inactive)
REMARK    1  A    between atoms: C2_3  and  C3_4 
REMARK    2  A    between atoms: C2_3  and  C4_7 
REMARK       I    between atoms: C3_4  and  N2_5 
REMARK    3  A    between atoms: C4_7  and  C14_18 
REMARK    4  A    between atoms: C5_8  and  C6_9 
REMARK    5  A    between atoms: C7_10  and  O2_11 
REMARK    6  A    between atoms: O2_11  and  C8_12 
REMARK    7  A    between atoms: C14_18  and  C15_19 
REMARK    8  A    between atoms: C15_19  and  C16_20 
ROOT
HETATM    1  N1  UNL     1      26.710  -1.483  52.270  1.00  0.00    -0.196 NA
HETATM    2  C1  UNL     1      26.731  -0.314  52.282  1.00  0.00     0.078 C 
HETATM    3  C2  UNL     1      26.783   1.164  52.300  1.00  0.00     0.214 C 
ENDROOT
BRANCH   3   4
HETATM    4  C3  UNL     1      27.530   1.627  53.498  1.00  0.00     0.237 C 
HETATM    5  N2  UNL     1      27.981   0.496  54.227  1.00  0.00    -0.369 N 
HETATM    6  H2  UNL     1      28.547  -0.293  54.613  1.00  0.00     0.159 HD
HETATM    7  H3  UNL     1      27.247   0.139  54.881  1.00  0.00     0.159 HD
HETATM    8  O1  UNL     1      27.886   2.700  54.063  1.00  0.00    -0.272 OA
ENDBRANCH   3   4
BRANCH   3   9
HETATM    9  C4  UNL     1      25.389   1.682  52.293  1.00  0.00    -0.045 C 
HETATM   10  C5  UNL     1      25.001   2.621  51.444  1.00  0.00     0.071 C 
BRANCH  10  11
HETATM   11  C6  UNL     1      25.972   3.134  50.517  1.00  0.00    -0.048 C 
HETATM   12  C7  UNL     1      26.800   3.578  49.751  1.00  0.00     0.064 C 
BRANCH  12  13
HETATM   13  O2  UNL     1      27.754   4.101  48.893  1.00  0.00    -0.261 OA
BRANCH  13  14
HETATM   14  C8  UNL     1      27.587   5.438  48.496  1.00  0.00     0.087 A 
HETATM   15  C9  UNL     1      26.339   6.000  48.635  1.00  0.00     0.038 A 
HETATM   16  C10 UNL     1      26.137   7.316  48.253  1.00  0.00     0.003 A 
HETATM   17  C11 UNL     1      27.191   8.053  47.736  1.00  0.00     0.000 A 
HETATM   18  C12 UNL     1      28.433   7.442  47.613  1.00  0.00     0.003 A 
HETATM   19  C13 UNL     1      28.664   6.131  47.986  1.00  0.00     0.038 A 
ENDBRANCH  13  14
ENDBRANCH  12  13
ENDBRANCH  10  11
BRANCH   9  20
HETATM   20  C14 UNL     1      24.458   1.090  53.288  1.00  0.00     0.041 C 
BRANCH  20  21
HETATM   21  C15 UNL     1      23.021   1.520  53.010  1.00  0.00     0.043 C 
BRANCH  21  22
HETATM   22  C16 UNL     1      22.095   0.431  53.397  1.00  0.00    -0.058 A 
HETATM   23  C17 UNL     1      20.766   0.474  53.014  1.00  0.00     0.007 A 
HETATM   24  C18 UNL     1      19.911  -0.546  53.380  1.00  0.00     0.001 A 
HETATM   25  C19 UNL     1      20.402  -1.609  54.134  1.00  0.00     0.000 A 
HETATM   26  C20 UNL     1      21.721  -1.674  54.526  1.00  0.00     0.001 A 
HETATM   27  C21 UNL     1      22.552  -0.636  54.143  1.00  0.00     0.007 A 
ENDBRANCH  21  22
ENDBRANCH  20  21
ENDBRANCH   9  20
ENDBRANCH   3   9
TORSDOF 8
ENDMDL
MODEL 2
REMARK VINA RESULT:      -7.9      2.597      8.687
REMARK  8 active torsions:
REMARK  status: ('A' for Active; 'I' for Inactive)
REMARK    1  A    between atoms: C2_3  and  C3_4 
REMARK    2  A    between atoms: C2_3  and  C4_7 
REMARK       I    between atoms: C3_4  and  N2_5 
REMARK    3  A    between atoms: C4_7  and  C14_18 
REMARK    4  A    between atoms: C5_8  and  C6_9 
REMARK    5  A    between atoms: C7_10  and  O2_11 
REMARK    6  A    between atoms: O2_11  and  C8_12 
REMARK    7  A    between atoms: C14_18  and  C15_19 
REMARK    8  A    between atoms: C15_19  and  C16_20 
ROOT
HETATM    1  N1  UNL     1      22.796   3.363  48.389  1.00  0.00    -0.196 NA
HETATM    2  C1  UNL     1      23.389   3.402  49.396  1.00  0.00     0.078 C 
HETATM    3  C2  UNL     1      24.116   3.452  50.683  1.00  0.00     0.214 C 
ENDROOT
BRANCH   3   4
HETATM    4  C3  UNL     1      23.654   4.619  51.478  1.00  0.00     0.237 C 
HETATM    5  N2  UNL     1      23.986   4.408  52.842  1.00  0.00    -0.369 N 
HETATM    6  H2  UNL     1      24.457   4.404  53.774  1.00  0.00     0.159 HD
HETATM    7  H3  UNL     1      23.257   3.843  53.335  1.00  0.00     0.159 HD
HETATM    8  O1  UNL     1      23.067   5.727  51.322  1.00  0.00    -0.272 OA
ENDBRANCH   3   4
BRANCH   3   9
HETATM    9  C4  UNL     1      25.572   3.530  50.395  1.00  0.00    -0.045 C 
HETATM   10  C5  UNL     1      26.423   2.629  50.861  1.00  0.00     0.071 C 
BRANCH  10  11
HETATM   11  C6  UNL     1      25.898   1.558  51.662  1.00  0.00    -0.048 C 
HETATM   12  C7  UNL     1      25.441   0.668  52.347  1.00  0.00     0.064 C 
BRANCH  12  13
HETATM   13  O2  UNL     1      24.905  -0.333  53.141  1.00  0.00    -0.261 OA
BRANCH  13  14
HETATM   14  C8  UNL     1      23.552  -0.205  53.498  1.00  0.00     0.087 A 
HETATM   15  C9  UNL     1      23.080  -0.987  54.526  1.00  0.00     0.038 A 
HETATM   16  C10 UNL     1      21.751  -0.888  54.904  1.00  0.00     0.003 A 
HETATM   17  C11 UNL     1      20.912  -0.003  54.246  1.00  0.00     0.000 A 
HETATM   18  C12 UNL     1      21.433   0.767  53.213  1.00  0.00     0.003 A 
HETATM   19  C13 UNL     1      22.755   0.689  52.814  1.00  0.00     0.038 A 
ENDBRANCH  13  14
ENDBRANCH  12  13
ENDBRANCH  10  11
BRANCH   9  20
HETATM   20  C14 UNL     1      26.021   4.673  49.558  1.00  0.00     0.041 C 
BRANCH  20  21
HETATM   21  C15 UNL     1      27.382   4.386  48.930  1.00  0.00     0.043 C 
BRANCH  21  22
HETATM   22  C16 UNL     1      27.933   5.633  48.353  1.00  0.00    -0.058 A 
HETATM   23  C17 UNL     1      27.112   6.727  48.138  1.00  0.00     0.007 A 
HETATM   24  C18 UNL     1      27.636   7.885  47.600  1.00  0.00     0.001 A 
HETATM   25  C19 UNL     1      28.989   7.935  47.278  1.00  0.00     0.000 A 
HETATM   26  C20 UNL     1      29.826   6.859  47.482  1.00  0.00     0.001 A 
HETATM   27  C21 UNL     1      29.270   5.714  48.024  1.00  0.00     0.007 A 
ENDBRANCH  21  22
ENDBRANCH  20  21
ENDBRANCH   9  20
ENDBRANCH   3   9
TORSDOF 8
ENDMDL
MODEL 3
REMARK VINA RESULT:      -7.9      4.169      7.901
REMARK  8 active torsions:
REMARK  status: ('A' for Active; 'I' for Inactive)
REMARK    1  A    between atoms: C2_3  and  C3_4 
REMARK    2  A    between atoms: C2_3  and  C4_7 
REMARK       I    between atoms: C3_4  and  N2_5 
REMARK    3  A    between atoms: C4_7  and  C14_18 
REMARK    4  A    between atoms: C5_8  and  C6_9 
REMARK    5  A    between atoms: C7_10  and  O2_11 
REMARK    6  A    between atoms: O2_11  and  C8_12 
REMARK    7  A    between atoms: C14_18  and  C15_19 
REMARK    8  A    between atoms: C15_19  and  C16_20 
ROOT
HETATM    1  N1  UNL     1      23.081   2.099  49.594  1.00  0.00    -0.196 NA
HETATM    2  C1  UNL     1      23.225   2.059  50.754  1.00  0.00     0.078 C 
HETATM    3  C2  UNL     1      23.394   2.031  52.223  1.00  0.00     0.214 C 
ENDROOT
BRANCH   3   4
HETATM    4  C3  UNL     1      23.986   3.313  52.687  1.00  0.00     0.237 C 
HETATM    5  N2  UNL     1      24.321   4.103  51.556  1.00  0.00    -0.369 N 
HETATM    6  H2  UNL     1      24.314   4.795  50.773  1.00  0.00     0.159 HD
HETATM    7  H3  UNL     1      25.266   3.858  51.179  1.00  0.00     0.159 HD
HETATM    8  O1  UNL     1      24.280   3.912  53.759  1.00  0.00    -0.272 OA
ENDBRANCH   3   4
BRANCH   3   9
HETATM    9  C4  UNL     1      24.259   0.874  52.572  1.00  0.00    -0.045 C 
HETATM   10  C5  UNL     1      23.761  -0.226  53.117  1.00  0.00     0.071 C 
BRANCH  10  11
HETATM   11  C6  UNL     1      22.346  -0.275  53.363  1.00  0.00    -0.048 C 
HETATM   12  C7  UNL     1      21.149  -0.313  53.551  1.00  0.00     0.064 C 
BRANCH  12  13
HETATM   13  O2  UNL     1      19.777  -0.350  53.742  1.00  0.00    -0.261 OA
BRANCH  13  14
HETATM   14  C8  UNL     1      18.973  -0.233  52.596  1.00  0.00     0.087 A 
HETATM   15  C9  UNL     1      17.729  -0.817  52.620  1.00  0.00     0.038 A 
HETATM   16  C10 UNL     1      16.909  -0.722  51.508  1.00  0.00     0.003 A 
HETATM   17  C11 UNL     1      17.348  -0.041  50.384  1.00  0.00     0.000 A 
HETATM   18  C12 UNL     1      18.613   0.533  50.406  1.00  0.00     0.003 A 
HETATM   19  C13 UNL     1      19.453   0.455  51.501  1.00  0.00     0.038 A 
ENDBRANCH  13  14
ENDBRANCH  12  13
ENDBRANCH  10  11
BRANCH   9  20
HETATM   20  C14 UNL     1      25.708   1.017  52.279  1.00  0.00     0.041 C 
BRANCH  20  21
HETATM   21  C15 UNL     1      26.535   0.900  53.556  1.00  0.00     0.043 C 
BRANCH  21  22
HETATM   22  C16 UNL     1      27.499  -0.215  53.420  1.00  0.00    -0.058 A 
HETATM   23  C17 UNL     1      27.095  -1.429  52.892  1.00  0.00     0.007 A 
HETATM   24  C18 UNL     1      28.002  -2.462  52.769  1.00  0.00     0.001 A 
HETATM   25  C19 UNL     1      29.317  -2.268  53.181  1.00  0.00     0.000 A 
HETATM   26  C20 UNL     1      29.743  -1.068  53.710  1.00  0.00     0.001 A 
HETATM   27  C21 UNL     1      28.810  -0.052  53.819  1.00  0.00     0.007 A 
ENDBRANCH  21  22
ENDBRANCH  20  21
ENDBRANCH   9  20
ENDBRANCH   3   9
TORSDOF 8
ENDMDL
MODEL 4
REMARK VINA RESULT:      -7.5      3.629      8.502
REMARK  8 active torsions:
REMARK  status: ('A' for Active; 'I' for Inactive)
REMARK    1  A    between atoms: C2_3  and  C3_4 
REMARK    2  A    between atoms: C2_3  and  C4_7 
REMARK       I    between atoms: C3_4  and  N2_5 
REMARK    3  A    between atoms: C4_7  and  C14_18 
REMARK    4  A    between atoms: C5_8  and  C6_9 
REMARK    5  A    between atoms: C7_10  and  O2_11 
REMARK    6  A    between atoms: O2_11  and  C8_12 
REMARK    7  A    between atoms: C14_18  and  C15_19 
REMARK    8  A    between atoms: C15_19  and  C16_20 
ROOT
HETATM    1  N1  UNL     1      22.012   3.296  48.862  1.00  0.00    -0.196 NA
HETATM    2  C1  UNL     1      22.874   3.414  49.644  1.00  0.00     0.078 C 
HETATM    3  C2  UNL     1      23.946   3.560  50.652  1.00  0.00     0.214 C 
ENDROOT
BRANCH   3   4
HETATM    4  C3  UNL     1      23.577   4.615  51.631  1.00  0.00     0.237 C 
HETATM    5  N2  UNL     1      24.101   4.267  52.904  1.00  0.00    -0.369 N 
HETATM    6  H2  UNL     1      24.699   4.178  53.756  1.00  0.00     0.159 HD
HETATM    7  H3  UNL     1      23.460   3.626  53.425  1.00  0.00     0.159 HD
HETATM    8  O1  UNL     1      22.951   5.712  51.685  1.00  0.00    -0.272 OA
ENDBRANCH   3   4
BRANCH   3   9
HETATM    9  C4  UNL     1      25.211   3.891  49.945  1.00  0.00    -0.045 C 
HETATM   10  C5  UNL     1      26.322   3.201  50.150  1.00  0.00     0.071 C 
BRANCH  10  11
HETATM   11  C6  UNL     1      26.275   2.109  51.082  1.00  0.00    -0.048 C 
HETATM   12  C7  UNL     1      26.223   1.199  51.882  1.00  0.00     0.064 C 
BRANCH  12  13
HETATM   13  O2  UNL     1      26.150   0.173  52.811  1.00  0.00    -0.261 OA
BRANCH  13  14
HETATM   14  C8  UNL     1      27.312  -0.593  53.003  1.00  0.00     0.087 A 
HETATM   15  C9  UNL     1      28.436   0.048  53.467  1.00  0.00     0.038 A 
HETATM   16  C10 UNL     1      29.600  -0.676  53.668  1.00  0.00     0.003 A 
HETATM   17  C11 UNL     1      29.621  -2.035  53.401  1.00  0.00     0.000 A 
HETATM   18  C12 UNL     1      28.460  -2.640  52.934  1.00  0.00     0.003 A 
HETATM   19  C13 UNL     1      27.284  -1.943  52.724  1.00  0.00     0.038 A 
ENDBRANCH  13  14
ENDBRANCH  12  13
ENDBRANCH  10  11
BRANCH   9  20
HETATM   20  C14 UNL     1      25.161   5.036  49.000  1.00  0.00     0.041 C 
BRANCH  20  21
HETATM   21  C15 UNL     1      25.902   6.243  49.568  1.00  0.00     0.043 C 
BRANCH  21  22
HETATM   22  C16 UNL     1      26.988   6.637  48.642  1.00  0.00    -0.058 A 
HETATM   23  C17 UNL     1      28.123   5.854  48.521  1.00  0.00     0.007 A 
HETATM   24  C18 UNL     1      29.130   6.230  47.655  1.00  0.00     0.001 A 
HETATM   25  C19 UNL     1      28.988   7.399  46.912  1.00  0.00     0.000 A 
HETATM   26  C20 UNL     1      27.868   8.195  47.016  1.00  0.00     0.001 A 
HETATM   27  C21 UNL     1      26.877   7.790  47.892  1.00  0.00     0.007 A 
ENDBRANCH  21  22
ENDBRANCH  20  21
ENDBRANCH   9  20
ENDBRANCH   3   9
TORSDOF 8
ENDMDL
MODEL 5
REMARK VINA RESULT:      -7.4      3.875      9.736
REMARK  8 active torsions:
REMARK  status: ('A' for Active; 'I' for Inactive)
REMARK    1  A    between atoms: C2_3  and  C3_4 
REMARK    2  A    between atoms: C2_3  and  C4_7 
REMARK       I    between atoms: C3_4  and  N2_5 
REMARK    3  A    between atoms: C4_7  and  C14_18 
REMARK    4  A    between atoms: C5_8  and  C6_9 
REMARK    5  A    between atoms: C7_10  and  O2_11 
REMARK    6  A    between atoms: O2_11  and  C8_12 
REMARK    7  A    between atoms: C14_18  and  C15_19 
REMARK    8  A    between atoms: C15_19  and  C16_20 
ROOT
HETATM    1  N1  UNL     1      26.569   8.532  46.068  1.00  0.00    -0.196 NA
HETATM    2  C1  UNL     1      26.800   7.938  47.049  1.00  0.00     0.078 C 
HETATM    3  C2  UNL     1      27.074   7.201  48.302  1.00  0.00     0.214 C 
ENDROOT
BRANCH   3   4
HETATM    4  C3  UNL     1      27.317   8.162  49.409  1.00  0.00     0.237 C 
HETATM    5  N2  UNL     1      26.474   7.830  50.502  1.00  0.00    -0.369 N 
HETATM    6  H2  UNL     1      26.084   7.445  51.391  1.00  0.00     0.159 HD
HETATM    7  H3  UNL     1      25.525   8.257  50.403  1.00  0.00     0.159 HD
HETATM    8  O1  UNL     1      28.031   9.168  49.679  1.00  0.00    -0.272 OA
ENDBRANCH   3   4
BRANCH   3   9
HETATM    9  C4  UNL     1      28.248   6.318  48.078  1.00  0.00    -0.045 C 
HETATM   10  C5  UNL     1      28.238   5.044  48.440  1.00  0.00     0.071 C 
BRANCH  10  11
HETATM   11  C6  UNL     1      27.049   4.529  49.061  1.00  0.00    -0.048 C 
HETATM   12  C7  UNL     1      26.058   4.086  49.601  1.00  0.00     0.064 C 
BRANCH  12  13
HETATM   13  O2  UNL     1      24.939   3.569  50.234  1.00  0.00    -0.261 OA
BRANCH  13  14
HETATM   14  C8  UNL     1      25.147   2.491  51.111  1.00  0.00     0.087 A 
HETATM   15  C9  UNL     1      26.381   1.885  51.104  1.00  0.00     0.038 A 
HETATM   16  C10 UNL     1      26.622   0.819  51.955  1.00  0.00     0.003 A 
HETATM   17  C11 UNL     1      25.621   0.374  52.804  1.00  0.00     0.000 A 
HETATM   18  C12 UNL     1      24.389   1.019  52.775  1.00  0.00     0.003 A 
HETATM   19  C13 UNL     1      24.121   2.085  51.937  1.00  0.00     0.038 A 
ENDBRANCH  13  14
ENDBRANCH  12  13
ENDBRANCH  10  11
BRANCH   9  20
HETATM   20  C14 UNL     1      29.431   6.940  47.429  1.00  0.00     0.041 C 
BRANCH  20  21
HETATM   21  C15 UNL     1      30.721   6.499  48.113  1.00  0.00     0.043 C 
BRANCH  21  22
HETATM   22  C16 UNL     1      31.545   5.722  47.159  1.00  0.00    -0.058 A 
HETATM   23  C17 UNL     1      32.197   6.359  46.117  1.00  0.00     0.007 A 
HETATM   24  C18 UNL     1      32.963   5.626  45.234  1.00  0.00     0.001 A 
HETATM   25  C19 UNL     1      33.068   4.248  45.403  1.00  0.00     0.000 A 
HETATM   26  C20 UNL     1      32.428   3.592  46.433  1.00  0.00     0.001 A 
HETATM   27  C21 UNL     1      31.669   4.355  47.301  1.00  0.00     0.007 A 
ENDBRANCH  21  22
ENDBRANCH  20  21
ENDBRANCH   9  20
ENDBRANCH   3   9
TORSDOF 8
ENDMDL
MODEL 6
REMARK VINA RESULT:      -7.4      3.606      7.951
REMARK  8 active torsions:
REMARK  status: ('A' for Active; 'I' for Inactive)
REMARK    1  A    between atoms: C2_3  and  C3_4 
REMARK    2  A    between atoms: C2_3  and  C4_7 
REMARK       I    between atoms: C3_4  and  N2_5 
REMARK    3  A    between atoms: C4_7  and  C14_18 
REMARK    4  A    between atoms: C5_8  and  C6_9 
REMARK    5  A    between atoms: C7_10  and  O2_11 
REMARK    6  A    between atoms: O2_11  and  C8_12 
REMARK    7  A    between atoms: C14_18  and  C15_19 
REMARK    8  A    between atoms: C15_19  and  C16_20 
ROOT
HETATM    1  N1  UNL     1      26.719   2.936  50.390  1.00  0.00    -0.196 NA
HETATM    2  C1  UNL     1      25.669   2.804  50.888  1.00  0.00     0.078 C 
HETATM    3  C2  UNL     1      24.333   2.655  51.503  1.00  0.00     0.214 C 
ENDROOT
BRANCH   3   4
HETATM    4  C3  UNL     1      23.846   3.977  51.976  1.00  0.00     0.237 C 
HETATM    5  N2  UNL     1      24.600   5.000  51.343  1.00  0.00    -0.369 N 
HETATM    6  H2  UNL     1      24.937   5.749  50.697  1.00  0.00     0.159 HD
HETATM    7  H3  UNL     1      25.490   5.198  51.855  1.00  0.00     0.159 HD
HETATM    8  O1  UNL     1      22.981   4.469  52.755  1.00  0.00    -0.272 OA
ENDBRANCH   3   4
BRANCH   3   9
HETATM    9  C4  UNL     1      24.438   1.681  52.621  1.00  0.00    -0.045 C 
HETATM   10  C5  UNL     1      23.466   0.822  52.888  1.00  0.00     0.071 C 
BRANCH  10  11
HETATM   11  C6  UNL     1      22.293   0.853  52.059  1.00  0.00    -0.048 C 
HETATM   12  C7  UNL     1      21.312   0.894  51.347  1.00  0.00     0.064 C 
BRANCH  12  13
HETATM   13  O2  UNL     1      20.201   0.960  50.522  1.00  0.00    -0.261 OA
BRANCH  13  14
HETATM   14  C8  UNL     1      19.025   0.349  50.989  1.00  0.00     0.087 A 
HETATM   15  C9  UNL     1      19.055  -0.237  52.232  1.00  0.00     0.038 A 
HETATM   16  C10 UNL     1      17.914  -0.850  52.725  1.00  0.00     0.003 A 
HETATM   17  C11 UNL     1      16.757  -0.867  51.963  1.00  0.00     0.000 A 
HETATM   18  C12 UNL     1      16.775  -0.261  50.712  1.00  0.00     0.003 A 
HETATM   19  C13 UNL     1      17.898   0.358  50.195  1.00  0.00     0.038 A 
ENDBRANCH  13  14
ENDBRANCH  12  13
ENDBRANCH  10  11
BRANCH   9  20
HETATM   20  C14 UNL     1      25.688   1.724  53.422  1.00  0.00     0.041 C 
BRANCH  20  21
HETATM   21  C15 UNL     1      25.968   0.370  54.066  1.00  0.00     0.043 C 
BRANCH  21  22
HETATM   22  C16 UNL     1      27.393   0.016  53.874  1.00  0.00    -0.058 A 
HETATM   23  C17 UNL     1      28.389   0.925  54.186  1.00  0.00     0.007 A 
HETATM   24  C18 UNL     1      29.713   0.585  54.002  1.00  0.00     0.001 A 
HETATM   25  C19 UNL     1      30.031  -0.674  53.502  1.00  0.00     0.000 A 
HETATM   26  C20 UNL     1      29.057  -1.597  53.184  1.00  0.00     0.001 A 
HETATM   27  C21 UNL     1      27.739  -1.225  53.380  1.00  0.00     0.007 A 
ENDBRANCH  21  22
ENDBRANCH  20  21
ENDBRANCH   9  20
ENDBRANCH   3   9
TORSDOF 8
ENDMDL
MODEL 7
REMARK VINA RESULT:      -7.4      3.841      6.303
REMARK  8 active torsions:
REMARK  status: ('A' for Active; 'I' for Inactive)
REMARK    1  A    between atoms: C2_3  and  C3_4 
REMARK    2  A    between atoms: C2_3  and  C4_7 
REMARK       I    between atoms: C3_4  and  N2_5 
REMARK    3  A    between atoms: C4_7  and  C14_18 
REMARK    4  A    between atoms: C5_8  and  C6_9 
REMARK    5  A    between atoms: C7_10  and  O2_11 
REMARK    6  A    between atoms: O2_11  and  C8_12 
REMARK    7  A    between atoms: C14_18  and  C15_19 
REMARK    8  A    between atoms: C15_19  and  C16_20 
ROOT
HETATM    1  N1  UNL     1      21.378   4.314  51.878  1.00  0.00    -0.196 NA
HETATM    2  C1  UNL     1      22.503   4.376  51.565  1.00  0.00     0.078 C 
HETATM    3  C2  UNL     1      23.930   4.471  51.188  1.00  0.00     0.214 C 
ENDROOT
BRANCH   3   4
HETATM    4  C3  UNL     1      24.318   5.898  51.037  1.00  0.00     0.237 C 
HETATM    5  N2  UNL     1      24.245   6.533  52.305  1.00  0.00    -0.369 N 
HETATM    6  H2  UNL     1      24.467   6.936  53.242  1.00  0.00     0.159 HD
HETATM    7  H3  UNL     1      23.277   6.867  52.516  1.00  0.00     0.159 HD
HETATM    8  O1  UNL     1      24.687   6.712  50.144  1.00  0.00    -0.272 OA
ENDBRANCH   3   4
BRANCH   3   9
HETATM    9  C4  UNL     1      24.132   3.715  49.925  1.00  0.00    -0.045 C 
HETATM   10  C5  UNL     1      25.095   2.814  49.800  1.00  0.00     0.071 C 
BRANCH  10  11
HETATM   11  C6  UNL     1      25.950   2.581  50.932  1.00  0.00    -0.048 C 
HETATM   12  C7  UNL     1      26.684   2.401  51.880  1.00  0.00     0.064 C 
BRANCH  12  13
HETATM   13  O2  UNL     1      27.538   2.213  52.954  1.00  0.00    -0.261 OA
BRANCH  13  14
HETATM   14  C8  UNL     1      28.098   0.933  53.104  1.00  0.00     0.087 A 
HETATM   15  C9  UNL     1      29.409   0.848  53.508  1.00  0.00     0.038 A 
HETATM   16  C10 UNL     1      29.995  -0.398  53.665  1.00  0.00     0.003 A 
HETATM   17  C11 UNL     1      29.256  -1.543  53.415  1.00  0.00     0.000 A 
HETATM   18  C12 UNL     1      27.934  -1.407  53.008  1.00  0.00     0.003 A 
HETATM   19  C13 UNL     1      27.324  -0.178  52.843  1.00  0.00     0.038 A 
ENDBRANCH  13  14
ENDBRANCH  12  13
ENDBRANCH  10  11
BRANCH   9  20
HETATM   20  C14 UNL     1      23.199   4.023  48.811  1.00  0.00     0.041 C 
BRANCH  20  21
HETATM   21  C15 UNL     1      22.723   2.744  48.130  1.00  0.00     0.043 C 
BRANCH  21  22
HETATM   22  C16 UNL     1      21.594   2.167  48.894  1.00  0.00    -0.058 A 
HETATM   23  C17 UNL     1      20.309   2.650  48.714  1.00  0.00     0.007 A 
HETATM   24  C18 UNL     1      19.263   2.105  49.432  1.00  0.00     0.001 A 
HETATM   25  C19 UNL     1      19.517   1.074  50.331  1.00  0.00     0.000 A 
HETATM   26  C20 UNL     1      20.788   0.577  50.527  1.00  0.00     0.001 A 
HETATM   27  C21 UNL     1      21.814   1.143  49.792  1.00  0.00     0.007 A 
ENDBRANCH  21  22
ENDBRANCH  20  21
ENDBRANCH   9  20
ENDBRANCH   3   9
TORSDOF 8
ENDMDL
MODEL 8
REMARK VINA RESULT:      -7.4      2.895      8.614
REMARK  8 active torsions:
REMARK  status: ('A' for Active; 'I' for Inactive)
REMARK    1  A    between atoms: C2_3  and  C3_4 
REMARK    2  A    between atoms: C2_3  and  C4_7 
REMARK       I    between atoms: C3_4  and  N2_5 
REMARK    3  A    between atoms: C4_7  and  C14_18 
REMARK    4  A    between atoms: C5_8  and  C6_9 
REMARK    5  A    between atoms: C7_10  and  O2_11 
REMARK    6  A    between atoms: O2_11  and  C8_12 
REMARK    7  A    between atoms: C14_18  and  C15_19 
REMARK    8  A    between atoms: C15_19  and  C16_20 
ROOT
HETATM    1  N1  UNL     1      23.922   6.581  51.844  1.00  0.00    -0.196 NA
HETATM    2  C1  UNL     1      23.817   5.446  51.578  1.00  0.00     0.078 C 
HETATM    3  C2  UNL     1      23.682   4.007  51.268  1.00  0.00     0.214 C 
ENDROOT
BRANCH   3   4
HETATM    4  C3  UNL     1      24.620   3.219  52.108  1.00  0.00     0.237 C 
HETATM    5  N2  UNL     1      24.524   3.667  53.452  1.00  0.00    -0.369 N 
HETATM    6  H2  UNL     1      24.272   3.781  54.459  1.00  0.00     0.159 HD
HETATM    7  H3  UNL     1      25.136   4.496  53.628  1.00  0.00     0.159 HD
HETATM    8  O1  UNL     1      25.466   2.286  52.003  1.00  0.00    -0.272 OA
ENDBRANCH   3   4
BRANCH   3   9
HETATM    9  C4  UNL     1      23.953   3.813  49.819  1.00  0.00    -0.045 C 
HETATM   10  C5  UNL     1      23.429   2.801  49.143  1.00  0.00     0.071 C 
BRANCH  10  11
HETATM   11  C6  UNL     1      22.580   1.885  49.852  1.00  0.00    -0.048 C 
HETATM   12  C7  UNL     1      21.866   1.123  50.468  1.00  0.00     0.064 C 
BRANCH  12  13
HETATM   13  O2  UNL     1      21.056   0.264  51.193  1.00  0.00    -0.261 OA
BRANCH  13  14
HETATM   14  C8  UNL     1      21.545  -0.173  52.436  1.00  0.00     0.087 A 
HETATM   15  C9  UNL     1      20.652  -0.732  53.319  1.00  0.00     0.038 A 
HETATM   16  C10 UNL     1      21.099  -1.173  54.554  1.00  0.00     0.003 A 
HETATM   17  C11 UNL     1      22.438  -1.049  54.887  1.00  0.00     0.000 A 
HETATM   18  C12 UNL     1      23.304  -0.477  53.962  1.00  0.00     0.003 A 
HETATM   19  C13 UNL     1      22.886  -0.028  52.723  1.00  0.00     0.038 A 
ENDBRANCH  13  14
ENDBRANCH  12  13
ENDBRANCH  10  11
BRANCH   9  20
HETATM   20  C14 UNL     1      24.842   4.812  49.172  1.00  0.00     0.041 C 
BRANCH  20  21
HETATM   21  C15 UNL     1      26.294   4.342  49.192  1.00  0.00     0.043 C 
BRANCH  21  22
HETATM   22  C16 UNL     1      27.162   5.398  48.625  1.00  0.00    -0.058 A 
HETATM   23  C17 UNL     1      26.639   6.639  48.305  1.00  0.00     0.007 A 
HETATM   24  C18 UNL     1      27.457   7.616  47.777  1.00  0.00     0.001 A 
HETATM   25  C19 UNL     1      28.806   7.338  47.571  1.00  0.00     0.000 A 
HETATM   26  C20 UNL     1      29.350   6.110  47.881  1.00  0.00     0.001 A 
HETATM   27  C21 UNL     1      28.503   5.152  48.409  1.00  0.00     0.007 A 
ENDBRANCH  21  22
ENDBRANCH  20  21
ENDBRANCH   9  20
ENDBRANCH   3   9
TORSDOF 8
ENDMDL
MODEL 9
REMARK VINA RESULT:      -7.4      3.787      9.253
REMARK  8 active torsions:
REMARK  status: ('A' for Active; 'I' for Inactive)
REMARK    1  A    between atoms: C2_3  and  C3_4 
REMARK    2  A    between atoms: C2_3  and  C4_7 
REMARK       I    between atoms: C3_4  and  N2_5 
REMARK    3  A    between atoms: C4_7  and  C14_18 
REMARK    4  A    between atoms: C5_8  and  C6_9 
REMARK    5  A    between atoms: C7_10  and  O2_11 
REMARK    6  A    between atoms: O2_11  and  C8_12 
REMARK    7  A    between atoms: C14_18  and  C15_19 
REMARK    8  A    between atoms: C15_19  and  C16_20 
ROOT
HETATM    1  N1  UNL     1      23.465   6.435  47.614  1.00  0.00    -0.196 NA
HETATM    2  C1  UNL     1      24.245   6.217  48.458  1.00  0.00     0.078 C 
HETATM    3  C2  UNL     1      25.214   5.949  49.542  1.00  0.00     0.214 C 
ENDROOT
BRANCH   3   4
HETATM    4  C3  UNL     1      25.332   7.142  50.419  1.00  0.00     0.237 C 
HETATM    5  N2  UNL     1      24.654   6.887  51.639  1.00  0.00    -0.369 N 
HETATM    6  H2  UNL     1      24.414   6.624  52.622  1.00  0.00     0.159 HD
HETATM    7  H3  UNL     1      23.632   7.100  51.567  1.00  0.00     0.159 HD
HETATM    8  O1  UNL     1      25.842   8.299  50.419  1.00  0.00    -0.272 OA
ENDBRANCH   3   4
BRANCH   3   9
HETATM    9  C4  UNL     1      26.519   5.594  48.926  1.00  0.00    -0.045 C 
HETATM   10  C5  UNL     1      27.082   4.411  49.121  1.00  0.00     0.071 C 
BRANCH  10  11
HETATM   11  C6  UNL     1      26.390   3.466  49.954  1.00  0.00    -0.048 C 
HETATM   12  C7  UNL     1      25.806   2.683  50.672  1.00  0.00     0.064 C 
BRANCH  12  13
HETATM   13  O2  UNL     1      25.140   1.804  51.511  1.00  0.00    -0.261 OA
BRANCH  13  14
HETATM   14  C8  UNL     1      25.926   1.066  52.411  1.00  0.00     0.087 A 
HETATM   15  C9  UNL     1      25.932   1.455  53.729  1.00  0.00     0.038 A 
HETATM   16  C10 UNL     1      26.697   0.751  54.645  1.00  0.00     0.003 A 
HETATM   17  C11 UNL     1      27.446  -0.337  54.226  1.00  0.00     0.000 A 
HETATM   18  C12 UNL     1      27.409  -0.692  52.882  1.00  0.00     0.003 A 
HETATM   19  C13 UNL     1      26.656  -0.008  51.947  1.00  0.00     0.038 A 
ENDBRANCH  13  14
ENDBRANCH  12  13
ENDBRANCH  10  11
BRANCH   9  20
HETATM   20  C14 UNL     1      27.158   6.636  48.081  1.00  0.00     0.041 C 
BRANCH  20  21
HETATM   21  C15 UNL     1      28.652   6.370  47.925  1.00  0.00     0.043 C 
BRANCH  21  22
HETATM   22  C16 UNL     1      29.418   7.503  48.491  1.00  0.00    -0.058 A 
HETATM   23  C17 UNL     1      30.759   7.357  48.800  1.00  0.00     0.007 A 
HETATM   24  C18 UNL     1      31.464   8.420  49.327  1.00  0.00     0.001 A 
HETATM   25  C19 UNL     1      30.811   9.631  49.542  1.00  0.00     0.000 A 
HETATM   26  C20 UNL     1      29.476   9.801  49.242  1.00  0.00     0.001 A 
HETATM   27  C21 UNL     1      28.799   8.716  48.715  1.00  0.00     0.007 A 
ENDBRANCH  21  22
ENDBRANCH  20  21
ENDBRANCH   9  20
ENDBRANCH   3   9
TORSDOF 8
ENDMDL
