MODEL 1
REMARK VINA RESULT:      -8.7      0.000      0.000
REMARK  2 active torsions:
REMARK  status: ('A' for Active; 'I' for Inactive)
REMARK    1  A    between atoms: N2_14  and  C12_15 
REMARK    2  A    between atoms: C13_17  and  O1_18 
ROOT
HETATM    1  C1  UNL     1      23.009  -0.799  53.816  1.00  0.00     0.048 C 
HETATM    2  C2  UNL     1      22.852   0.532  53.118  1.00  0.00    -0.060 C 
HETATM    3  C3  UNL     1      21.693   1.117  52.928  1.00  0.00     0.003 C 
HETATM    4  C4  UNL     1      20.484   1.932  52.619  1.00  0.00    -0.021 C 
HETATM    5  C5  UNL     1      20.517   3.121  51.955  1.00  0.00     0.020 C 
HETATM    6  C6  UNL     1      20.310   4.390  51.278  1.00  0.00     0.041 C 
HETATM    7  P1  UNL     1      20.621   4.528  49.485  1.00  0.00    -0.121 P 
HETATM    8  C7  UNL     1      21.569   3.131  48.741  1.00  0.00     0.030 C 
HETATM    9  C8  UNL     1      21.432   3.181  47.206  1.00  0.00     0.019 C 
HETATM   10  C9  UNL     1      23.002   3.200  49.106  1.00  0.00    -0.016 C 
HETATM   11  C10 UNL     1      24.270   3.270  49.353  1.00  0.00     0.026 C 
HETATM   12  C11 UNL     1      25.089   3.192  50.535  1.00  0.00     0.060 C 
HETATM   13  N1  UNL     1      26.286   3.104  50.886  1.00  0.00    -0.170 NA
HETATM   14  N2  UNL     1      26.410   2.268  52.032  1.00  0.00    -0.213 N 
HETATM   15  C15 UNL     1      25.048   1.854  52.335  1.00  0.00     0.045 C 
HETATM   16  C16 UNL     1      24.208   0.971  52.808  1.00  0.00     0.034 C 
HETATM   17  C17 UNL     1      24.420   3.160  51.854  1.00  0.00     0.120 C 
HETATM   18  H9  UNL     1      21.238   5.809  49.177  1.00  0.00     0.058 HD
ENDROOT
BRANCH  14  19
HETATM   19  C12 UNL     1      27.411   1.692  52.931  1.00  0.00     0.196 A 
HETATM   20  N3  UNL     1      28.219   2.239  53.578  1.00  0.00    -0.198 NA
HETATM   21  C13 UNL     1      29.098   1.663  54.383  1.00  0.00     0.171 A 
HETATM   22  C14 UNL     1      29.055   0.256  54.468  1.00  0.00     0.111 A 
HETATM   23  S1  UNL     1      27.679  -0.142  53.321  1.00  0.00    -0.058 SA
BRANCH  21  24
HETATM   24  O1  UNL     1      30.014   2.461  55.101  1.00  0.00    -0.344 OA
HETATM   25  H16 UNL     1      29.745   3.431  55.246  1.00  0.00     0.219 HD
ENDBRANCH  21  24
ENDBRANCH  14  19
TORSDOF 2
ENDMDL
MODEL 2
REMARK VINA RESULT:      -7.9      1.403      3.609
REMARK  2 active torsions:
REMARK  status: ('A' for Active; 'I' for Inactive)
REMARK    1  A    between atoms: N2_14  and  C12_15 
REMARK    2  A    between atoms: C13_17  and  O1_18 
ROOT
HETATM    1  C1  UNL     1      26.631   4.208  49.720  1.00  0.00     0.048 C 
HETATM    2  C2  UNL     1      25.423   3.316  49.892  1.00  0.00    -0.060 C 
HETATM    3  C3  UNL     1      24.432   3.267  49.034  1.00  0.00     0.003 C 
HETATM    4  C4  UNL     1      23.222   3.069  48.186  1.00  0.00    -0.021 C 
HETATM    5  C5  UNL     1      22.200   2.225  48.503  1.00  0.00     0.020 C 
HETATM    6  C6  UNL     1      21.012   1.399  48.628  1.00  0.00     0.041 C 
HETATM    7  P1  UNL     1      19.795   1.747  49.943  1.00  0.00    -0.121 P 
HETATM    8  C7  UNL     1      20.377   2.886  51.273  1.00  0.00     0.030 C 
HETATM    9  C8  UNL     1      19.164   3.385  52.084  1.00  0.00     0.019 C 
HETATM   10  C9  UNL     1      21.328   2.209  52.181  1.00  0.00    -0.016 C 
HETATM   11  C10 UNL     1      22.111   1.625  53.031  1.00  0.00     0.026 C 
HETATM   12  C11 UNL     1      23.420   1.029  52.975  1.00  0.00     0.060 C 
HETATM   13  N1  UNL     1      24.316   0.576  53.720  1.00  0.00    -0.170 NA
HETATM   14  N2  UNL     1      25.604   0.899  53.205  1.00  0.00    -0.213 N 
HETATM   15  C15 UNL     1      25.336   1.640  51.982  1.00  0.00     0.045 C 
HETATM   16  C16 UNL     1      25.672   2.558  51.112  1.00  0.00     0.034 C 
HETATM   17  C17 UNL     1      24.063   0.864  51.653  1.00  0.00     0.120 C 
HETATM   18  H9  UNL     1      19.283   0.504  50.498  1.00  0.00     0.058 HD
ENDROOT
BRANCH  14  19
HETATM   19  C12 UNL     1      27.029   0.767  53.511  1.00  0.00     0.196 A 
HETATM   20  N3  UNL     1      27.754   1.554  53.985  1.00  0.00    -0.198 NA
HETATM   21  C13 UNL     1      29.040   1.375  54.248  1.00  0.00     0.171 A 
HETATM   22  C14 UNL     1      29.585   0.117  53.924  1.00  0.00     0.111 A 
HETATM   23  S1  UNL     1      28.124  -0.753  53.232  1.00  0.00    -0.058 SA
BRANCH  21  24
HETATM   24  O1  UNL     1      29.787   2.425  54.824  1.00  0.00    -0.344 OA
HETATM   25  H16 UNL     1      29.660   2.569  55.822  1.00  0.00     0.219 HD
ENDBRANCH  21  24
ENDBRANCH  14  19
TORSDOF 2
ENDMDL
MODEL 3
REMARK VINA RESULT:      -7.9      4.613      7.499
REMARK  2 active torsions:
REMARK  status: ('A' for Active; 'I' for Inactive)
REMARK    1  A    between atoms: N2_14  and  C12_15 
REMARK    2  A    between atoms: C13_17  and  O1_18 
ROOT
HETATM    1  C1  UNL     1      23.250   2.942  48.601  1.00  0.00     0.048 C 
HETATM    2  C2  UNL     1      23.886   2.573  49.922  1.00  0.00    -0.060 C 
HETATM    3  C3  UNL     1      25.145   2.804  50.208  1.00  0.00     0.003 C 
HETATM    4  C4  UNL     1      26.534   2.981  50.718  1.00  0.00    -0.021 C 
HETATM    5  C5  UNL     1      26.952   2.567  51.947  1.00  0.00     0.020 C 
HETATM    6  C6  UNL     1      27.615   2.220  53.192  1.00  0.00     0.041 C 
HETATM    7  P1  UNL     1      27.888   0.467  53.621  1.00  0.00    -0.121 P 
HETATM    8  C7  UNL     1      26.931  -0.748  52.615  1.00  0.00     0.030 C 
HETATM    9  C8  UNL     1      27.527  -2.156  52.813  1.00  0.00     0.019 C 
HETATM   10  C9  UNL     1      25.504  -0.761  53.004  1.00  0.00    -0.016 C 
HETATM   11  C10 UNL     1      24.264  -0.843  53.367  1.00  0.00     0.026 C 
HETATM   12  C11 UNL     1      23.134   0.048  53.358  1.00  0.00     0.060 C 
HETATM   13  N1  UNL     1      21.897   0.053  53.538  1.00  0.00    -0.170 NA
HETATM   14  N2  UNL     1      21.263   0.948  52.630  1.00  0.00    -0.213 N 
HETATM   15  C15 UNL     1      22.353   1.511  51.847  1.00  0.00     0.045 C 
HETATM   16  C16 UNL     1      22.808   2.011  50.727  1.00  0.00     0.034 C 
HETATM   17  C17 UNL     1      23.357   1.465  52.997  1.00  0.00     0.120 C 
HETATM   18  H9  UNL     1      27.676   0.257  55.045  1.00  0.00     0.058 HD
ENDROOT
BRANCH  14  19
HETATM   19  C12 UNL     1      19.942   1.430  52.225  1.00  0.00     0.196 A 
HETATM   20  N3  UNL     1      19.542   2.529  52.183  1.00  0.00    -0.198 NA
HETATM   21  C13 UNL     1      18.332   2.908  51.799  1.00  0.00     0.171 A 
HETATM   22  C14 UNL     1      17.444   1.888  51.403  1.00  0.00     0.111 A 
HETATM   23  S1  UNL     1      18.477   0.388  51.627  1.00  0.00    -0.058 SA
BRANCH  21  24
HETATM   24  O1  UNL     1      17.996   4.279  51.803  1.00  0.00    -0.344 OA
HETATM   25  H16 UNL     1      18.487   4.857  52.481  1.00  0.00     0.219 HD
ENDBRANCH  21  24
ENDBRANCH  14  19
TORSDOF 2
ENDMDL
MODEL 4
REMARK VINA RESULT:      -7.7      5.429      8.002
REMARK  2 active torsions:
REMARK  status: ('A' for Active; 'I' for Inactive)
REMARK    1  A    between atoms: N2_14  and  C12_15 
REMARK    2  A    between atoms: C13_17  and  O1_18 
ROOT
HETATM    1  C1  UNL     1      21.134   1.388  48.589  1.00  0.00     0.048 C 
HETATM    2  C2  UNL     1      21.865   1.487  49.908  1.00  0.00    -0.060 C 
HETATM    3  C3  UNL     1      22.971   2.172  50.073  1.00  0.00     0.003 C 
HETATM    4  C4  UNL     1      24.220   2.889  50.457  1.00  0.00    -0.021 C 
HETATM    5  C5  UNL     1      24.761   2.859  51.708  1.00  0.00     0.020 C 
HETATM    6  C6  UNL     1      25.509   2.974  52.947  1.00  0.00     0.041 C 
HETATM    7  P1  UNL     1      26.365   1.516  53.634  1.00  0.00    -0.121 P 
HETATM    8  C7  UNL     1      25.875  -0.104  52.899  1.00  0.00     0.030 C 
HETATM    9  C8  UNL     1      26.916  -1.175  53.283  1.00  0.00     0.019 C 
HETATM   10  C9  UNL     1      24.540  -0.527  53.376  1.00  0.00    -0.016 C 
HETATM   11  C10 UNL     1      23.404  -0.956  53.825  1.00  0.00     0.026 C 
HETATM   12  C11 UNL     1      22.037  -0.510  53.746  1.00  0.00     0.060 C 
HETATM   13  N1  UNL     1      20.874  -0.889  54.002  1.00  0.00    -0.170 NA
HETATM   14  N2  UNL     1      19.968  -0.428  53.003  1.00  0.00    -0.213 N 
HETATM   15  C15 UNL     1      20.797   0.322  52.073  1.00  0.00     0.045 C 
HETATM   16  C16 UNL     1      21.048   0.744  50.860  1.00  0.00     0.034 C 
HETATM   17  C17 UNL     1      21.762   0.815  53.148  1.00  0.00     0.120 C 
HETATM   18  H9  UNL     1      26.246   1.497  55.084  1.00  0.00     0.058 HD
ENDROOT
BRANCH  14  19
HETATM   19  C12 UNL     1      18.560  -0.494  52.612  1.00  0.00     0.196 A 
HETATM   20  N3  UNL     1      17.753  -1.291  52.903  1.00  0.00    -0.198 NA
HETATM   21  C13 UNL     1      16.484  -1.295  52.524  1.00  0.00     0.171 A 
HETATM   22  C14 UNL     1      16.068  -0.238  51.689  1.00  0.00     0.111 A 
HETATM   23  S1  UNL     1      17.618   0.727  51.511  1.00  0.00    -0.058 SA
BRANCH  21  24
HETATM   24  O1  UNL     1      15.629  -2.330  52.959  1.00  0.00    -0.344 OA
HETATM   25  H16 UNL     1      14.635  -2.115  52.968  1.00  0.00     0.219 HD
ENDBRANCH  21  24
ENDBRANCH  14  19
TORSDOF 2
ENDMDL
MODEL 5
REMARK VINA RESULT:      -7.6      6.095      7.800
REMARK  2 active torsions:
REMARK  status: ('A' for Active; 'I' for Inactive)
REMARK    1  A    between atoms: N2_14  and  C12_15 
REMARK    2  A    between atoms: C13_17  and  O1_18 
ROOT
HETATM    1  C1  UNL     1      29.171   5.347  48.026  1.00  0.00     0.048 C 
HETATM    2  C2  UNL     1      27.749   5.404  48.536  1.00  0.00    -0.060 C 
HETATM    3  C3  UNL     1      27.128   4.378  49.065  1.00  0.00     0.003 C 
HETATM    4  C4  UNL     1      26.261   3.339  49.690  1.00  0.00    -0.021 C 
HETATM    5  C5  UNL     1      24.974   3.557  50.083  1.00  0.00     0.020 C 
HETATM    6  C6  UNL     1      23.607   3.555  50.574  1.00  0.00     0.041 C 
HETATM    7  P1  UNL     1      22.219   3.732  49.403  1.00  0.00    -0.121 P 
HETATM    8  C7  UNL     1      22.682   4.308  47.713  1.00  0.00     0.030 C 
HETATM    9  C8  UNL     1      21.508   4.051  46.746  1.00  0.00     0.019 C 
HETATM   10  C9  UNL     1      23.013   5.750  47.709  1.00  0.00    -0.016 C 
HETATM   11  C10 UNL     1      23.244   7.022  47.661  1.00  0.00     0.026 C 
HETATM   12  C11 UNL     1      24.229   7.906  48.228  1.00  0.00     0.060 C 
HETATM   13  N1  UNL     1      24.636   9.086  48.151  1.00  0.00    -0.170 NA
HETATM   14  N2  UNL     1      26.052   9.135  48.301  1.00  0.00    -0.213 N 
HETATM   15  C15 UNL     1      26.450   7.749  48.493  1.00  0.00     0.045 C 
HETATM   16  C16 UNL     1      27.329   6.789  48.358  1.00  0.00     0.034 C 
HETATM   17  C17 UNL     1      25.170   7.362  49.230  1.00  0.00     0.120 C 
HETATM   18  H9  UNL     1      21.177   4.569  49.980  1.00  0.00     0.058 HD
ENDROOT
BRANCH  14  19
HETATM   19  C12 UNL     1      27.177  10.071  48.286  1.00  0.00     0.196 A 
HETATM   20  N3  UNL     1      27.352  11.020  48.949  1.00  0.00    -0.198 NA
HETATM   21  C13 UNL     1      28.399  11.829  48.896  1.00  0.00     0.171 A 
HETATM   22  C14 UNL     1      29.396  11.517  47.950  1.00  0.00     0.111 A 
HETATM   23  S1  UNL     1      28.709  10.002  47.174  1.00  0.00    -0.058 SA
BRANCH  21  24
HETATM   24  O1  UNL     1      28.467  12.939  49.765  1.00  0.00    -0.344 OA
HETATM   25  H16 UNL     1      28.294  13.848  49.344  1.00  0.00     0.219 HD
ENDBRANCH  21  24
ENDBRANCH  14  19
TORSDOF 2
ENDMDL
MODEL 6
REMARK VINA RESULT:      -7.1      4.276      6.632
REMARK  2 active torsions:
REMARK  status: ('A' for Active; 'I' for Inactive)
REMARK    1  A    between atoms: N2_14  and  C12_15 
REMARK    2  A    between atoms: C13_17  and  O1_18 
ROOT
HETATM    1  C1  UNL     1      26.877   3.192  49.233  1.00  0.00     0.048 C 
HETATM    2  C2  UNL     1      26.234   2.779  50.538  1.00  0.00    -0.060 C 
HETATM    3  C3  UNL     1      26.688   1.806  51.292  1.00  0.00     0.003 C 
HETATM    4  C4  UNL     1      27.045   0.746  52.275  1.00  0.00    -0.021 C 
HETATM    5  C5  UNL     1      26.336   0.490  53.411  1.00  0.00     0.020 C 
HETATM    6  C6  UNL     1      25.749   0.045  54.662  1.00  0.00     0.041 C 
HETATM    7  P1  UNL     1      24.120  -0.777  54.663  1.00  0.00    -0.121 P 
HETATM    8  C7  UNL     1      23.156  -0.616  53.098  1.00  0.00     0.030 C 
HETATM    9  C8  UNL     1      22.009  -1.646  53.097  1.00  0.00     0.019 C 
HETATM   10  C9  UNL     1      22.592   0.744  52.952  1.00  0.00    -0.016 C 
HETATM   11  C10 UNL     1      22.031   1.904  52.829  1.00  0.00     0.026 C 
HETATM   12  C11 UNL     1      22.499   3.257  52.675  1.00  0.00     0.060 C 
HETATM   13  N1  UNL     1      22.084   4.406  52.413  1.00  0.00    -0.170 NA
HETATM   14  N2  UNL     1      23.036   5.113  51.623  1.00  0.00    -0.213 N 
HETATM   15  C15 UNL     1      24.136   4.177  51.449  1.00  0.00     0.045 C 
HETATM   16  C16 UNL     1      25.129   3.709  50.736  1.00  0.00     0.034 C 
HETATM   17  C17 UNL     1      23.948   3.521  52.815  1.00  0.00     0.120 C 
HETATM   18  H9  UNL     1      23.338  -0.346  55.812  1.00  0.00     0.058 HD
ENDROOT
BRANCH  14  19
HETATM   19  C12 UNL     1      23.238   6.389  50.937  1.00  0.00     0.196 A 
HETATM   20  N3  UNL     1      24.153   7.118  50.994  1.00  0.00    -0.198 NA
HETATM   21  C13 UNL     1      24.285   8.261  50.340  1.00  0.00     0.171 A 
HETATM   22  C14 UNL     1      23.221   8.636  49.495  1.00  0.00     0.111 A 
HETATM   23  S1  UNL     1      22.057   7.235  49.722  1.00  0.00    -0.058 SA
BRANCH  21  24
HETATM   24  O1  UNL     1      25.453   9.034  50.514  1.00  0.00    -0.344 OA
HETATM   25  H16 UNL     1      26.333   8.568  50.308  1.00  0.00     0.219 HD
ENDBRANCH  21  24
ENDBRANCH  14  19
TORSDOF 2
ENDMDL
MODEL 7
REMARK VINA RESULT:      -7.0      5.093      6.665
REMARK  2 active torsions:
REMARK  status: ('A' for Active; 'I' for Inactive)
REMARK    1  A    between atoms: N2_14  and  C12_15 
REMARK    2  A    between atoms: C13_17  and  O1_18 
ROOT
HETATM    1  C1  UNL     1      27.589   4.429  48.647  1.00  0.00     0.048 C 
HETATM    2  C2  UNL     1      26.382   4.541  49.549  1.00  0.00    -0.060 C 
HETATM    3  C3  UNL     1      25.878   3.529  50.214  1.00  0.00     0.003 C 
HETATM    4  C4  UNL     1      25.167   2.514  51.041  1.00  0.00    -0.021 C 
HETATM    5  C5  UNL     1      24.064   2.783  51.795  1.00  0.00     0.020 C 
HETATM    6  C6  UNL     1      22.899   2.834  52.661  1.00  0.00     0.041 C 
HETATM    7  P1  UNL     1      21.245   3.128  51.948  1.00  0.00    -0.121 P 
HETATM    8  C7  UNL     1      21.236   3.742  50.208  1.00  0.00     0.030 C 
HETATM    9  C8  UNL     1      19.819   3.584  49.619  1.00  0.00     0.019 C 
HETATM   10  C9  UNL     1      21.638   5.164  50.139  1.00  0.00    -0.016 C 
HETATM   11  C10 UNL     1      21.922   6.424  50.053  1.00  0.00     0.026 C 
HETATM   12  C11 UNL     1      23.081   7.233  50.328  1.00  0.00     0.060 C 
HETATM   13  N1  UNL     1      23.520   8.392  50.162  1.00  0.00    -0.170 NA
HETATM   14  N2  UNL     1      24.919   8.362  49.895  1.00  0.00    -0.213 N 
HETATM   15  C15 UNL     1      25.271   6.950  49.934  1.00  0.00     0.045 C 
HETATM   16  C16 UNL     1      26.013   5.952  49.530  1.00  0.00     0.034 C 
HETATM   17  C17 UNL     1      24.236   6.603  51.003  1.00  0.00     0.120 C 
HETATM   18  H9  UNL     1      20.467   3.995  52.819  1.00  0.00     0.058 HD
ENDROOT
BRANCH  14  19
HETATM   19  C12 UNL     1      26.047   9.238  49.575  1.00  0.00     0.196 A 
HETATM   20  N3  UNL     1      27.153   9.180  49.953  1.00  0.00    -0.198 NA
HETATM   21  C13 UNL     1      28.138  10.000  49.620  1.00  0.00     0.171 A 
HETATM   22  C14 UNL     1      27.821  11.042  48.725  1.00  0.00     0.111 A 
HETATM   23  S1  UNL     1      26.038  10.738  48.419  1.00  0.00    -0.058 SA
BRANCH  21  24
HETATM   24  O1  UNL     1      29.425   9.801  50.162  1.00  0.00    -0.344 OA
HETATM   25  H16 UNL     1      29.588   8.901  50.609  1.00  0.00     0.219 HD
ENDBRANCH  21  24
ENDBRANCH  14  19
TORSDOF 2
ENDMDL
MODEL 8
REMARK VINA RESULT:      -6.9      5.096      7.417
REMARK  2 active torsions:
REMARK  status: ('A' for Active; 'I' for Inactive)
REMARK    1  A    between atoms: N2_14  and  C12_15 
REMARK    2  A    between atoms: C13_17  and  O1_18 
ROOT
HETATM    1  C1  UNL     1      22.169   6.920  47.013  1.00  0.00     0.048 C 
HETATM    2  C2  UNL     1      23.462   7.032  47.788  1.00  0.00    -0.060 C 
HETATM    3  C3  UNL     1      24.086   8.167  47.992  1.00  0.00     0.003 C 
HETATM    4  C4  UNL     1      24.936   9.344  48.328  1.00  0.00    -0.021 C 
HETATM    5  C5  UNL     1      26.101   9.266  49.031  1.00  0.00     0.020 C 
HETATM    6  C6  UNL     1      27.351   9.427  49.753  1.00  0.00     0.041 C 
HETATM    7  P1  UNL     1      28.898   8.754  49.058  1.00  0.00    -0.121 P 
HETATM    8  C7  UNL     1      28.683   7.560  47.668  1.00  0.00     0.030 C 
HETATM    9  C8  UNL     1      30.031   7.372  46.943  1.00  0.00     0.019 C 
HETATM   10  C9  UNL     1      28.203   6.248  48.157  1.00  0.00    -0.016 C 
HETATM   11  C10 UNL     1      27.848   5.071  48.560  1.00  0.00     0.026 C 
HETATM   12  C11 UNL     1      26.688   4.519  49.210  1.00  0.00     0.060 C 
HETATM   13  N1  UNL     1      26.174   3.420  49.516  1.00  0.00    -0.170 NA
HETATM   14  N2  UNL     1      24.758   3.476  49.376  1.00  0.00    -0.213 N 
HETATM   15  C15 UNL     1      24.485   4.833  48.928  1.00  0.00     0.045 C 
HETATM   16  C16 UNL     1      23.753   5.681  48.252  1.00  0.00     0.034 C 
HETATM   17  C17 UNL     1      25.648   5.447  49.704  1.00  0.00     0.120 C 
HETATM   18  H9  UNL     1      29.724   8.191  50.116  1.00  0.00     0.058 HD
ENDROOT
BRANCH  14  19
HETATM   19  C12 UNL     1      23.559   2.645  49.495  1.00  0.00     0.196 A 
HETATM   20  N3  UNL     1      23.136   2.094  50.437  1.00  0.00    -0.198 NA
HETATM   21  C13 UNL     1      22.036   1.360  50.487  1.00  0.00     0.171 A 
HETATM   22  C14 UNL     1      21.305   1.229  49.289  1.00  0.00     0.111 A 
HETATM   23  S1  UNL     1      22.315   2.229  48.128  1.00  0.00    -0.058 SA
BRANCH  21  24
HETATM   24  O1  UNL     1      21.655   0.755  51.704  1.00  0.00    -0.344 OA
HETATM   25  H16 UNL     1      21.234  -0.168  51.632  1.00  0.00     0.219 HD
ENDBRANCH  21  24
ENDBRANCH  14  19
TORSDOF 2
ENDMDL
MODEL 9
REMARK VINA RESULT:      -6.9      5.824      6.886
REMARK  2 active torsions:
REMARK  status: ('A' for Active; 'I' for Inactive)
REMARK    1  A    between atoms: N2_14  and  C12_15 
REMARK    2  A    between atoms: C13_17  and  O1_18 
ROOT
HETATM    1  C1  UNL     1      26.743   3.412  49.429  1.00  0.00     0.048 C 
HETATM    2  C2  UNL     1      26.249   4.804  49.107  1.00  0.00    -0.060 C 
HETATM    3  C3  UNL     1      25.017   5.201  49.316  1.00  0.00     0.003 C 
HETATM    4  C4  UNL     1      23.678   5.835  49.477  1.00  0.00    -0.021 C 
HETATM    5  C5  UNL     1      23.394   7.117  49.112  1.00  0.00     0.020 C 
HETATM    6  C6  UNL     1      22.865   8.435  48.807  1.00  0.00     0.041 C 
HETATM    7  P1  UNL     1      22.693   8.968  47.071  1.00  0.00    -0.121 P 
HETATM    8  C7  UNL     1      23.588   7.930  45.836  1.00  0.00     0.030 C 
HETATM    9  C8  UNL     1      23.061   8.250  44.422  1.00  0.00     0.019 C 
HETATM   10  C9  UNL     1      25.046   8.178  45.881  1.00  0.00    -0.016 C 
HETATM   11  C10 UNL     1      26.317   8.421  45.852  1.00  0.00     0.026 C 
HETATM   12  C11 UNL     1      27.411   8.262  46.774  1.00  0.00     0.060 C 
HETATM   13  N1  UNL     1      28.659   8.320  46.822  1.00  0.00    -0.170 NA
HETATM   14  N2  UNL     1      29.172   7.314  47.691  1.00  0.00    -0.213 N 
HETATM   15  C15 UNL     1      27.995   6.617  48.183  1.00  0.00     0.045 C 
HETATM   16  C16 UNL     1      27.417   5.525  48.615  1.00  0.00     0.034 C 
HETATM   17  C17 UNL     1      27.108   7.860  48.165  1.00  0.00     0.120 C 
HETATM   18  H9  UNL     1      23.047  10.373  46.936  1.00  0.00     0.058 HD
ENDROOT
BRANCH  14  19
HETATM   19  C12 UNL     1      30.432   6.761  48.189  1.00  0.00     0.196 A 
HETATM   20  N3  UNL     1      30.842   5.669  48.099  1.00  0.00    -0.198 NA
HETATM   21  C13 UNL     1      31.999   5.225  48.565  1.00  0.00     0.171 A 
HETATM   22  C14 UNL     1      32.814   6.161  49.234  1.00  0.00     0.111 A 
HETATM   23  S1  UNL     1      31.794   7.682  49.131  1.00  0.00    -0.058 SA
BRANCH  21  24
HETATM   24  O1  UNL     1      32.356   3.873  48.377  1.00  0.00    -0.344 OA
HETATM   25  H16 UNL     1      32.847   3.428  49.148  1.00  0.00     0.219 HD
ENDBRANCH  21  24
ENDBRANCH  14  19
TORSDOF 2
ENDMDL
