MODEL 1
REMARK VINA RESULT:      -8.7      0.000      0.000
REMARK  6 active torsions:
REMARK  status: ('A' for Active; 'I' for Inactive)
REMARK    1  A    between atoms: C2_2  and  O1_3 
REMARK    2  A    between atoms: O1_3  and  C3_4 
REMARK    3  A    between atoms: N1_9  and  C8_10 
REMARK    4  A    between atoms: C10_12  and  N2_14 
REMARK    5  A    between atoms: N2_14  and  C12_15 
REMARK    6  A    between atoms: C15_18  and  C16_19 
ROOT
HETATM    1  C8  UNL     1      23.773   4.409  50.636  1.00  0.00     0.031 C 
HETATM    2  C9  UNL     1      22.967   3.466  50.207  1.00  0.00     0.040 C 
HETATM    3  C10 UNL     1      21.704   2.921  50.765  1.00  0.00     0.128 C 
HETATM    4  C11 UNL     1      20.602   3.133  49.748  1.00  0.00     0.054 C 
HETATM    5  C23 UNL     1      21.369   3.697  51.983  1.00  0.00     0.249 C 
HETATM    6  O2  UNL     1      20.173   3.688  52.435  1.00  0.00    -0.270 OA
HETATM    7  N4  UNL     1      22.373   4.448  52.646  1.00  0.00    -0.353 N 
HETATM    8  C24 UNL     1      23.412   5.079  51.888  1.00  0.00     0.179 C 
HETATM    9  H32 UNL     1      22.340   4.530  53.690  1.00  0.00     0.162 HD
ENDROOT
BRANCH   3  10
HETATM   10  N2  UNL     1      21.888   1.512  51.063  1.00  0.00    -0.372 N 
HETATM   11  H15 UNL     1      21.498   0.775  50.417  1.00  0.00     0.161 HD
BRANCH  10  12
HETATM   12  C12 UNL     1      22.524   0.794  52.110  1.00  0.00     0.010 A 
HETATM   13  C13 UNL     1      21.964   0.095  53.077  1.00  0.00     0.025 A 
HETATM   14  C14 UNL     1      23.011  -0.464  53.917  1.00  0.00     0.005 A 
HETATM   15  C15 UNL     1      24.206  -0.120  53.482  1.00  0.00    -0.070 A 
HETATM   16  C22 UNL     1      23.997   0.713  52.289  1.00  0.00     0.091 A 
BRANCH  15  17
HETATM   17  C16 UNL     1      25.512  -0.486  54.058  1.00  0.00     0.018 C 
HETATM   18  C17 UNL     1      26.283   0.690  54.559  1.00  0.00     0.028 C 
HETATM   19  C18 UNL     1      27.706   0.212  54.847  1.00  0.00     0.117 C 
HETATM   20  N3  UNL     1      28.349   0.085  53.563  1.00  0.00    -0.417 N 
HETATM   21  C19 UNL     1      29.717  -0.323  53.629  1.00  0.00     0.143 C 
HETATM   22  C20 UNL     1      27.551  -0.552  52.572  1.00  0.00     0.117 C 
HETATM   23  C21 UNL     1      26.360  -1.290  53.125  1.00  0.00     0.028 C 
ENDBRANCH  15  17
ENDBRANCH  10  12
ENDBRANCH   3  10
BRANCH   1  24
HETATM   24  N1  UNL     1      24.939   4.771  49.933  1.00  0.00    -0.327 N 
HETATM   25  C3  UNL     1      25.137   6.014  49.282  1.00  0.00     0.144 A 
HETATM   26  C4  UNL     1      26.226   6.367  48.619  1.00  0.00     0.056 A 
HETATM   27  C5  UNL     1      27.333   5.420  48.536  1.00  0.00     0.002 A 
HETATM   28  C6  UNL     1      27.167   4.251  49.139  1.00  0.00    -0.007 A 
HETATM   29  C7  UNL     1      26.000   3.781  49.890  1.00  0.00     0.158 A 
BRANCH  25  30
HETATM   30  O1  UNL     1      24.120   6.959  49.325  1.00  0.00    -0.336 OA
BRANCH  30  31
HETATM   31  C2  UNL     1      23.292   7.018  48.175  1.00  0.00     0.173 C 
HETATM   32  C1  UNL     1      21.849   6.730  48.476  1.00  0.00     0.034 C 
ENDBRANCH  30  31
ENDBRANCH  25  30
ENDBRANCH   1  24
TORSDOF 6
ENDMDL
MODEL 2
REMARK VINA RESULT:      -8.7      2.435      7.411
REMARK  6 active torsions:
REMARK  status: ('A' for Active; 'I' for Inactive)
REMARK    1  A    between atoms: C2_2  and  O1_3 
REMARK    2  A    between atoms: O1_3  and  C3_4 
REMARK    3  A    between atoms: N1_9  and  C8_10 
REMARK    4  A    between atoms: C10_12  and  N2_14 
REMARK    5  A    between atoms: N2_14  and  C12_15 
REMARK    6  A    between atoms: C15_18  and  C16_19 
ROOT
HETATM    1  C8  UNL     1      22.530   1.747  51.849  1.00  0.00     0.031 C 
HETATM    2  C9  UNL     1      22.788   3.014  52.079  1.00  0.00     0.040 C 
HETATM    3  C10 UNL     1      22.875   4.183  51.168  1.00  0.00     0.128 C 
HETATM    4  C11 UNL     1      21.841   5.202  51.598  1.00  0.00     0.054 C 
HETATM    5  C23 UNL     1      22.534   3.723  49.800  1.00  0.00     0.249 C 
HETATM    6  O2  UNL     1      22.173   4.571  48.914  1.00  0.00    -0.270 OA
HETATM    7  N4  UNL     1      22.607   2.343  49.475  1.00  0.00    -0.353 N 
HETATM    8  C24 UNL     1      22.276   1.358  50.461  1.00  0.00     0.179 C 
HETATM    9  H32 UNL     1      22.904   2.064  48.510  1.00  0.00     0.162 HD
ENDROOT
BRANCH   3  10
HETATM   10  N2  UNL     1      24.218   4.729  51.228  1.00  0.00    -0.372 N 
HETATM   11  H15 UNL     1      24.534   5.276  52.073  1.00  0.00     0.161 HD
BRANCH  10  12
HETATM   12  C12 UNL     1      25.334   4.718  50.350  1.00  0.00     0.010 A 
HETATM   13  C13 UNL     1      26.095   3.696  50.010  1.00  0.00     0.025 A 
HETATM   14  C14 UNL     1      27.117   4.162  49.086  1.00  0.00     0.005 A 
HETATM   15  C15 UNL     1      26.997   5.452  48.853  1.00  0.00    -0.070 A 
HETATM   16  C22 UNL     1      25.848   5.918  49.641  1.00  0.00     0.091 A 
BRANCH  15  17
HETATM   17  C16 UNL     1      27.838   6.289  47.978  1.00  0.00     0.018 C 
HETATM   18  C17 UNL     1      29.294   5.984  48.095  1.00  0.00     0.028 C 
HETATM   19  C18 UNL     1      30.052   7.100  47.377  1.00  0.00     0.117 C 
HETATM   20  N3  UNL     1      30.016   8.236  48.263  1.00  0.00    -0.417 N 
HETATM   21  C19 UNL     1      30.714   9.384  47.776  1.00  0.00     0.143 C 
HETATM   22  C20 UNL     1      28.743   8.478  48.849  1.00  0.00     0.117 C 
HETATM   23  C21 UNL     1      27.609   7.754  48.173  1.00  0.00     0.028 C 
ENDBRANCH  15  17
ENDBRANCH  10  12
ENDBRANCH   3  10
BRANCH   1  24
HETATM   24  N1  UNL     1      22.497   0.792  52.885  1.00  0.00    -0.327 N 
HETATM   25  C3  UNL     1      23.613   0.037  53.322  1.00  0.00     0.144 A 
HETATM   26  C4  UNL     1      23.596  -0.862  54.293  1.00  0.00     0.056 A 
HETATM   27  C5  UNL     1      22.340  -1.118  54.990  1.00  0.00     0.002 A 
HETATM   28  C6  UNL     1      21.285  -0.420  54.595  1.00  0.00    -0.007 A 
HETATM   29  C7  UNL     1      21.215   0.588  53.535  1.00  0.00     0.158 A 
BRANCH  25  30
HETATM   30  O1  UNL     1      24.838   0.233  52.698  1.00  0.00    -0.336 OA
BRANCH  30  31
HETATM   31  C2  UNL     1      25.902   0.625  53.550  1.00  0.00     0.173 C 
HETATM   32  C1  UNL     1      25.965   2.110  53.765  1.00  0.00     0.034 C 
ENDBRANCH  30  31
ENDBRANCH  25  30
ENDBRANCH   1  24
TORSDOF 6
ENDMDL
MODEL 3
REMARK VINA RESULT:      -8.3      2.612      7.331
REMARK  6 active torsions:
REMARK  status: ('A' for Active; 'I' for Inactive)
REMARK    1  A    between atoms: C2_2  and  O1_3 
REMARK    2  A    between atoms: O1_3  and  C3_4 
REMARK    3  A    between atoms: N1_9  and  C8_10 
REMARK    4  A    between atoms: C10_12  and  N2_14 
REMARK    5  A    between atoms: N2_14  and  C12_15 
REMARK    6  A    between atoms: C15_18  and  C16_19 
ROOT
HETATM    1  C8  UNL     1      24.150   2.076  51.531  1.00  0.00     0.031 C 
HETATM    2  C9  UNL     1      24.236   3.337  51.884  1.00  0.00     0.040 C 
HETATM    3  C10 UNL     1      23.534   4.549  51.390  1.00  0.00     0.128 C 
HETATM    4  C11 UNL     1      22.777   5.168  52.547  1.00  0.00     0.054 C 
HETATM    5  C23 UNL     1      22.550   4.122  50.366  1.00  0.00     0.249 C 
HETATM    6  O2  UNL     1      21.576   4.891  50.058  1.00  0.00    -0.270 OA
HETATM    7  N4  UNL     1      22.689   2.861  49.729  1.00  0.00    -0.353 N 
HETATM    8  C24 UNL     1      23.208   1.744  50.460  1.00  0.00     0.179 C 
HETATM    9  H32 UNL     1      22.406   2.766  48.724  1.00  0.00     0.162 HD
ENDROOT
BRANCH   3  10
HETATM   10  N2  UNL     1      24.511   5.470  50.840  1.00  0.00    -0.372 N 
HETATM   11  H15 UNL     1      24.453   6.501  51.056  1.00  0.00     0.161 HD
BRANCH  10  12
HETATM   12  C12 UNL     1      25.644   5.327  49.997  1.00  0.00     0.010 A 
HETATM   13  C13 UNL     1      26.250   4.218  49.623  1.00  0.00     0.025 A 
HETATM   14  C14 UNL     1      27.366   4.563  48.757  1.00  0.00     0.005 A 
HETATM   15  C15 UNL     1      27.457   5.865  48.592  1.00  0.00    -0.070 A 
HETATM   16  C22 UNL     1      26.365   6.467  49.371  1.00  0.00     0.091 A 
BRANCH  15  17
HETATM   17  C16 UNL     1      28.450   6.603  47.791  1.00  0.00     0.018 C 
HETATM   18  C17 UNL     1      29.828   6.042  47.900  1.00  0.00     0.028 C 
HETATM   19  C18 UNL     1      30.785   7.057  47.275  1.00  0.00     0.117 C 
HETATM   20  N3  UNL     1      30.925   8.116  48.242  1.00  0.00    -0.417 N 
HETATM   21  C19 UNL     1      31.822   9.157  47.847  1.00  0.00     0.143 C 
HETATM   22  C20 UNL     1      29.699   8.534  48.830  1.00  0.00     0.117 C 
HETATM   23  C21 UNL     1      28.474   8.068  48.090  1.00  0.00     0.028 C 
ENDBRANCH  15  17
ENDBRANCH  10  12
ENDBRANCH   3  10
BRANCH   1  24
HETATM   24  N1  UNL     1      24.925   1.074  52.147  1.00  0.00    -0.327 N 
HETATM   25  C3  UNL     1      24.452   0.183  53.141  1.00  0.00     0.144 A 
HETATM   26  C4  UNL     1      25.168  -0.762  53.729  1.00  0.00     0.056 A 
HETATM   27  C5  UNL     1      26.565  -0.926  53.339  1.00  0.00     0.002 A 
HETATM   28  C6  UNL     1      27.026  -0.101  52.410  1.00  0.00    -0.007 A 
HETATM   29  C7  UNL     1      26.307   0.967  51.713  1.00  0.00     0.158 A 
BRANCH  25  30
HETATM   30  O1  UNL     1      23.130   0.287  53.557  1.00  0.00    -0.336 OA
BRANCH  30  31
HETATM   31  C2  UNL     1      22.356  -0.894  53.433  1.00  0.00     0.173 C 
HETATM   32  C1  UNL     1      21.446  -1.125  54.606  1.00  0.00     0.034 C 
ENDBRANCH  30  31
ENDBRANCH  25  30
ENDBRANCH   1  24
TORSDOF 6
ENDMDL
MODEL 4
REMARK VINA RESULT:      -8.3      1.233      2.281
REMARK  6 active torsions:
REMARK  status: ('A' for Active; 'I' for Inactive)
REMARK    1  A    between atoms: C2_2  and  O1_3 
REMARK    2  A    between atoms: O1_3  and  C3_4 
REMARK    3  A    between atoms: N1_9  and  C8_10 
REMARK    4  A    between atoms: C10_12  and  N2_14 
REMARK    5  A    between atoms: N2_14  and  C12_15 
REMARK    6  A    between atoms: C15_18  and  C16_19 
ROOT
HETATM    1  C8  UNL     1      23.415   5.870  49.670  1.00  0.00     0.031 C 
HETATM    2  C9  UNL     1      22.786   4.763  49.350  1.00  0.00     0.040 C 
HETATM    3  C10 UNL     1      21.929   3.851  50.149  1.00  0.00     0.128 C 
HETATM    4  C11 UNL     1      20.557   3.800  49.508  1.00  0.00     0.054 C 
HETATM    5  C23 UNL     1      21.787   4.429  51.508  1.00  0.00     0.249 C 
HETATM    6  O2  UNL     1      20.824   4.056  52.261  1.00  0.00    -0.270 OA
HETATM    7  N4  UNL     1      22.718   5.395  51.970  1.00  0.00    -0.353 N 
HETATM    8  C24 UNL     1      23.286   6.337  51.052  1.00  0.00     0.179 C 
HETATM    9  H32 UNL     1      22.978   5.404  52.985  1.00  0.00     0.162 HD
ENDROOT
BRANCH   3  10
HETATM   10  N2  UNL     1      22.546   2.538  50.189  1.00  0.00    -0.372 N 
HETATM   11  H15 UNL     1      22.834   2.057  49.295  1.00  0.00     0.161 HD
BRANCH  10  12
HETATM   12  C12 UNL     1      22.899   1.639  51.229  1.00  0.00     0.010 A 
HETATM   13  C13 UNL     1      22.127   0.775  51.858  1.00  0.00     0.025 A 
HETATM   14  C14 UNL     1      22.925   0.069  52.848  1.00  0.00     0.005 A 
HETATM   15  C15 UNL     1      24.174   0.484  52.838  1.00  0.00    -0.070 A 
HETATM   16  C22 UNL     1      24.265   1.523  51.802  1.00  0.00     0.091 A 
BRANCH  15  17
HETATM   17  C16 UNL     1      25.284   0.016  53.687  1.00  0.00     0.018 C 
HETATM   18  C17 UNL     1      26.215   1.109  54.093  1.00  0.00     0.028 C 
HETATM   19  C18 UNL     1      27.452   0.451  54.704  1.00  0.00     0.117 C 
HETATM   20  N3  UNL     1      28.217  -0.059  53.595  1.00  0.00    -0.417 N 
HETATM   21  C19 UNL     1      29.446  -0.687  53.967  1.00  0.00     0.143 C 
HETATM   22  C20 UNL     1      27.441  -0.734  52.612  1.00  0.00     0.117 C 
HETATM   23  C21 UNL     1      26.057  -1.108  53.075  1.00  0.00     0.028 C 
ENDBRANCH  15  17
ENDBRANCH  10  12
ENDBRANCH   3  10
BRANCH   1  24
HETATM   24  N1  UNL     1      24.186   6.588  48.734  1.00  0.00    -0.327 N 
HETATM   25  C3  UNL     1      25.600   6.554  48.658  1.00  0.00     0.144 A 
HETATM   26  C4  UNL     1      26.336   7.223  47.785  1.00  0.00     0.056 A 
HETATM   27  C5  UNL     1      25.664   8.071  46.806  1.00  0.00     0.002 A 
HETATM   28  C6  UNL     1      24.341   8.115  46.862  1.00  0.00    -0.007 A 
HETATM   29  C7  UNL     1      23.453   7.413  47.791  1.00  0.00     0.158 A 
BRANCH  25  30
HETATM   30  O1  UNL     1      26.299   5.765  49.562  1.00  0.00    -0.336 OA
BRANCH  30  31
HETATM   31  C2  UNL     1      26.973   4.649  49.005  1.00  0.00     0.173 C 
HETATM   32  C1  UNL     1      26.479   3.336  49.544  1.00  0.00     0.034 C 
ENDBRANCH  30  31
ENDBRANCH  25  30
ENDBRANCH   1  24
TORSDOF 6
ENDMDL
MODEL 5
REMARK VINA RESULT:      -8.1      2.643      7.746
REMARK  6 active torsions:
REMARK  status: ('A' for Active; 'I' for Inactive)
REMARK    1  A    between atoms: C2_2  and  O1_3 
REMARK    2  A    between atoms: O1_3  and  C3_4 
REMARK    3  A    between atoms: N1_9  and  C8_10 
REMARK    4  A    between atoms: C10_12  and  N2_14 
REMARK    5  A    between atoms: N2_14  and  C12_15 
REMARK    6  A    between atoms: C15_18  and  C16_19 
ROOT
HETATM    1  C8  UNL     1      22.578   1.678  51.683  1.00  0.00     0.031 C 
HETATM    2  C9  UNL     1      23.113   2.856  51.905  1.00  0.00     0.040 C 
HETATM    3  C10 UNL     1      23.455   3.972  50.987  1.00  0.00     0.128 C 
HETATM    4  C11 UNL     1      22.677   5.198  51.416  1.00  0.00     0.054 C 
HETATM    5  C23 UNL     1      23.013   3.593  49.623  1.00  0.00     0.249 C 
HETATM    6  O2  UNL     1      22.846   4.497  48.733  1.00  0.00    -0.270 OA
HETATM    7  N4  UNL     1      22.774   2.231  49.305  1.00  0.00    -0.353 N 
HETATM    8  C24 UNL     1      22.236   1.349  50.297  1.00  0.00     0.179 C 
HETATM    9  H32 UNL     1      22.996   1.888  48.340  1.00  0.00     0.162 HD
ENDROOT
BRANCH   3  10
HETATM   10  N2  UNL     1      24.886   4.204  51.038  1.00  0.00    -0.372 N 
HETATM   11  H15 UNL     1      25.419   4.056  51.937  1.00  0.00     0.161 HD
BRANCH  10  12
HETATM   12  C12 UNL     1      25.858   4.625  50.093  1.00  0.00     0.010 A 
HETATM   13  C13 UNL     1      26.787   3.901  49.500  1.00  0.00     0.025 A 
HETATM   14  C14 UNL     1      27.552   4.760  48.610  1.00  0.00     0.005 A 
HETATM   15  C15 UNL     1      27.110   5.999  48.647  1.00  0.00    -0.070 A 
HETATM   16  C22 UNL     1      25.989   6.020  49.598  1.00  0.00     0.091 A 
BRANCH  15  17
HETATM   17  C16 UNL     1      27.620   7.158  47.893  1.00  0.00     0.018 C 
HETATM   18  C17 UNL     1      29.037   6.996  47.453  1.00  0.00     0.028 C 
HETATM   19  C18 UNL     1      29.519   8.359  46.958  1.00  0.00     0.117 C 
HETATM   20  N3  UNL     1      29.768   9.145  48.140  1.00  0.00    -0.417 N 
HETATM   21  C19 UNL     1      30.266  10.459  47.879  1.00  0.00     0.143 C 
HETATM   22  C20 UNL     1      28.751   9.046  49.130  1.00  0.00     0.117 C 
HETATM   23  C21 UNL     1      27.462   8.451  48.628  1.00  0.00     0.028 C 
ENDBRANCH  15  17
ENDBRANCH  10  12
ENDBRANCH   3  10
BRANCH   1  24
HETATM   24  N1  UNL     1      22.338   0.759  52.724  1.00  0.00    -0.327 N 
HETATM   25  C3  UNL     1      21.065   0.486  53.282  1.00  0.00     0.144 A 
HETATM   26  C4  UNL     1      20.825  -0.374  54.259  1.00  0.00     0.056 A 
HETATM   27  C5  UNL     1      21.944  -1.118  54.828  1.00  0.00     0.002 A 
HETATM   28  C6  UNL     1      23.143  -0.876  54.318  1.00  0.00    -0.007 A 
HETATM   29  C7  UNL     1      23.496   0.054  53.243  1.00  0.00     0.158 A 
BRANCH  25  30
HETATM   30  O1  UNL     1      19.958   1.162  52.784  1.00  0.00    -0.336 OA
BRANCH  30  31
HETATM   31  C2  UNL     1      18.915   0.342  52.284  1.00  0.00     0.173 C 
HETATM   32  C1  UNL     1      18.794   0.394  50.788  1.00  0.00     0.034 C 
ENDBRANCH  30  31
ENDBRANCH  25  30
ENDBRANCH   1  24
TORSDOF 6
ENDMDL
MODEL 6
REMARK VINA RESULT:      -8.0      2.307      5.977
REMARK  6 active torsions:
REMARK  status: ('A' for Active; 'I' for Inactive)
REMARK    1  A    between atoms: C2_2  and  O1_3 
REMARK    2  A    between atoms: O1_3  and  C3_4 
REMARK    3  A    between atoms: N1_9  and  C8_10 
REMARK    4  A    between atoms: C10_12  and  N2_14 
REMARK    5  A    between atoms: N2_14  and  C12_15 
REMARK    6  A    between atoms: C15_18  and  C16_19 
ROOT
HETATM    1  C8  UNL     1      20.288   1.433  50.856  1.00  0.00     0.031 C 
HETATM    2  C9  UNL     1      20.582   2.641  51.277  1.00  0.00     0.040 C 
HETATM    3  C10 UNL     1      21.284   3.771  50.617  1.00  0.00     0.128 C 
HETATM    4  C11 UNL     1      20.338   4.952  50.558  1.00  0.00     0.054 C 
HETATM    5  C23 UNL     1      21.605   3.362  49.228  1.00  0.00     0.249 C 
HETATM    6  O2  UNL     1      21.863   4.250  48.345  1.00  0.00    -0.270 OA
HETATM    7  N4  UNL     1      21.624   1.987  48.878  1.00  0.00    -0.353 N 
HETATM    8  C24 UNL     1      20.704   1.078  49.497  1.00  0.00     0.179 C 
HETATM    9  H32 UNL     1      22.316   1.653  48.166  1.00  0.00     0.162 HD
ENDROOT
BRANCH   3  10
HETATM   10  N2  UNL     1      22.484   4.086  51.370  1.00  0.00    -0.372 N 
HETATM   11  H15 UNL     1      22.519   4.946  51.981  1.00  0.00     0.161 HD
BRANCH  10  12
HETATM   12  C12 UNL     1      23.756   3.474  51.513  1.00  0.00     0.010 A 
HETATM   13  C13 UNL     1      24.685   3.297  50.594  1.00  0.00     0.025 A 
HETATM   14  C14 UNL     1      25.821   2.623  51.202  1.00  0.00     0.005 A 
HETATM   15  C15 UNL     1      25.607   2.382  52.478  1.00  0.00    -0.070 A 
HETATM   16  C22 UNL     1      24.269   2.905  52.787  1.00  0.00     0.091 A 
BRANCH  15  17
HETATM   17  C16 UNL     1      26.514   1.720  53.433  1.00  0.00     0.018 C 
HETATM   18  C17 UNL     1      27.927   2.186  53.321  1.00  0.00     0.028 C 
HETATM   19  C18 UNL     1      28.789   1.225  54.140  1.00  0.00     0.117 C 
HETATM   20  N3  UNL     1      28.912   0.029  53.346  1.00  0.00    -0.417 N 
HETATM   21  C19 UNL     1      29.725  -0.988  53.936  1.00  0.00     0.143 C 
HETATM   22  C20 UNL     1      27.693  -0.407  52.755  1.00  0.00     0.117 C 
HETATM   23  C21 UNL     1      26.464   0.227  53.350  1.00  0.00     0.028 C 
ENDBRANCH  15  17
ENDBRANCH  10  12
ENDBRANCH   3  10
BRANCH   1  24
HETATM   24  N1  UNL     1      19.603   0.506  51.666  1.00  0.00    -0.327 N 
HETATM   25  C3  UNL     1      20.168  -0.168  52.777  1.00  0.00     0.144 A 
HETATM   26  C4  UNL     1      19.537  -1.040  53.546  1.00  0.00     0.056 A 
HETATM   27  C5  UNL     1      18.142  -1.353  53.252  1.00  0.00     0.002 A 
HETATM   28  C6  UNL     1      17.596  -0.732  52.216  1.00  0.00    -0.007 A 
HETATM   29  C7  UNL     1      18.219   0.241  51.316  1.00  0.00     0.158 A 
BRANCH  25  30
HETATM   30  O1  UNL     1      21.493   0.086  53.109  1.00  0.00    -0.336 OA
BRANCH  30  31
HETATM   31  C2  UNL     1      22.287  -1.059  53.371  1.00  0.00     0.173 C 
HETATM   32  C1  UNL     1      23.042  -0.966  54.666  1.00  0.00     0.034 C 
ENDBRANCH  30  31
ENDBRANCH  25  30
ENDBRANCH   1  24
TORSDOF 6
ENDMDL
MODEL 7
REMARK VINA RESULT:      -8.0      5.059      8.786
REMARK  6 active torsions:
REMARK  status: ('A' for Active; 'I' for Inactive)
REMARK    1  A    between atoms: C2_2  and  O1_3 
REMARK    2  A    between atoms: O1_3  and  C3_4 
REMARK    3  A    between atoms: N1_9  and  C8_10 
REMARK    4  A    between atoms: C10_12  and  N2_14 
REMARK    5  A    between atoms: N2_14  and  C12_15 
REMARK    6  A    between atoms: C15_18  and  C16_19 
ROOT
HETATM    1  C8  UNL     1      31.832   6.299  47.817  1.00  0.00     0.031 C 
HETATM    2  C9  UNL     1      30.855   6.836  47.124  1.00  0.00     0.040 C 
HETATM    3  C10 UNL     1      29.864   7.887  47.469  1.00  0.00     0.128 C 
HETATM    4  C11 UNL     1      30.033   9.039  46.501  1.00  0.00     0.054 C 
HETATM    5  C23 UNL     1      30.173   8.376  48.835  1.00  0.00     0.249 C 
HETATM    6  O2  UNL     1      29.726   9.510  49.222  1.00  0.00    -0.270 OA
HETATM    7  N4  UNL     1      30.964   7.589  49.710  1.00  0.00    -0.353 N 
HETATM    8  C24 UNL     1      32.027   6.784  49.185  1.00  0.00     0.179 C 
HETATM    9  H32 UNL     1      30.757   7.607  50.737  1.00  0.00     0.162 HD
ENDROOT
BRANCH   3  10
HETATM   10  N2  UNL     1      28.530   7.320  47.395  1.00  0.00    -0.372 N 
HETATM   11  H15 UNL     1      27.830   7.694  46.699  1.00  0.00     0.161 HD
BRANCH  10  12
HETATM   12  C12 UNL     1      27.851   6.285  48.089  1.00  0.00     0.010 A 
HETATM   13  C13 UNL     1      28.295   5.084  48.403  1.00  0.00     0.025 A 
HETATM   14  C14 UNL     1      27.247   4.369  49.114  1.00  0.00     0.005 A 
HETATM   15  C15 UNL     1      26.167   5.109  49.242  1.00  0.00    -0.070 A 
HETATM   16  C22 UNL     1      26.459   6.398  48.599  1.00  0.00     0.091 A 
BRANCH  15  17
HETATM   17  C16 UNL     1      24.899   4.743  49.898  1.00  0.00     0.018 C 
HETATM   18  C17 UNL     1      25.029   3.577  50.820  1.00  0.00     0.028 C 
HETATM   19  C18 UNL     1      23.616   3.129  51.191  1.00  0.00     0.117 C 
HETATM   20  N3  UNL     1      23.112   2.418  50.043  1.00  0.00    -0.417 N 
HETATM   21  C19 UNL     1      21.798   1.884  50.212  1.00  0.00     0.143 C 
HETATM   22  C20 UNL     1      23.372   3.060  48.800  1.00  0.00     0.117 C 
HETATM   23  C21 UNL     1      23.786   4.502  48.929  1.00  0.00     0.028 C 
ENDBRANCH  15  17
ENDBRANCH  10  12
ENDBRANCH   3  10
BRANCH   1  24
HETATM   24  N1  UNL     1      32.665   5.298  47.280  1.00  0.00    -0.327 N 
HETATM   25  C3  UNL     1      33.714   5.529  46.357  1.00  0.00     0.144 A 
HETATM   26  C4  UNL     1      34.503   4.599  45.844  1.00  0.00     0.056 A 
HETATM   27  C5  UNL     1      34.302   3.210  46.247  1.00  0.00     0.002 A 
HETATM   28  C6  UNL     1      33.325   2.974  47.111  1.00  0.00    -0.007 A 
HETATM   29  C7  UNL     1      32.409   3.939  47.723  1.00  0.00     0.158 A 
BRANCH  25  30
HETATM   30  O1  UNL     1      33.956   6.830  45.933  1.00  0.00    -0.336 OA
BRANCH  30  31
HETATM   31  C2  UNL     1      33.914   7.034  44.531  1.00  0.00     0.173 C 
HETATM   32  C1  UNL     1      32.521   6.983  43.972  1.00  0.00     0.034 C 
ENDBRANCH  30  31
ENDBRANCH  25  30
ENDBRANCH   1  24
TORSDOF 6
ENDMDL
MODEL 8
REMARK VINA RESULT:      -7.7      2.838      4.812
REMARK  6 active torsions:
REMARK  status: ('A' for Active; 'I' for Inactive)
REMARK    1  A    between atoms: C2_2  and  O1_3 
REMARK    2  A    between atoms: O1_3  and  C3_4 
REMARK    3  A    between atoms: N1_9  and  C8_10 
REMARK    4  A    between atoms: C10_12  and  N2_14 
REMARK    5  A    between atoms: N2_14  and  C12_15 
REMARK    6  A    between atoms: C15_18  and  C16_19 
ROOT
HETATM    1  C8  UNL     1      24.691   6.639  49.516  1.00  0.00     0.031 C 
HETATM    2  C9  UNL     1      23.660   6.565  48.706  1.00  0.00     0.040 C 
HETATM    3  C10 UNL     1      22.215   6.826  48.924  1.00  0.00     0.128 C 
HETATM    4  C11 UNL     1      21.783   7.933  47.985  1.00  0.00     0.054 C 
HETATM    5  C23 UNL     1      22.041   7.304  50.317  1.00  0.00     0.249 C 
HETATM    6  O2  UNL     1      20.983   7.942  50.645  1.00  0.00    -0.270 OA
HETATM    7  N4  UNL     1      23.048   7.053  51.285  1.00  0.00    -0.353 N 
HETATM    8  C24 UNL     1      24.427   7.047  50.898  1.00  0.00     0.179 C 
HETATM    9  H32 UNL     1      22.765   6.875  52.278  1.00  0.00     0.162 HD
ENDROOT
BRANCH   3  10
HETATM   10  N2  UNL     1      21.473   5.603  48.682  1.00  0.00    -0.372 N 
HETATM   11  H15 UNL     1      20.494   5.642  48.289  1.00  0.00     0.161 HD
BRANCH  10  12
HETATM   12  C12 UNL     1      21.750   4.222  48.859  1.00  0.00     0.010 A 
HETATM   13  C13 UNL     1      22.372   3.402  48.034  1.00  0.00     0.025 A 
HETATM   14  C14 UNL     1      22.424   2.081  48.638  1.00  0.00     0.005 A 
HETATM   15  C15 UNL     1      21.844   2.074  49.821  1.00  0.00    -0.070 A 
HETATM   16  C22 UNL     1      21.364   3.442  50.063  1.00  0.00     0.091 A 
BRANCH  15  17
HETATM   17  C16 UNL     1      21.693   0.933  50.741  1.00  0.00     0.018 C 
HETATM   18  C17 UNL     1      20.416   0.965  51.512  1.00  0.00     0.028 C 
HETATM   19  C18 UNL     1      20.524  -0.086  52.616  1.00  0.00     0.117 C 
HETATM   20  N3  UNL     1      21.379   0.487  53.625  1.00  0.00    -0.417 N 
HETATM   21  C19 UNL     1      21.573  -0.345  54.772  1.00  0.00     0.143 C 
HETATM   22  C20 UNL     1      22.540   1.127  53.111  1.00  0.00     0.117 C 
HETATM   23  C21 UNL     1      22.848   0.778  51.678  1.00  0.00     0.028 C 
ENDBRANCH  15  17
ENDBRANCH  10  12
ENDBRANCH   3  10
BRANCH   1  24
HETATM   24  N1  UNL     1      26.000   6.341  49.088  1.00  0.00    -0.327 N 
HETATM   25  C3  UNL     1      26.543   5.036  49.002  1.00  0.00     0.144 A 
HETATM   26  C4  UNL     1      27.770   4.741  48.602  1.00  0.00     0.056 A 
HETATM   27  C5  UNL     1      28.659   5.829  48.209  1.00  0.00     0.002 A 
HETATM   28  C6  UNL     1      28.167   7.058  48.283  1.00  0.00    -0.007 A 
HETATM   29  C7  UNL     1      26.830   7.471  48.713  1.00  0.00     0.158 A 
BRANCH  25  30
HETATM   30  O1  UNL     1      25.748   3.956  49.363  1.00  0.00    -0.336 OA
BRANCH  30  31
HETATM   31  C2  UNL     1      25.867   3.532  50.711  1.00  0.00     0.173 C 
HETATM   32  C1  UNL     1      26.474   2.164  50.844  1.00  0.00     0.034 C 
ENDBRANCH  30  31
ENDBRANCH  25  30
ENDBRANCH   1  24
TORSDOF 6
ENDMDL
MODEL 9
REMARK VINA RESULT:      -7.7      2.430      7.567
REMARK  6 active torsions:
REMARK  status: ('A' for Active; 'I' for Inactive)
REMARK    1  A    between atoms: C2_2  and  O1_3 
REMARK    2  A    between atoms: O1_3  and  C3_4 
REMARK    3  A    between atoms: N1_9  and  C8_10 
REMARK    4  A    between atoms: C10_12  and  N2_14 
REMARK    5  A    between atoms: N2_14  and  C12_15 
REMARK    6  A    between atoms: C15_18  and  C16_19 
ROOT
HETATM    1  C8  UNL     1      23.507   1.834  51.893  1.00  0.00     0.031 C 
HETATM    2  C9  UNL     1      24.643   1.444  51.363  1.00  0.00     0.040 C 
HETATM    3  C10 UNL     1      26.052   1.671  51.776  1.00  0.00     0.128 C 
HETATM    4  C11 UNL     1      26.698   0.325  52.030  1.00  0.00     0.054 C 
HETATM    5  C23 UNL     1      26.039   2.429  53.050  1.00  0.00     0.249 C 
HETATM    6  O2  UNL     1      27.074   2.432  53.801  1.00  0.00    -0.270 OA
HETATM    7  N4  UNL     1      24.880   3.151  53.436  1.00  0.00    -0.353 N 
HETATM    8  C24 UNL     1      23.580   2.643  53.111  1.00  0.00     0.179 C 
HETATM    9  H32 UNL     1      24.993   4.052  53.958  1.00  0.00     0.162 HD
ENDROOT
BRANCH   3  10
HETATM   10  N2  UNL     1      26.739   2.401  50.727  1.00  0.00    -0.372 N 
HETATM   11  H15 UNL     1      27.656   2.047  50.343  1.00  0.00     0.161 HD
BRANCH  10  12
HETATM   12  C12 UNL     1      26.470   3.596  50.009  1.00  0.00     0.010 A 
HETATM   13  C13 UNL     1      27.272   4.264  49.203  1.00  0.00     0.025 A 
HETATM   14  C14 UNL     1      26.563   5.427  48.695  1.00  0.00     0.005 A 
HETATM   15  C15 UNL     1      25.339   5.486  49.175  1.00  0.00    -0.070 A 
HETATM   16  C22 UNL     1      25.173   4.322  50.056  1.00  0.00     0.091 A 
BRANCH  15  17
HETATM   17  C16 UNL     1      24.314   6.509  48.899  1.00  0.00     0.018 C 
HETATM   18  C17 UNL     1      24.252   7.575  49.941  1.00  0.00     0.028 C 
HETATM   19  C18 UNL     1      22.978   8.383  49.692  1.00  0.00     0.117 C 
HETATM   20  N3  UNL     1      21.893   7.568  50.177  1.00  0.00    -0.417 N 
HETATM   21  C19 UNL     1      20.604   8.176  50.062  1.00  0.00     0.143 C 
HETATM   22  C20 UNL     1      21.976   6.199  49.798  1.00  0.00     0.117 C 
HETATM   23  C21 UNL     1      22.952   5.931  48.683  1.00  0.00     0.028 C 
ENDBRANCH  15  17
ENDBRANCH  10  12
ENDBRANCH   3  10
BRANCH   1  24
HETATM   24  N1  UNL     1      22.264   1.496  51.323  1.00  0.00    -0.327 N 
HETATM   25  C3  UNL     1      21.259   0.736  51.970  1.00  0.00     0.144 A 
HETATM   26  C4  UNL     1      20.087   0.412  51.447  1.00  0.00     0.056 A 
HETATM   27  C5  UNL     1      19.775   0.862  50.094  1.00  0.00     0.002 A 
HETATM   28  C6  UNL     1      20.703   1.575  49.473  1.00  0.00    -0.007 A 
HETATM   29  C7  UNL     1      22.020   1.976  49.974  1.00  0.00     0.158 A 
BRANCH  25  30
HETATM   30  O1  UNL     1      21.495   0.277  53.259  1.00  0.00    -0.336 OA
BRANCH  30  31
HETATM   31  C2  UNL     1      22.045  -1.026  53.353  1.00  0.00     0.173 C 
HETATM   32  C1  UNL     1      21.456  -1.833  54.475  1.00  0.00     0.034 C 
ENDBRANCH  30  31
ENDBRANCH  25  30
ENDBRANCH   1  24
TORSDOF 6
ENDMDL
