MODEL 1
REMARK VINA RESULT:      -9.4      0.000      0.000
REMARK  3 active torsions:
REMARK  status: ('A' for Active; 'I' for Inactive)
REMARK    1  A    between atoms: C2_2  and  N1_3 
REMARK    2  A    between atoms: C2_2  and  C15_19 
REMARK    3  A    between atoms: N1_3  and  C3_4 
ROOT
HETATM    1  C3  UNL     1      22.891   2.771  52.349  1.00  0.00     0.265 C 
HETATM    2  C4  UNL     1      21.677   1.849  52.653  1.00  0.00     0.126 C 
HETATM    3  N2  UNL     1      21.572   0.653  53.130  1.00  0.00    -0.254 NA
HETATM    4  C5  UNL     1      22.507  -0.293  53.565  1.00  0.00     0.254 C 
HETATM    5  N3  UNL     1      23.710  -0.785  53.544  1.00  0.00    -0.168 NA
HETATM    6  N4  UNL     1      24.828  -0.374  52.831  1.00  0.00    -0.277 N 
HETATM    7  C6  UNL     1      25.857   0.623  53.099  1.00  0.00     0.056 C 
HETATM    8  C7  UNL     1      27.261   0.348  53.274  1.00  0.00    -0.008 A 
HETATM    9  C8  UNL     1      28.184   1.329  53.527  1.00  0.00     0.014 A 
HETATM   10  C9  UNL     1      29.524   0.957  53.679  1.00  0.00     0.001 A 
HETATM   11  C10 UNL     1      29.848  -0.381  53.564  1.00  0.00     0.000 A 
HETATM   12  C11 UNL     1      28.916  -1.371  53.309  1.00  0.00     0.001 A 
HETATM   13  C12 UNL     1      27.597  -0.984  53.162  1.00  0.00     0.014 A 
HETATM   14  C13 UNL     1      25.300   1.875  53.163  1.00  0.00     0.008 C 
HETATM   15  C14 UNL     1      23.916   2.047  52.973  1.00  0.00     0.070 C 
HETATM   16  H9  UNL     1      25.209  -0.694  51.899  1.00  0.00     0.189 HD
ENDROOT
BRANCH   1  17
HETATM   17  N1  UNL     1      22.929   2.792  50.905  1.00  0.00     0.102 N 
HETATM   18  H5  UNL     1      23.686   2.139  50.566  1.00  0.00     0.317 HD
BRANCH  17  19
HETATM   19  C2  UNL     1      23.243   4.095  50.359  1.00  0.00     0.250 C 
HETATM   20  C1  UNL     1      23.013   5.215  51.332  1.00  0.00     0.048 C 
BRANCH  19  21
HETATM   21  C15 UNL     1      24.636   4.169  49.872  1.00  0.00    -0.026 A 
HETATM   22  C16 UNL     1      25.642   3.227  49.844  1.00  0.00     0.012 A 
HETATM   23  C17 UNL     1      26.875   3.544  49.332  1.00  0.00     0.043 A 
HETATM   24  C18 UNL     1      27.149   4.800  48.834  1.00  0.00     0.116 A 
HETATM   25  F1  UNL     1      28.403   4.973  48.362  1.00  0.00    -0.206 F 
HETATM   26  C19 UNL     1      26.164   5.763  48.848  1.00  0.00     0.043 A 
HETATM   27  C20 UNL     1      24.905   5.444  49.370  1.00  0.00     0.012 A 
ENDBRANCH  19  21
ENDBRANCH  17  19
ENDBRANCH   1  17
TORSDOF 3
ENDMDL
MODEL 2
REMARK VINA RESULT:      -9.2      1.228      1.648
REMARK  3 active torsions:
REMARK  status: ('A' for Active; 'I' for Inactive)
REMARK    1  A    between atoms: C2_2  and  N1_3 
REMARK    2  A    between atoms: C2_2  and  C15_19 
REMARK    3  A    between atoms: N1_3  and  C3_4 
ROOT
HETATM    1  C3  UNL     1      22.892   4.582  51.874  1.00  0.00     0.265 C 
HETATM    2  C4  UNL     1      21.426   4.076  51.977  1.00  0.00     0.126 C 
HETATM    3  N2  UNL     1      20.904   2.940  52.303  1.00  0.00    -0.254 NA
HETATM    4  C5  UNL     1      21.445   1.710  52.694  1.00  0.00     0.254 C 
HETATM    5  N3  UNL     1      22.431   0.863  52.707  1.00  0.00    -0.168 NA
HETATM    6  N4  UNL     1      23.691   0.954  52.132  1.00  0.00    -0.277 N 
HETATM    7  C6  UNL     1      24.943   1.541  52.591  1.00  0.00     0.056 C 
HETATM    8  C7  UNL     1      26.165   0.817  52.837  1.00  0.00    -0.008 A 
HETATM    9  C8  UNL     1      27.314   1.425  53.272  1.00  0.00     0.014 A 
HETATM   10  C9  UNL     1      28.448   0.632  53.479  1.00  0.00     0.001 A 
HETATM   11  C10 UNL     1      28.350  -0.724  53.235  1.00  0.00     0.000 A 
HETATM   12  C11 UNL     1      27.190  -1.338  52.797  1.00  0.00     0.001 A 
HETATM   13  C12 UNL     1      26.080  -0.538  52.598  1.00  0.00     0.014 A 
HETATM   14  C13 UNL     1      24.800   2.895  52.757  1.00  0.00     0.008 C 
HETATM   15  C14 UNL     1      23.567   3.517  52.485  1.00  0.00     0.070 C 
HETATM   16  H9  UNL     1      24.052   0.610  51.201  1.00  0.00     0.189 HD
ENDROOT
BRANCH   1  17
HETATM   17  N1  UNL     1      23.091   4.714  50.449  1.00  0.00     0.102 N 
HETATM   18  H5  UNL     1      23.587   3.858  50.085  1.00  0.00     0.317 HD
BRANCH  17  19
HETATM   19  C2  UNL     1      23.917   5.846  50.088  1.00  0.00     0.250 C 
HETATM   20  C1  UNL     1      24.110   6.820  51.214  1.00  0.00     0.048 C 
BRANCH  19  21
HETATM   21  C15 UNL     1      25.244   5.426  49.592  1.00  0.00    -0.026 A 
HETATM   22  C16 UNL     1      25.858   4.191  49.570  1.00  0.00     0.012 A 
HETATM   23  C17 UNL     1      27.119   4.054  49.047  1.00  0.00     0.043 A 
HETATM   24  C18 UNL     1      27.809   5.131  48.532  1.00  0.00     0.116 A 
HETATM   25  F1  UNL     1      29.040   4.853  48.051  1.00  0.00    -0.206 F 
HETATM   26  C19 UNL     1      27.222   6.378  48.541  1.00  0.00     0.043 A 
HETATM   27  C20 UNL     1      25.936   6.522  49.074  1.00  0.00     0.012 A 
ENDBRANCH  19  21
ENDBRANCH  17  19
ENDBRANCH   1  17
TORSDOF 3
ENDMDL
MODEL 3
REMARK VINA RESULT:      -8.9      2.011      5.777
REMARK  3 active torsions:
REMARK  status: ('A' for Active; 'I' for Inactive)
REMARK    1  A    between atoms: C2_2  and  N1_3 
REMARK    2  A    between atoms: C2_2  and  C15_19 
REMARK    3  A    between atoms: N1_3  and  C3_4 
ROOT
HETATM    1  C3  UNL     1      22.897   1.572  51.197  1.00  0.00     0.265 C 
HETATM    2  C4  UNL     1      21.408   1.920  50.918  1.00  0.00     0.126 C 
HETATM    3  N2  UNL     1      20.831   2.854  50.239  1.00  0.00    -0.254 NA
HETATM    4  C5  UNL     1      21.311   3.927  49.480  1.00  0.00     0.254 C 
HETATM    5  N3  UNL     1      22.245   4.790  49.207  1.00  0.00    -0.168 NA
HETATM    6  N4  UNL     1      23.489   4.971  49.797  1.00  0.00    -0.277 N 
HETATM    7  C6  UNL     1      24.788   4.353  49.566  1.00  0.00     0.056 C 
HETATM    8  C7  UNL     1      25.972   5.039  49.115  1.00  0.00    -0.008 A 
HETATM    9  C8  UNL     1      27.169   4.402  48.914  1.00  0.00     0.014 A 
HETATM   10  C9  UNL     1      28.260   5.161  48.476  1.00  0.00     0.001 A 
HETATM   11  C10 UNL     1      28.074   6.515  48.270  1.00  0.00     0.000 A 
HETATM   12  C11 UNL     1      26.866   7.158  48.474  1.00  0.00     0.001 A 
HETATM   13  C12 UNL     1      25.800   6.391  48.906  1.00  0.00     0.014 A 
HETATM   14  C13 UNL     1      24.731   3.011  49.842  1.00  0.00     0.008 C 
HETATM   15  C14 UNL     1      23.528   2.428  50.284  1.00  0.00     0.070 C 
HETATM   16  H9  UNL     1      23.798   5.618  50.573  1.00  0.00     0.189 HD
ENDROOT
BRANCH   1  17
HETATM   17  N1  UNL     1      23.056   1.915  52.591  1.00  0.00     0.102 N 
HETATM   18  H5  UNL     1      23.722   2.730  52.676  1.00  0.00     0.317 HD
BRANCH  17  19
HETATM   19  C2  UNL     1      23.622   0.845  53.384  1.00  0.00     0.250 C 
HETATM   20  C1  UNL     1      23.026  -0.498  53.077  1.00  0.00     0.048 C 
BRANCH  19  21
HETATM   21  C15 UNL     1      25.089   0.759  53.230  1.00  0.00    -0.026 A 
HETATM   22  C16 UNL     1      25.898  -0.259  52.771  1.00  0.00     0.012 A 
HETATM   23  C17 UNL     1      27.259  -0.094  52.722  1.00  0.00     0.043 A 
HETATM   24  C18 UNL     1      27.860   1.079  53.126  1.00  0.00     0.116 A 
HETATM   25  F1  UNL     1      29.207   1.103  53.026  1.00  0.00    -0.206 F 
HETATM   26  C19 UNL     1      27.078   2.115  53.591  1.00  0.00     0.043 A 
HETATM   27  C20 UNL     1      25.689   1.951  53.642  1.00  0.00     0.012 A 
ENDBRANCH  19  21
ENDBRANCH  17  19
ENDBRANCH   1  17
TORSDOF 3
ENDMDL
MODEL 4
REMARK VINA RESULT:      -8.6      2.084      5.848
REMARK  3 active torsions:
REMARK  status: ('A' for Active; 'I' for Inactive)
REMARK    1  A    between atoms: C2_2  and  N1_3 
REMARK    2  A    between atoms: C2_2  and  C15_19 
REMARK    3  A    between atoms: N1_3  and  C3_4 
ROOT
HETATM    1  C3  UNL     1      23.615   1.059  52.122  1.00  0.00     0.265 C 
HETATM    2  C4  UNL     1      22.094   1.357  52.251  1.00  0.00     0.126 C 
HETATM    3  N2  UNL     1      21.340   2.311  51.817  1.00  0.00    -0.254 NA
HETATM    4  C5  UNL     1      21.587   3.460  51.056  1.00  0.00     0.254 C 
HETATM    5  N3  UNL     1      22.399   4.384  50.636  1.00  0.00    -0.168 NA
HETATM    6  N4  UNL     1      23.745   4.579  50.913  1.00  0.00    -0.277 N 
HETATM    7  C6  UNL     1      24.962   4.042  50.317  1.00  0.00     0.056 C 
HETATM    8  C7  UNL     1      25.977   4.816  49.648  1.00  0.00    -0.008 A 
HETATM    9  C8  UNL     1      27.102   4.253  49.103  1.00  0.00     0.014 A 
HETATM   10  C9  UNL     1      28.028   5.093  48.476  1.00  0.00     0.001 A 
HETATM   11  C10 UNL     1      27.760   6.448  48.438  1.00  0.00     0.000 A 
HETATM   12  C11 UNL     1      26.624   7.016  48.987  1.00  0.00     0.001 A 
HETATM   13  C12 UNL     1      25.721   6.170  49.603  1.00  0.00     0.014 A 
HETATM   14  C13 UNL     1      25.011   2.681  50.484  1.00  0.00     0.008 C 
HETATM   15  C14 UNL     1      23.974   2.010  51.158  1.00  0.00     0.070 C 
HETATM   16  H9  UNL     1      24.221   5.180  51.640  1.00  0.00     0.189 HD
ENDROOT
BRANCH   1  17
HETATM   17  N1  UNL     1      24.107   1.304  53.457  1.00  0.00     0.102 N 
HETATM   18  H5  UNL     1      24.576   2.249  53.489  1.00  0.00     0.317 HD
BRANCH  17  19
HETATM   19  C2  UNL     1      25.102   0.344  53.886  1.00  0.00     0.250 C 
HETATM   20  C1  UNL     1      25.147  -0.885  53.025  1.00  0.00     0.048 C 
BRANCH  19  21
HETATM   21  C15 UNL     1      26.455   0.936  53.939  1.00  0.00    -0.026 A 
HETATM   22  C16 UNL     1      26.965   2.091  53.386  1.00  0.00     0.012 A 
HETATM   23  C17 UNL     1      28.280   2.431  53.582  1.00  0.00     0.043 A 
HETATM   24  C18 UNL     1      29.127   1.640  54.328  1.00  0.00     0.116 A 
HETATM   25  F1  UNL     1      30.395   2.094  54.438  1.00  0.00    -0.206 F 
HETATM   26  C19 UNL     1      28.647   0.479  54.894  1.00  0.00     0.043 A 
HETATM   27  C20 UNL     1      27.306   0.128  54.696  1.00  0.00     0.012 A 
ENDBRANCH  19  21
ENDBRANCH  17  19
ENDBRANCH   1  17
TORSDOF 3
ENDMDL
MODEL 5
REMARK VINA RESULT:      -8.5      3.151      5.661
REMARK  3 active torsions:
REMARK  status: ('A' for Active; 'I' for Inactive)
REMARK    1  A    between atoms: C2_2  and  N1_3 
REMARK    2  A    between atoms: C2_2  and  C15_19 
REMARK    3  A    between atoms: N1_3  and  C3_4 
ROOT
HETATM    1  C3  UNL     1      21.904   2.604  50.597  1.00  0.00     0.265 C 
HETATM    2  C4  UNL     1      21.938   3.991  49.897  1.00  0.00     0.126 C 
HETATM    3  N2  UNL     1      22.888   4.825  49.632  1.00  0.00    -0.254 NA
HETATM    4  C5  UNL     1      24.267   4.816  49.866  1.00  0.00     0.254 C 
HETATM    5  N3  UNL     1      25.295   4.404  50.549  1.00  0.00    -0.168 NA
HETATM    6  N4  UNL     1      25.354   3.544  51.637  1.00  0.00    -0.277 N 
HETATM    7  C6  UNL     1      25.425   2.093  51.743  1.00  0.00     0.056 C 
HETATM    8  C7  UNL     1      26.516   1.349  52.320  1.00  0.00    -0.008 A 
HETATM    9  C8  UNL     1      26.527  -0.020  52.391  1.00  0.00     0.014 A 
HETATM   10  C9  UNL     1      27.635  -0.646  52.972  1.00  0.00     0.001 A 
HETATM   11  C10 UNL     1      28.661   0.149  53.446  1.00  0.00     0.000 A 
HETATM   12  C11 UNL     1      28.650   1.531  53.374  1.00  0.00     0.001 A 
HETATM   13  C12 UNL     1      27.547   2.131  52.797  1.00  0.00     0.014 A 
HETATM   14  C13 UNL     1      24.295   1.522  51.214  1.00  0.00     0.008 C 
HETATM   15  C14 UNL     1      23.276   2.331  50.677  1.00  0.00     0.070 C 
HETATM   16  H9  UNL     1      25.363   3.743  52.675  1.00  0.00     0.189 HD
ENDROOT
BRANCH   1  17
HETATM   17  N1  UNL     1      21.248   2.889  51.852  1.00  0.00     0.102 N 
HETATM   18  H5  UNL     1      21.966   2.906  52.626  1.00  0.00     0.317 HD
BRANCH  17  19
HETATM   19  C2  UNL     1      20.270   1.891  52.228  1.00  0.00     0.250 C 
HETATM   20  C1  UNL     1      19.551   1.295  51.053  1.00  0.00     0.048 C 
BRANCH  19  21
HETATM   21  C15 UNL     1      20.873   0.797  53.019  1.00  0.00    -0.026 A 
HETATM   22  C16 UNL     1      22.112   0.679  53.613  1.00  0.00     0.012 A 
HETATM   23  C17 UNL     1      22.442  -0.458  54.305  1.00  0.00     0.043 A 
HETATM   24  C18 UNL     1      21.560  -1.510  54.431  1.00  0.00     0.116 A 
HETATM   25  F1  UNL     1      22.017  -2.566  55.138  1.00  0.00    -0.206 F 
HETATM   26  C19 UNL     1      20.315  -1.422  53.848  1.00  0.00     0.043 A 
HETATM   27  C20 UNL     1      19.973  -0.264  53.140  1.00  0.00     0.012 A 
ENDBRANCH  19  21
ENDBRANCH  17  19
ENDBRANCH   1  17
TORSDOF 3
ENDMDL
MODEL 6
REMARK VINA RESULT:      -8.3      4.054      6.700
REMARK  3 active torsions:
REMARK  status: ('A' for Active; 'I' for Inactive)
REMARK    1  A    between atoms: C2_2  and  N1_3 
REMARK    2  A    between atoms: C2_2  and  C15_19 
REMARK    3  A    between atoms: N1_3  and  C3_4 
ROOT
HETATM    1  C3  UNL     1      21.169   2.212  51.633  1.00  0.00     0.265 C 
HETATM    2  C4  UNL     1      20.943   3.750  51.663  1.00  0.00     0.126 C 
HETATM    3  N2  UNL     1      21.723   4.753  51.892  1.00  0.00    -0.254 NA
HETATM    4  C5  UNL     1      23.083   4.862  52.203  1.00  0.00     0.254 C 
HETATM    5  N3  UNL     1      24.174   4.354  52.694  1.00  0.00    -0.168 NA
HETATM    6  N4  UNL     1      24.398   3.106  53.259  1.00  0.00    -0.277 N 
HETATM    7  C6  UNL     1      24.733   1.810  52.684  1.00  0.00     0.056 C 
HETATM    8  C7  UNL     1      25.947   1.073  52.933  1.00  0.00    -0.008 A 
HETATM    9  C8  UNL     1      26.209  -0.144  52.360  1.00  0.00     0.014 A 
HETATM   10  C9  UNL     1      27.417  -0.778  52.669  1.00  0.00     0.001 A 
HETATM   11  C10 UNL     1      28.285  -0.143  53.537  1.00  0.00     0.000 A 
HETATM   12  C11 UNL     1      28.021   1.086  54.115  1.00  0.00     0.001 A 
HETATM   13  C12 UNL     1      26.822   1.696  53.798  1.00  0.00     0.014 A 
HETATM   14  C13 UNL     1      23.722   1.378  51.863  1.00  0.00     0.008 C 
HETATM   15  C14 UNL     1      22.569   2.164  51.685  1.00  0.00     0.070 C 
HETATM   16  H9  UNL     1      24.379   2.790  54.267  1.00  0.00     0.189 HD
ENDROOT
BRANCH   1  17
HETATM   17  N1  UNL     1      20.483   1.760  52.821  1.00  0.00     0.102 N 
HETATM   18  H5  UNL     1      20.956   2.164  53.673  1.00  0.00     0.317 HD
BRANCH  17  19
HETATM   19  C2  UNL     1      20.510   0.322  52.987  1.00  0.00     0.250 C 
HETATM   20  C1  UNL     1      20.971  -0.107  54.350  1.00  0.00     0.048 C 
BRANCH  19  21
HETATM   21  C15 UNL     1      19.192  -0.290  52.718  1.00  0.00    -0.026 A 
HETATM   22  C16 UNL     1      18.223   0.009  51.784  1.00  0.00     0.012 A 
HETATM   23  C17 UNL     1      17.062  -0.720  51.733  1.00  0.00     0.043 A 
HETATM   24  C18 UNL     1      16.824  -1.763  52.602  1.00  0.00     0.116 A 
HETATM   25  F1  UNL     1      15.640  -2.393  52.440  1.00  0.00    -0.206 F 
HETATM   26  C19 UNL     1      17.774  -2.086  53.548  1.00  0.00     0.043 A 
HETATM   27  C20 UNL     1      18.960  -1.345  53.603  1.00  0.00     0.012 A 
ENDBRANCH  19  21
ENDBRANCH  17  19
ENDBRANCH   1  17
TORSDOF 3
ENDMDL
MODEL 7
REMARK VINA RESULT:      -8.1      3.687      6.979
REMARK  3 active torsions:
REMARK  status: ('A' for Active; 'I' for Inactive)
REMARK    1  A    between atoms: C2_2  and  N1_3 
REMARK    2  A    between atoms: C2_2  and  C15_19 
REMARK    3  A    between atoms: N1_3  and  C3_4 
ROOT
HETATM    1  C3  UNL     1      23.054   2.520  50.170  1.00  0.00     0.265 C 
HETATM    2  C4  UNL     1      21.658   3.072  49.763  1.00  0.00     0.126 C 
HETATM    3  N2  UNL     1      21.278   4.114  49.102  1.00  0.00    -0.254 NA
HETATM    4  C5  UNL     1      21.967   5.164  48.485  1.00  0.00     0.254 C 
HETATM    5  N3  UNL     1      23.022   5.917  48.381  1.00  0.00    -0.168 NA
HETATM    6  N4  UNL     1      24.202   5.901  49.112  1.00  0.00    -0.277 N 
HETATM    7  C6  UNL     1      25.436   5.139  48.973  1.00  0.00     0.056 C 
HETATM    8  C7  UNL     1      26.738   5.698  48.706  1.00  0.00    -0.008 A 
HETATM    9  C8  UNL     1      27.866   4.928  48.583  1.00  0.00     0.014 A 
HETATM   10  C9  UNL     1      29.082   5.570  48.325  1.00  0.00     0.001 A 
HETATM   11  C10 UNL     1      29.084   6.946  48.207  1.00  0.00     0.000 A 
HETATM   12  C11 UNL     1      27.945   7.723  48.331  1.00  0.00     0.001 A 
HETATM   13  C12 UNL     1      26.752   7.071  48.586  1.00  0.00     0.014 A 
HETATM   14  C13 UNL     1      25.189   3.800  49.135  1.00  0.00     0.008 C 
HETATM   15  C14 UNL     1      23.883   3.347  49.400  1.00  0.00     0.070 C 
HETATM   16  H9  UNL     1      24.495   6.452  49.965  1.00  0.00     0.189 HD
ENDROOT
BRANCH   1  17
HETATM   17  N1  UNL     1      23.091   2.750  51.596  1.00  0.00     0.102 N 
HETATM   18  H5  UNL     1      23.430   3.732  51.783  1.00  0.00     0.317 HD
BRANCH  17  19
HETATM   19  C2  UNL     1      23.999   1.867  52.296  1.00  0.00     0.250 C 
HETATM   20  C1  UNL     1      24.884   2.585  53.273  1.00  0.00     0.048 C 
BRANCH  19  21
HETATM   21  C15 UNL     1      23.283   0.789  53.008  1.00  0.00    -0.026 A 
HETATM   22  C16 UNL     1      23.736  -0.381  53.580  1.00  0.00     0.012 A 
HETATM   23  C17 UNL     1      22.857  -1.237  54.196  1.00  0.00     0.043 A 
HETATM   24  C18 UNL     1      21.508  -0.962  54.263  1.00  0.00     0.116 A 
HETATM   25  F1  UNL     1      20.760  -1.891  54.897  1.00  0.00    -0.206 F 
HETATM   26  C19 UNL     1      21.025   0.199  53.700  1.00  0.00     0.043 A 
HETATM   27  C20 UNL     1      21.918   1.075  53.071  1.00  0.00     0.012 A 
ENDBRANCH  19  21
ENDBRANCH  17  19
ENDBRANCH   1  17
TORSDOF 3
ENDMDL
MODEL 8
REMARK VINA RESULT:      -8.0      3.123      6.807
REMARK  3 active torsions:
REMARK  status: ('A' for Active; 'I' for Inactive)
REMARK    1  A    between atoms: C2_2  and  N1_3 
REMARK    2  A    between atoms: C2_2  and  C15_19 
REMARK    3  A    between atoms: N1_3  and  C3_4 
ROOT
HETATM    1  C3  UNL     1      23.658  -0.816  53.395  1.00  0.00     0.265 C 
HETATM    2  C4  UNL     1      22.968  -1.038  54.771  1.00  0.00     0.126 C 
HETATM    3  N2  UNL     1      21.814  -0.705  55.244  1.00  0.00    -0.254 NA
HETATM    4  C5  UNL     1      20.719  -0.015  54.712  1.00  0.00     0.254 C 
HETATM    5  N3  UNL     1      20.226   0.838  53.864  1.00  0.00    -0.168 NA
HETATM    6  N4  UNL     1      20.861   1.588  52.883  1.00  0.00    -0.277 N 
HETATM    7  C6  UNL     1      21.225   1.298  51.503  1.00  0.00     0.056 C 
HETATM    8  C7  UNL     1      20.718   1.985  50.342  1.00  0.00    -0.008 A 
HETATM    9  C8  UNL     1      21.097   1.665  49.064  1.00  0.00     0.014 A 
HETATM   10  C9  UNL     1      20.547   2.396  48.006  1.00  0.00     0.001 A 
HETATM   11  C10 UNL     1      19.649   3.404  48.304  1.00  0.00     0.000 A 
HETATM   12  C11 UNL     1      19.267   3.726  49.594  1.00  0.00     0.001 A 
HETATM   13  C12 UNL     1      19.821   2.993  50.626  1.00  0.00     0.014 A 
HETATM   14  C13 UNL     1      22.130   0.268  51.457  1.00  0.00     0.008 C 
HETATM   15  C14 UNL     1      22.573  -0.341  52.646  1.00  0.00     0.070 C 
HETATM   16  H9  UNL     1      21.240   2.574  52.905  1.00  0.00     0.189 HD
ENDROOT
BRANCH   1  17
HETATM   17  N1  UNL     1      24.684   0.155  53.699  1.00  0.00     0.102 N 
HETATM   18  H5  UNL     1      24.237   1.099  53.851  1.00  0.00     0.317 HD
BRANCH  17  19
HETATM   19  C2  UNL     1      25.643   0.329  52.629  1.00  0.00     0.250 C 
HETATM   20  C1  UNL     1      25.866   1.768  52.264  1.00  0.00     0.048 C 
BRANCH  19  21
HETATM   21  C15 UNL     1      26.948  -0.286  52.952  1.00  0.00    -0.026 A 
HETATM   22  C16 UNL     1      27.413  -1.574  52.790  1.00  0.00     0.012 A 
HETATM   23  C17 UNL     1      28.687  -1.904  53.175  1.00  0.00     0.043 A 
HETATM   24  C18 UNL     1      29.538  -0.973  53.732  1.00  0.00     0.116 A 
HETATM   25  F1  UNL     1      30.763  -1.436  54.065  1.00  0.00    -0.206 F 
HETATM   26  C19 UNL     1      29.103   0.322  53.907  1.00  0.00     0.043 A 
HETATM   27  C20 UNL     1      27.803   0.664  53.516  1.00  0.00     0.012 A 
ENDBRANCH  19  21
ENDBRANCH  17  19
ENDBRANCH   1  17
TORSDOF 3
ENDMDL
MODEL 9
REMARK VINA RESULT:      -7.9      5.065      7.931
REMARK  3 active torsions:
REMARK  status: ('A' for Active; 'I' for Inactive)
REMARK    1  A    between atoms: C2_2  and  N1_3 
REMARK    2  A    between atoms: C2_2  and  C15_19 
REMARK    3  A    between atoms: N1_3  and  C3_4 
ROOT
HETATM    1  C3  UNL     1      27.103   6.766  48.519  1.00  0.00     0.265 C 
HETATM    2  C4  UNL     1      26.926   8.224  49.029  1.00  0.00     0.126 C 
HETATM    3  N2  UNL     1      27.759   9.169  49.311  1.00  0.00    -0.254 NA
HETATM    4  C5  UNL     1      29.154   9.264  49.270  1.00  0.00     0.254 C 
HETATM    5  N3  UNL     1      30.326   8.702  49.297  1.00  0.00    -0.168 NA
HETATM    6  N4  UNL     1      30.668   7.361  49.416  1.00  0.00    -0.277 N 
HETATM    7  C6  UNL     1      30.809   6.289  48.440  1.00  0.00     0.056 C 
HETATM    8  C7  UNL     1      32.030   5.580  48.148  1.00  0.00    -0.008 A 
HETATM    9  C8  UNL     1      32.102   4.579  47.214  1.00  0.00     0.014 A 
HETATM   10  C9  UNL     1      33.336   3.953  47.006  1.00  0.00     0.001 A 
HETATM   11  C10 UNL     1      34.418   4.375  47.755  1.00  0.00     0.000 A 
HETATM   12  C11 UNL     1      34.344   5.386  48.697  1.00  0.00     0.001 A 
HETATM   13  C12 UNL     1      33.117   5.993  48.888  1.00  0.00     0.014 A 
HETATM   14  C13 UNL     1      29.606   6.042  47.829  1.00  0.00     0.008 C 
HETATM   15  C14 UNL     1      28.464   6.783  48.184  1.00  0.00     0.070 C 
HETATM   16  H9  UNL     1      30.914   6.784  50.267  1.00  0.00     0.189 HD
ENDROOT
BRANCH   1  17
HETATM   17  N1  UNL     1      26.751   5.973  49.673  1.00  0.00     0.102 N 
HETATM   18  H5  UNL     1      27.629   5.574  50.104  1.00  0.00     0.317 HD
BRANCH  17  19
HETATM   19  C2  UNL     1      25.906   4.842  49.356  1.00  0.00     0.250 C 
HETATM   20  C1  UNL     1      26.612   3.523  49.482  1.00  0.00     0.048 C 
BRANCH  19  21
HETATM   21  C15 UNL     1      24.689   4.809  50.194  1.00  0.00    -0.026 A 
HETATM   22  C16 UNL     1      23.716   5.759  50.423  1.00  0.00     0.012 A 
HETATM   23  C17 UNL     1      22.663   5.485  51.259  1.00  0.00     0.043 A 
HETATM   24  C18 UNL     1      22.542   4.266  51.892  1.00  0.00     0.116 A 
HETATM   25  F1  UNL     1      21.457   4.133  52.687  1.00  0.00    -0.206 F 
HETATM   26  C19 UNL     1      23.498   3.297  51.684  1.00  0.00     0.043 A 
HETATM   27  C20 UNL     1      24.574   3.572  50.832  1.00  0.00     0.012 A 
ENDBRANCH  19  21
ENDBRANCH  17  19
ENDBRANCH   1  17
TORSDOF 3
ENDMDL
