MODEL 1
REMARK VINA RESULT:      -8.8      0.000      0.000
REMARK  5 active torsions:
REMARK  status: ('A' for Active; 'I' for Inactive)
REMARK    1  A    between atoms: C4_5  and  C5_6 
REMARK    2  A    between atoms: C6_7  and  C7_8 
REMARK    3  A    between atoms: C9_10  and  C10_11 
REMARK    4  A    between atoms: N2_19  and  C16_20 
REMARK    5  A    between atoms: C17_22  and  O1_23 
ROOT
HETATM    1  C1  UNL     1      20.807   3.286  52.339  1.00  0.00     0.019 C 
HETATM    2  C2  UNL     1      20.637   2.086  52.304  1.00  0.00    -0.065 C 
HETATM    3  C3  UNL     1      20.446   0.666  52.254  1.00  0.00     0.086 C 
HETATM    4 CL1  UNL     1      18.998  -0.084  51.616  1.00  0.00    -0.074 Cl
HETATM    5  C4  UNL     1      21.417  -0.107  52.716  1.00  0.00     0.033 C 
ENDROOT
BRANCH   5   6
HETATM    6  C5  UNL     1      22.647   0.507  53.262  1.00  0.00     0.000 C 
HETATM    7  C6  UNL     1      23.863   0.194  52.777  1.00  0.00     0.001 C 
BRANCH   7   8
HETATM    8  C7  UNL     1      25.019   0.871  53.404  1.00  0.00     0.141 C 
HETATM    9  C8  UNL     1      24.998   2.390  53.168  1.00  0.00     0.093 C 
HETATM   10  C9  UNL     1      25.560   2.449  51.791  1.00  0.00     0.067 C 
HETATM   11  N1  UNL     1      26.255   1.366  51.591  1.00  0.00    -0.173 NA
HETATM   12  N2  UNL     1      26.239   0.535  52.708  1.00  0.00    -0.237 N 
BRANCH  10  13
HETATM   13  C10 UNL     1      25.324   3.569  50.882  1.00  0.00    -0.010 A 
HETATM   14  C11 UNL     1      24.155   4.327  50.929  1.00  0.00     0.015 A 
HETATM   15  C12 UNL     1      23.970   5.375  50.051  1.00  0.00     0.020 A 
HETATM   16  C13 UNL     1      24.983   5.626  49.148  1.00  0.00     0.011 A 
HETATM   17 BR1  UNL     1      24.703   7.092  47.935  1.00  0.00    -0.051 Br
HETATM   18  C14 UNL     1      26.164   4.889  49.074  1.00  0.00     0.020 A 
HETATM   19  C15 UNL     1      26.319   3.845  49.967  1.00  0.00     0.015 A 
ENDBRANCH  10  13
BRANCH  12  20
HETATM   20  C16 UNL     1      27.310  -0.411  52.988  1.00  0.00     0.192 A 
HETATM   21  N3  UNL     1      27.564  -1.528  53.045  1.00  0.00    -0.198 NA
HETATM   22  C17 UNL     1      28.721  -2.066  53.381  1.00  0.00     0.171 A 
HETATM   23  C18 UNL     1      29.756  -1.185  53.704  1.00  0.00     0.111 A 
HETATM   24  S1  UNL     1      28.929   0.435  53.483  1.00  0.00    -0.058 SA
BRANCH  22  25
HETATM   25  O1  UNL     1      28.825  -3.473  53.388  1.00  0.00    -0.344 OA
HETATM   26  H12 UNL     1      29.645  -3.934  53.761  1.00  0.00     0.219 HD
ENDBRANCH  22  25
ENDBRANCH  12  20
ENDBRANCH   7   8
ENDBRANCH   5   6
TORSDOF 5
ENDMDL
MODEL 2
REMARK VINA RESULT:      -8.6      0.900      1.185
REMARK  5 active torsions:
REMARK  status: ('A' for Active; 'I' for Inactive)
REMARK    1  A    between atoms: C4_5  and  C5_6 
REMARK    2  A    between atoms: C6_7  and  C7_8 
REMARK    3  A    between atoms: C9_10  and  C10_11 
REMARK    4  A    between atoms: N2_19  and  C16_20 
REMARK    5  A    between atoms: C17_22  and  O1_23 
ROOT
HETATM    1  C1  UNL     1      20.424   3.124  52.218  1.00  0.00     0.019 C 
HETATM    2  C2  UNL     1      20.297   1.925  52.342  1.00  0.00    -0.065 C 
HETATM    3  C3  UNL     1      20.155   0.505  52.477  1.00  0.00     0.086 C 
HETATM    4 CL1  UNL     1      18.676  -0.352  52.100  1.00  0.00    -0.074 Cl
HETATM    5  C4  UNL     1      21.200  -0.184  52.911  1.00  0.00     0.033 C 
ENDROOT
BRANCH   5   6
HETATM    6  C5  UNL     1      22.460   0.521  53.237  1.00  0.00     0.000 C 
HETATM    7  C6  UNL     1      23.642  -0.122  53.248  1.00  0.00     0.001 C 
BRANCH   7   8
HETATM    8  C7  UNL     1      24.831   0.688  53.590  1.00  0.00     0.141 C 
HETATM    9  C8  UNL     1      24.683   2.152  53.144  1.00  0.00     0.093 C 
HETATM   10  C9  UNL     1      25.039   2.025  51.705  1.00  0.00     0.067 C 
HETATM   11  N1  UNL     1      25.763   0.953  51.560  1.00  0.00    -0.173 NA
HETATM   12  N2  UNL     1      25.958   0.300  52.774  1.00  0.00    -0.237 N 
BRANCH  10  13
HETATM   13  C10 UNL     1      24.606   2.985  50.690  1.00  0.00    -0.010 A 
HETATM   14  C11 UNL     1      25.334   4.139  50.405  1.00  0.00     0.015 A 
HETATM   15  C12 UNL     1      24.891   5.020  49.440  1.00  0.00     0.020 A 
HETATM   16  C13 UNL     1      23.717   4.702  48.789  1.00  0.00     0.011 A 
HETATM   17 BR1  UNL     1      23.118   5.945  47.449  1.00  0.00    -0.051 Br
HETATM   18  C14 UNL     1      22.964   3.558  49.049  1.00  0.00     0.020 A 
HETATM   19  C15 UNL     1      23.435   2.695  50.022  1.00  0.00     0.015 A 
ENDBRANCH  10  13
BRANCH  12  20
HETATM   20  C16 UNL     1      27.115  -0.549  53.023  1.00  0.00     0.192 A 
HETATM   21  N3  UNL     1      27.470  -1.639  53.058  1.00  0.00    -0.198 NA
HETATM   22  C17 UNL     1      28.675  -2.075  53.368  1.00  0.00     0.171 A 
HETATM   23  C18 UNL     1      29.631  -1.109  53.690  1.00  0.00     0.111 A 
HETATM   24  S1  UNL     1      28.658   0.432  53.508  1.00  0.00    -0.058 SA
BRANCH  22  25
HETATM   25  O1  UNL     1      28.906  -3.467  53.349  1.00  0.00    -0.344 OA
HETATM   26  H12 UNL     1      29.756  -3.860  53.733  1.00  0.00     0.219 HD
ENDBRANCH  22  25
ENDBRANCH  12  20
ENDBRANCH   7   8
ENDBRANCH   5   6
TORSDOF 5
ENDMDL
MODEL 3
REMARK VINA RESULT:      -7.8      3.684      5.737
REMARK  5 active torsions:
REMARK  status: ('A' for Active; 'I' for Inactive)
REMARK    1  A    between atoms: C4_5  and  C5_6 
REMARK    2  A    between atoms: C6_7  and  C7_8 
REMARK    3  A    between atoms: C9_10  and  C10_11 
REMARK    4  A    between atoms: N2_19  and  C16_20 
REMARK    5  A    between atoms: C17_22  and  O1_23 
ROOT
HETATM    1  C1  UNL     1      23.049   5.394  48.009  1.00  0.00     0.019 C 
HETATM    2  C2  UNL     1      22.811   5.783  49.132  1.00  0.00    -0.065 C 
HETATM    3  C3  UNL     1      22.519   6.235  50.461  1.00  0.00     0.086 C 
HETATM    4 CL1  UNL     1      21.749   7.769  50.806  1.00  0.00    -0.074 Cl
HETATM    5  C4  UNL     1      22.854   5.446  51.471  1.00  0.00     0.033 C 
ENDROOT
BRANCH   5   6
HETATM    6  C5  UNL     1      23.508   4.146  51.202  1.00  0.00     0.000 C 
HETATM    7  C6  UNL     1      24.384   3.607  52.069  1.00  0.00     0.001 C 
BRANCH   7   8
HETATM    8  C7  UNL     1      24.973   2.305  51.690  1.00  0.00     0.141 C 
HETATM    9  C8  UNL     1      23.902   1.279  51.287  1.00  0.00     0.093 C 
HETATM   10  C9  UNL     1      23.459   0.819  52.631  1.00  0.00     0.067 C 
HETATM   11  N1  UNL     1      24.422   1.052  53.475  1.00  0.00    -0.173 NA
HETATM   12  N2  UNL     1      25.518   1.640  52.851  1.00  0.00    -0.237 N 
BRANCH  10  13
HETATM   13  C10 UNL     1      22.149   0.219  52.876  1.00  0.00    -0.010 A 
HETATM   14  C11 UNL     1      21.948  -0.740  53.867  1.00  0.00     0.015 A 
HETATM   15  C12 UNL     1      20.695  -1.283  54.066  1.00  0.00     0.020 A 
HETATM   16  C13 UNL     1      19.678  -0.833  53.249  1.00  0.00     0.011 A 
HETATM   17 BR1  UNL     1      17.940  -1.604  53.544  1.00  0.00    -0.051 Br
HETATM   18  C14 UNL     1      19.843   0.124  52.250  1.00  0.00     0.020 A 
HETATM   19  C15 UNL     1      21.110   0.648  52.076  1.00  0.00     0.015 A 
ENDBRANCH  10  13
BRANCH  12  20
HETATM   20  C16 UNL     1      26.873   1.509  53.371  1.00  0.00     0.192 A 
HETATM   21  N3  UNL     1      27.721   2.077  53.893  1.00  0.00    -0.198 NA
HETATM   22  C17 UNL     1      28.912   1.611  54.215  1.00  0.00     0.171 A 
HETATM   23  C18 UNL     1      29.178   0.280  53.888  1.00  0.00     0.111 A 
HETATM   24  S1  UNL     1      27.600  -0.217  53.101  1.00  0.00    -0.058 SA
BRANCH  22  25
HETATM   25  O1  UNL     1      29.817   2.482  54.858  1.00  0.00    -0.344 OA
HETATM   26  H12 UNL     1      30.354   3.159  54.331  1.00  0.00     0.219 HD
ENDBRANCH  22  25
ENDBRANCH  12  20
ENDBRANCH   7   8
ENDBRANCH   5   6
TORSDOF 5
ENDMDL
MODEL 4
REMARK VINA RESULT:      -7.7      1.305      2.067
REMARK  5 active torsions:
REMARK  status: ('A' for Active; 'I' for Inactive)
REMARK    1  A    between atoms: C4_5  and  C5_6 
REMARK    2  A    between atoms: C6_7  and  C7_8 
REMARK    3  A    between atoms: C9_10  and  C10_11 
REMARK    4  A    between atoms: N2_19  and  C16_20 
REMARK    5  A    between atoms: C17_22  and  O1_23 
ROOT
HETATM    1  C1  UNL     1      21.619  -1.499  54.661  1.00  0.00     0.019 C 
HETATM    2  C2  UNL     1      20.917  -0.905  53.871  1.00  0.00    -0.065 C 
HETATM    3  C3  UNL     1      20.084  -0.194  52.946  1.00  0.00     0.086 C 
HETATM    4 CL1  UNL     1      18.541  -0.799  52.384  1.00  0.00    -0.074 Cl
HETATM    5  C4  UNL     1      20.513   0.978  52.499  1.00  0.00     0.033 C 
ENDROOT
BRANCH   5   6
HETATM    6  C5  UNL     1      21.816   1.506  52.960  1.00  0.00     0.000 C 
HETATM    7  C6  UNL     1      22.911   1.455  52.179  1.00  0.00     0.001 C 
BRANCH   7   8
HETATM    8  C7  UNL     1      24.156   2.013  52.750  1.00  0.00     0.141 C 
HETATM    9  C8  UNL     1      24.340   3.498  52.396  1.00  0.00     0.093 C 
HETATM   10  C9  UNL     1      24.888   3.374  51.018  1.00  0.00     0.067 C 
HETATM   11  N1  UNL     1      25.426   2.194  50.902  1.00  0.00    -0.173 NA
HETATM   12  N2  UNL     1      25.310   1.461  52.079  1.00  0.00    -0.237 N 
BRANCH  10  13
HETATM   13  C10 UNL     1      24.796   4.443  50.025  1.00  0.00    -0.010 A 
HETATM   14  C11 UNL     1      25.887   5.246  49.699  1.00  0.00     0.015 A 
HETATM   15  C12 UNL     1      25.758   6.245  48.756  1.00  0.00     0.020 A 
HETATM   16  C13 UNL     1      24.519   6.400  48.169  1.00  0.00     0.011 A 
HETATM   17 BR1  UNL     1      24.363   7.800  46.859  1.00  0.00    -0.051 Br
HETATM   18  C14 UNL     1      23.407   5.616  48.472  1.00  0.00     0.020 A 
HETATM   19  C15 UNL     1      23.570   4.623  49.420  1.00  0.00     0.015 A 
ENDBRANCH  10  13
BRANCH  12  20
HETATM   20  C16 UNL     1      26.245   0.401  52.430  1.00  0.00     0.192 A 
HETATM   21  N3  UNL     1      26.394  -0.737  52.434  1.00  0.00    -0.198 NA
HETATM   22  C17 UNL     1      27.439  -1.403  52.884  1.00  0.00     0.171 A 
HETATM   23  C18 UNL     1      28.487  -0.647  53.415  1.00  0.00     0.111 A 
HETATM   24  S1  UNL     1      27.841   1.055  53.210  1.00  0.00    -0.058 SA
BRANCH  22  25
HETATM   25  O1  UNL     1      27.422  -2.811  52.794  1.00  0.00    -0.344 OA
HETATM   26  H12 UNL     1      26.856  -3.283  52.101  1.00  0.00     0.219 HD
ENDBRANCH  22  25
ENDBRANCH  12  20
ENDBRANCH   7   8
ENDBRANCH   5   6
TORSDOF 5
ENDMDL
MODEL 5
REMARK VINA RESULT:      -7.6      4.847      6.891
REMARK  5 active torsions:
REMARK  status: ('A' for Active; 'I' for Inactive)
REMARK    1  A    between atoms: C4_5  and  C5_6 
REMARK    2  A    between atoms: C6_7  and  C7_8 
REMARK    3  A    between atoms: C9_10  and  C10_11 
REMARK    4  A    between atoms: N2_19  and  C16_20 
REMARK    5  A    between atoms: C17_22  and  O1_23 
ROOT
HETATM    1  C1  UNL     1      19.076   3.357  48.332  1.00  0.00     0.019 C 
HETATM    2  C2  UNL     1      20.206   3.369  47.892  1.00  0.00    -0.065 C 
HETATM    3  C3  UNL     1      21.543   3.395  47.376  1.00  0.00     0.086 C 
HETATM    4 CL1  UNL     1      21.910   3.524  45.670  1.00  0.00    -0.074 Cl
HETATM    5  C4  UNL     1      22.543   3.315  48.242  1.00  0.00     0.033 C 
ENDROOT
BRANCH   5   6
HETATM    6  C5  UNL     1      22.254   3.203  49.689  1.00  0.00     0.000 C 
HETATM    7  C6  UNL     1      22.528   2.078  50.375  1.00  0.00     0.001 C 
BRANCH   7   8
HETATM    8  C7  UNL     1      22.193   2.085  51.815  1.00  0.00     0.141 C 
HETATM    9  C8  UNL     1      23.445   2.197  52.700  1.00  0.00     0.093 C 
HETATM   10  C9  UNL     1      23.900   0.780  52.693  1.00  0.00     0.067 C 
HETATM   11  N1  UNL     1      22.873   0.028  52.419  1.00  0.00    -0.173 NA
HETATM   12  N2  UNL     1      21.721   0.785  52.229  1.00  0.00    -0.237 N 
BRANCH  10  13
HETATM   13  C10 UNL     1      25.283   0.386  52.957  1.00  0.00    -0.010 A 
HETATM   14  C11 UNL     1      25.743  -0.906  52.712  1.00  0.00     0.015 A 
HETATM   15  C12 UNL     1      27.056  -1.238  52.977  1.00  0.00     0.020 A 
HETATM   16  C13 UNL     1      27.867  -0.243  53.484  1.00  0.00     0.011 A 
HETATM   17 BR1  UNL     1      29.693  -0.730  53.845  1.00  0.00    -0.051 Br
HETATM   18  C14 UNL     1      27.439   1.058  53.741  1.00  0.00     0.020 A 
HETATM   19  C15 UNL     1      26.118   1.359  53.465  1.00  0.00     0.015 A 
ENDBRANCH  10  13
BRANCH  12  20
HETATM   20  C16 UNL     1      20.388   0.242  52.458  1.00  0.00     0.192 A 
HETATM   21  N3  UNL     1      19.738  -0.320  53.217  1.00  0.00    -0.198 NA
HETATM   22  C17 UNL     1      18.482  -0.694  53.068  1.00  0.00     0.171 A 
HETATM   23  C18 UNL     1      17.869  -0.374  51.855  1.00  0.00     0.111 A 
HETATM   24  S1  UNL     1      19.229   0.488  50.983  1.00  0.00    -0.058 SA
BRANCH  22  25
HETATM   25  O1  UNL     1      17.860  -1.381  54.133  1.00  0.00    -0.344 OA
HETATM   26  H12 UNL     1      18.401  -1.934  54.784  1.00  0.00     0.219 HD
ENDBRANCH  22  25
ENDBRANCH  12  20
ENDBRANCH   7   8
ENDBRANCH   5   6
TORSDOF 5
ENDMDL
MODEL 6
REMARK VINA RESULT:      -7.6      3.161      4.713
REMARK  5 active torsions:
REMARK  status: ('A' for Active; 'I' for Inactive)
REMARK    1  A    between atoms: C4_5  and  C5_6 
REMARK    2  A    between atoms: C6_7  and  C7_8 
REMARK    3  A    between atoms: C9_10  and  C10_11 
REMARK    4  A    between atoms: N2_19  and  C16_20 
REMARK    5  A    between atoms: C17_22  and  O1_23 
ROOT
HETATM    1  C1  UNL     1      22.685   6.696  46.824  1.00  0.00     0.019 C 
HETATM    2  C2  UNL     1      22.313   5.575  46.553  1.00  0.00    -0.065 C 
HETATM    3  C3  UNL     1      21.886   4.245  46.231  1.00  0.00     0.086 C 
HETATM    4 CL1  UNL     1      21.201   3.806  44.680  1.00  0.00    -0.074 Cl
HETATM    5  C4  UNL     1      22.018   3.309  47.159  1.00  0.00     0.033 C 
ENDROOT
BRANCH   5   6
HETATM    6  C5  UNL     1      22.592   3.659  48.477  1.00  0.00     0.000 C 
HETATM    7  C6  UNL     1      23.088   2.717  49.300  1.00  0.00     0.001 C 
BRANCH   7   8
HETATM    8  C7  UNL     1      23.633   3.189  50.591  1.00  0.00     0.141 C 
HETATM    9  C8  UNL     1      24.299   4.568  50.470  1.00  0.00     0.093 C 
HETATM   10  C9  UNL     1      25.625   4.172  49.921  1.00  0.00     0.067 C 
HETATM   11  N1  UNL     1      25.840   2.929  50.241  1.00  0.00    -0.173 NA
HETATM   12  N2  UNL     1      24.781   2.399  50.973  1.00  0.00    -0.237 N 
BRANCH  10  13
HETATM   13  C10 UNL     1      26.478   5.085  49.162  1.00  0.00    -0.010 A 
HETATM   14  C11 UNL     1      27.795   4.768  48.835  1.00  0.00     0.015 A 
HETATM   15  C12 UNL     1      28.567   5.658  48.118  1.00  0.00     0.020 A 
HETATM   16  C13 UNL     1      27.977   6.850  47.751  1.00  0.00     0.011 A 
HETATM   17 BR1  UNL     1      29.073   8.076  46.753  1.00  0.00    -0.051 Br
HETATM   18  C14 UNL     1      26.664   7.200  48.062  1.00  0.00     0.020 A 
HETATM   19  C15 UNL     1      25.916   6.286  48.781  1.00  0.00     0.015 A 
ENDBRANCH  10  13
BRANCH  12  20
HETATM   20  C16 UNL     1      24.955   1.291  51.902  1.00  0.00     0.192 A 
HETATM   21  N3  UNL     1      25.703   0.503  52.269  1.00  0.00    -0.198 NA
HETATM   22  C17 UNL     1      25.496  -0.430  53.179  1.00  0.00     0.171 A 
HETATM   23  C18 UNL     1      24.228  -0.469  53.764  1.00  0.00     0.111 A 
HETATM   24  S1  UNL     1      23.396   0.920  52.907  1.00  0.00    -0.058 SA
BRANCH  22  25
HETATM   25  O1  UNL     1      26.558  -1.306  53.489  1.00  0.00    -0.344 OA
HETATM   26  H12 UNL     1      27.126  -1.716  52.760  1.00  0.00     0.219 HD
ENDBRANCH  22  25
ENDBRANCH  12  20
ENDBRANCH   7   8
ENDBRANCH   5   6
TORSDOF 5
ENDMDL
MODEL 7
REMARK VINA RESULT:      -7.3      5.723      8.657
REMARK  5 active torsions:
REMARK  status: ('A' for Active; 'I' for Inactive)
REMARK    1  A    between atoms: C4_5  and  C5_6 
REMARK    2  A    between atoms: C6_7  and  C7_8 
REMARK    3  A    between atoms: C9_10  and  C10_11 
REMARK    4  A    between atoms: N2_19  and  C16_20 
REMARK    5  A    between atoms: C17_22  and  O1_23 
ROOT
HETATM    1  C1  UNL     1      27.351   8.057  47.744  1.00  0.00     0.019 C 
HETATM    2  C2  UNL     1      27.817   6.961  47.972  1.00  0.00    -0.065 C 
HETATM    3  C3  UNL     1      28.366   5.668  48.256  1.00  0.00     0.086 C 
HETATM    4 CL1  UNL     1      30.049   5.262  47.994  1.00  0.00    -0.074 Cl
HETATM    5  C4  UNL     1      27.553   4.740  48.739  1.00  0.00     0.033 C 
ENDROOT
BRANCH   5   6
HETATM    6  C5  UNL     1      26.126   5.062  48.965  1.00  0.00     0.000 C 
HETATM    7  C6  UNL     1      25.228   4.104  49.261  1.00  0.00     0.001 C 
BRANCH   7   8
HETATM    8  C7  UNL     1      23.832   4.547  49.464  1.00  0.00     0.141 C 
HETATM    9  C8  UNL     1      23.288   4.134  50.841  1.00  0.00     0.093 C 
HETATM   10  C9  UNL     1      22.922   2.718  50.566  1.00  0.00     0.067 C 
HETATM   11  N1  UNL     1      22.736   2.591  49.283  1.00  0.00    -0.173 NA
HETATM   12  N2  UNL     1      22.937   3.796  48.616  1.00  0.00    -0.237 N 
BRANCH  10  13
HETATM   13  C10 UNL     1      22.814   1.705  51.614  1.00  0.00    -0.010 A 
HETATM   14  C11 UNL     1      21.645   0.973  51.818  1.00  0.00     0.015 A 
HETATM   15  C12 UNL     1      21.583   0.026  52.819  1.00  0.00     0.020 A 
HETATM   16  C13 UNL     1      22.715  -0.153  53.587  1.00  0.00     0.011 A 
HETATM   17 BR1  UNL     1      22.605  -1.478  54.977  1.00  0.00    -0.051 Br
HETATM   18  C14 UNL     1      23.899   0.561  53.411  1.00  0.00     0.020 A 
HETATM   19  C15 UNL     1      23.929   1.503  52.399  1.00  0.00     0.015 A 
ENDBRANCH  10  13
BRANCH  12  20
HETATM   20  C16 UNL     1      22.293   4.096  47.344  1.00  0.00     0.192 A 
HETATM   21  N3  UNL     1      22.101   3.692  46.288  1.00  0.00    -0.198 NA
HETATM   22  C17 UNL     1      21.447   4.292  45.312  1.00  0.00     0.171 A 
HETATM   23  C18 UNL     1      20.928   5.559  45.586  1.00  0.00     0.111 A 
HETATM   24  S1  UNL     1      21.455   5.792  47.325  1.00  0.00    -0.058 SA
BRANCH  22  25
HETATM   25  O1  UNL     1      21.322   3.616  44.079  1.00  0.00    -0.344 OA
HETATM   26  H12 UNL     1      20.946   2.678  44.035  1.00  0.00     0.219 HD
ENDBRANCH  22  25
ENDBRANCH  12  20
ENDBRANCH   7   8
ENDBRANCH   5   6
TORSDOF 5
ENDMDL
MODEL 8
REMARK VINA RESULT:      -7.1      2.652      3.429
REMARK  5 active torsions:
REMARK  status: ('A' for Active; 'I' for Inactive)
REMARK    1  A    between atoms: C4_5  and  C5_6 
REMARK    2  A    between atoms: C6_7  and  C7_8 
REMARK    3  A    between atoms: C9_10  and  C10_11 
REMARK    4  A    between atoms: N2_19  and  C16_20 
REMARK    5  A    between atoms: C17_22  and  O1_23 
ROOT
HETATM    1  C1  UNL     1      22.557  -1.000  55.219  1.00  0.00     0.019 C 
HETATM    2  C2  UNL     1      21.567  -0.903  54.526  1.00  0.00    -0.065 C 
HETATM    3  C3  UNL     1      20.392  -0.779  53.714  1.00  0.00     0.086 C 
HETATM    4 CL1  UNL     1      19.153  -2.012  53.627  1.00  0.00    -0.074 Cl
HETATM    5  C4  UNL     1      20.246   0.326  52.998  1.00  0.00     0.033 C 
ENDROOT
BRANCH   5   6
HETATM    6  C5  UNL     1      21.283   1.380  53.056  1.00  0.00     0.000 C 
HETATM    7  C6  UNL     1      22.257   1.458  52.131  1.00  0.00     0.001 C 
BRANCH   7   8
HETATM    8  C7  UNL     1      23.237   2.553  52.295  1.00  0.00     0.141 C 
HETATM    9  C8  UNL     1      22.894   3.773  51.425  1.00  0.00     0.093 C 
HETATM   10  C9  UNL     1      23.438   3.325  50.115  1.00  0.00     0.067 C 
HETATM   11  N1  UNL     1      24.350   2.423  50.344  1.00  0.00    -0.173 NA
HETATM   12  N2  UNL     1      24.505   2.188  51.707  1.00  0.00    -0.237 N 
BRANCH  10  13
HETATM   13  C10 UNL     1      22.973   3.855  48.835  1.00  0.00    -0.010 A 
HETATM   14  C11 UNL     1      23.123   5.198  48.492  1.00  0.00     0.015 A 
HETATM   15  C12 UNL     1      22.670   5.659  47.274  1.00  0.00     0.020 A 
HETATM   16  C13 UNL     1      22.075   4.740  46.434  1.00  0.00     0.011 A 
HETATM   17 BR1  UNL     1      21.449   5.406  44.742  1.00  0.00    -0.051 Br
HETATM   18  C14 UNL     1      21.908   3.391  46.745  1.00  0.00     0.020 A 
HETATM   19  C15 UNL     1      22.374   2.960  47.974  1.00  0.00     0.015 A 
ENDBRANCH  10  13
BRANCH  12  20
HETATM   20  C16 UNL     1      25.753   1.692  52.273  1.00  0.00     0.192 A 
HETATM   21  N3  UNL     1      26.862   1.941  52.424  1.00  0.00    -0.198 NA
HETATM   22  C17 UNL     1      27.776   1.190  53.006  1.00  0.00     0.171 A 
HETATM   23  C18 UNL     1      27.354  -0.049  53.497  1.00  0.00     0.111 A 
HETATM   24  S1  UNL     1      25.577  -0.023  53.053  1.00  0.00    -0.058 SA
BRANCH  22  25
HETATM   25  O1  UNL     1      29.094   1.687  53.090  1.00  0.00    -0.344 OA
HETATM   26  H12 UNL     1      29.567   1.763  53.981  1.00  0.00     0.219 HD
ENDBRANCH  22  25
ENDBRANCH  12  20
ENDBRANCH   7   8
ENDBRANCH   5   6
TORSDOF 5
ENDMDL
MODEL 9
REMARK VINA RESULT:      -7.0      3.848      5.958
REMARK  5 active torsions:
REMARK  status: ('A' for Active; 'I' for Inactive)
REMARK    1  A    between atoms: C4_5  and  C5_6 
REMARK    2  A    between atoms: C6_7  and  C7_8 
REMARK    3  A    between atoms: C9_10  and  C10_11 
REMARK    4  A    between atoms: N2_19  and  C16_20 
REMARK    5  A    between atoms: C17_22  and  O1_23 
ROOT
HETATM    1  C1  UNL     1      25.385   7.267  47.816  1.00  0.00     0.019 C 
HETATM    2  C2  UNL     1      26.523   6.930  48.065  1.00  0.00    -0.065 C 
HETATM    3  C3  UNL     1      27.865   6.530  48.373  1.00  0.00     0.086 C 
HETATM    4 CL1  UNL     1      29.236   7.614  48.271  1.00  0.00    -0.074 Cl
HETATM    5  C4  UNL     1      28.067   5.277  48.750  1.00  0.00     0.033 C 
ENDROOT
BRANCH   5   6
HETATM    6  C5  UNL     1      26.923   4.343  48.841  1.00  0.00     0.000 C 
HETATM    7  C6  UNL     1      26.519   3.839  50.022  1.00  0.00     0.001 C 
BRANCH   7   8
HETATM    8  C7  UNL     1      25.365   2.916  49.985  1.00  0.00     0.141 C 
HETATM    9  C8  UNL     1      24.119   3.570  49.366  1.00  0.00     0.093 C 
HETATM   10  C9  UNL     1      23.616   4.338  50.537  1.00  0.00     0.067 C 
HETATM   11  N1  UNL     1      24.079   3.778  51.618  1.00  0.00    -0.173 NA
HETATM   12  N2  UNL     1      24.871   2.672  51.321  1.00  0.00    -0.237 N 
BRANCH  10  13
HETATM   13  C10 UNL     1      22.754   5.512  50.409  1.00  0.00    -0.010 A 
HETATM   14  C11 UNL     1      23.205   6.797  50.706  1.00  0.00     0.015 A 
HETATM   15  C12 UNL     1      22.359   7.879  50.573  1.00  0.00     0.020 A 
HETATM   16  C13 UNL     1      21.074   7.623  50.140  1.00  0.00     0.011 A 
HETATM   17 BR1  UNL     1      19.912   9.146  49.963  1.00  0.00    -0.051 Br
HETATM   18  C14 UNL     1      20.590   6.352  49.835  1.00  0.00     0.020 A 
HETATM   19  C15 UNL     1      21.463   5.289  49.978  1.00  0.00     0.015 A 
ENDBRANCH  10  13
BRANCH  12  20
HETATM   20  C16 UNL     1      25.053   1.572  52.258  1.00  0.00     0.192 A 
HETATM   21  N3  UNL     1      25.841   0.968  52.831  1.00  0.00    -0.198 NA
HETATM   22  C17 UNL     1      25.631  -0.056  53.636  1.00  0.00     0.171 A 
HETATM   23  C18 UNL     1      24.304  -0.455  53.815  1.00  0.00     0.111 A 
HETATM   24  S1  UNL     1      23.423   0.747  52.750  1.00  0.00    -0.058 SA
BRANCH  22  25
HETATM   25  O1  UNL     1      26.748  -0.664  54.249  1.00  0.00    -0.344 OA
HETATM   26  H12 UNL     1      26.687  -1.597  54.634  1.00  0.00     0.219 HD
ENDBRANCH  22  25
ENDBRANCH  12  20
ENDBRANCH   7   8
ENDBRANCH   5   6
TORSDOF 5
ENDMDL
