MODEL 1
REMARK VINA RESULT:      -7.5      0.000      0.000
REMARK  6 active torsions:
REMARK  status: ('A' for Active; 'I' for Inactive)
REMARK    1  A    between atoms: C2_2  and  O1_3 
REMARK    2  A    between atoms: C2_2  and  C3_4 
REMARK    3  A    between atoms: C4_5  and  C5_6 
REMARK    4  A    between atoms: C11_12  and  C12_13 
REMARK    5  A    between atoms: C16_18  and  P1_19 
REMARK    6  A    between atoms: P1_19  and  O2_20 
ROOT
HETATM    1  C5  UNL     1      22.536   4.630  49.574  1.00  0.00     0.026 C 
HETATM    2  C6  UNL     1      22.140   5.567  50.672  1.00  0.00     0.038 C 
HETATM    3  C7  UNL     1      21.240   4.012  49.057  1.00  0.00     0.031 C 
HETATM    4  C8  UNL     1      21.493   2.887  48.097  1.00  0.00     0.008 C 
HETATM    5  C9  UNL     1      22.325   1.772  48.641  1.00  0.00     0.056 C 
HETATM    6  C10 UNL     1      22.733   2.153  50.039  1.00  0.00     0.002 C 
HETATM    7  C11 UNL     1      22.685   1.297  51.044  1.00  0.00     0.009 C 
HETATM    8  N2  UNL     1      23.184   3.481  50.276  1.00  0.00    -0.385 N 
HETATM    9  H29 UNL     1      23.985   3.636  50.958  1.00  0.00     0.160 HD
ENDROOT
BRANCH   7  10
HETATM   10  C12 UNL     1      23.075   1.608  52.459  1.00  0.00     0.063 C 
HETATM   11  C13 UNL     1      22.409   0.641  53.422  1.00  0.00     0.133 C 
HETATM   12  N1  UNL     1      23.288  -0.525  53.252  1.00  0.00    -0.388 N 
HETATM   13  C14 UNL     1      24.613   0.017  53.119  1.00  0.00     0.036 A 
HETATM   14  H23 UNL     1      22.995  -1.516  53.236  1.00  0.00     0.159 HD
HETATM   15  C15 UNL     1      25.826  -0.594  53.404  1.00  0.00     0.043 A 
HETATM   16  C19 UNL     1      24.505   1.309  52.640  1.00  0.00    -0.022 A 
HETATM   17  C16 UNL     1      26.974   0.162  53.184  1.00  0.00    -0.005 A 
HETATM   18  C17 UNL     1      26.860   1.451  52.705  1.00  0.00     0.015 A 
HETATM   19  C18 UNL     1      25.650   2.053  52.425  1.00  0.00     0.011 A 
BRANCH  17  20
HETATM   20  P1  UNL     1      28.649  -0.503  53.510  1.00  0.00     0.042 P 
HETATM   21  H25 UNL     1      28.587  -1.185  54.793  1.00  0.00     0.092 HD
BRANCH  20  22
HETATM   22  O2  UNL     1      29.856   0.714  53.521  1.00  0.00    -0.371 OA
HETATM   23  H26 UNL     1      30.602   0.415  52.943  1.00  0.00     0.215 HD
ENDBRANCH  20  22
ENDBRANCH  17  20
ENDBRANCH   7  10
BRANCH   1  24
HETATM   24  C4  UNL     1      23.446   5.068  48.534  1.00  0.00     0.033 C 
HETATM   25  C3  UNL     1      24.653   5.848  48.675  1.00  0.00     0.034 C 
BRANCH  25  26
HETATM   26  C2  UNL     1      25.832   5.473  49.463  1.00  0.00     0.114 C 
HETATM   27  C1  UNL     1      26.375   4.087  49.288  1.00  0.00     0.039 C 
BRANCH  26  28
HETATM   28  O1  UNL     1      25.505   5.588  50.850  1.00  0.00    -0.396 OA
HETATM   29  H5  UNL     1      26.055   4.890  51.290  1.00  0.00     0.210 HD
ENDBRANCH  26  28
ENDBRANCH  25  26
ENDBRANCH   1  24
TORSDOF 6
ENDMDL
MODEL 2
REMARK VINA RESULT:      -7.1      4.172      6.402
REMARK  6 active torsions:
REMARK  status: ('A' for Active; 'I' for Inactive)
REMARK    1  A    between atoms: C2_2  and  O1_3 
REMARK    2  A    between atoms: C2_2  and  C3_4 
REMARK    3  A    between atoms: C4_5  and  C5_6 
REMARK    4  A    between atoms: C11_12  and  C12_13 
REMARK    5  A    between atoms: C16_18  and  P1_19 
REMARK    6  A    between atoms: P1_19  and  O2_20 
ROOT
HETATM    1  C5  UNL     1      26.252   0.799  52.344  1.00  0.00     0.026 C 
HETATM    2  C6  UNL     1      26.606  -0.655  52.328  1.00  0.00     0.038 C 
HETATM    3  C7  UNL     1      26.292   1.228  53.808  1.00  0.00     0.031 C 
HETATM    4  C8  UNL     1      25.748   2.612  54.006  1.00  0.00     0.008 C 
HETATM    5  C9  UNL     1      24.347   2.812  53.527  1.00  0.00     0.056 C 
HETATM    6  C10 UNL     1      23.895   1.519  52.903  1.00  0.00     0.002 C 
HETATM    7  C11 UNL     1      22.700   1.006  53.135  1.00  0.00     0.009 C 
HETATM    8  N2  UNL     1      24.790   0.834  52.036  1.00  0.00    -0.385 N 
HETATM    9  H29 UNL     1      24.400   0.352  51.173  1.00  0.00     0.160 HD
ENDROOT
BRANCH   7  10
HETATM   10  C12 UNL     1      22.184  -0.276  52.548  1.00  0.00     0.063 C 
HETATM   11  C13 UNL     1      22.129  -1.363  53.606  1.00  0.00     0.133 C 
HETATM   12  N1  UNL     1      20.889  -0.978  54.295  1.00  0.00    -0.388 N 
HETATM   13  C14 UNL     1      20.001  -0.533  53.255  1.00  0.00     0.036 A 
HETATM   14  H23 UNL     1      20.714  -1.026  55.313  1.00  0.00     0.159 HD
HETATM   15  C15 UNL     1      18.614  -0.512  53.258  1.00  0.00     0.043 A 
HETATM   16  C19 UNL     1      20.767  -0.103  52.188  1.00  0.00    -0.022 A 
HETATM   17  C16 UNL     1      17.994  -0.026  52.111  1.00  0.00    -0.005 A 
HETATM   18  C17 UNL     1      18.764   0.401  51.049  1.00  0.00     0.015 A 
HETATM   19  C18 UNL     1      20.143   0.377  51.052  1.00  0.00     0.011 A 
BRANCH  17  20
HETATM   20  P1  UNL     1      16.170   0.067  51.960  1.00  0.00     0.042 P 
HETATM   21  H25 UNL     1      15.855   1.413  51.510  1.00  0.00     0.092 HD
BRANCH  20  22
HETATM   22  O2  UNL     1      15.364  -0.293  53.430  1.00  0.00    -0.371 OA
HETATM   23  H26 UNL     1      14.878  -1.148  53.314  1.00  0.00     0.215 HD
ENDBRANCH  20  22
ENDBRANCH  17  20
ENDBRANCH   7  10
BRANCH   1  24
HETATM   24  C4  UNL     1      26.906   1.718  51.434  1.00  0.00     0.033 C 
HETATM   25  C3  UNL     1      26.319   2.472  50.351  1.00  0.00     0.034 C 
BRANCH  25  26
HETATM   26  C2  UNL     1      25.242   3.459  50.476  1.00  0.00     0.114 C 
HETATM   27  C1  UNL     1      24.195   3.491  49.403  1.00  0.00     0.039 C 
BRANCH  26  28
HETATM   28  O1  UNL     1      25.823   4.765  50.488  1.00  0.00    -0.396 OA
HETATM   29  H5  UNL     1      25.936   4.974  51.452  1.00  0.00     0.210 HD
ENDBRANCH  26  28
ENDBRANCH  25  26
ENDBRANCH   1  24
TORSDOF 6
ENDMDL
MODEL 3
REMARK VINA RESULT:      -7.1      3.667      7.047
REMARK  6 active torsions:
REMARK  status: ('A' for Active; 'I' for Inactive)
REMARK    1  A    between atoms: C2_2  and  O1_3 
REMARK    2  A    between atoms: C2_2  and  C3_4 
REMARK    3  A    between atoms: C4_5  and  C5_6 
REMARK    4  A    between atoms: C11_12  and  C12_13 
REMARK    5  A    between atoms: C16_18  and  P1_19 
REMARK    6  A    between atoms: P1_19  and  O2_20 
ROOT
HETATM    1  C5  UNL     1      24.143   1.368  52.759  1.00  0.00     0.026 C 
HETATM    2  C6  UNL     1      22.861   2.090  52.483  1.00  0.00     0.038 C 
HETATM    3  C7  UNL     1      24.853   2.167  53.847  1.00  0.00     0.031 C 
HETATM    4  C8  UNL     1      26.255   1.685  54.079  1.00  0.00     0.008 C 
HETATM    5  C9  UNL     1      27.135   1.707  52.872  1.00  0.00     0.056 C 
HETATM    6  C10 UNL     1      26.297   2.173  51.711  1.00  0.00     0.002 C 
HETATM    7  C11 UNL     1      26.737   3.061  50.838  1.00  0.00     0.009 C 
HETATM    8  N2  UNL     1      24.991   1.633  51.558  1.00  0.00    -0.385 N 
HETATM    9  H29 UNL     1      24.634   1.424  50.578  1.00  0.00     0.160 HD
ENDROOT
BRANCH   7  10
HETATM   10  C12 UNL     1      25.958   3.569  49.660  1.00  0.00     0.063 C 
HETATM   11  C13 UNL     1      24.521   3.860  50.055  1.00  0.00     0.133 C 
HETATM   12  N1  UNL     1      24.703   5.160  50.716  1.00  0.00    -0.388 N 
HETATM   13  C14 UNL     1      25.695   5.846  49.934  1.00  0.00     0.036 A 
HETATM   14  H23 UNL     1      24.210   5.491  51.563  1.00  0.00     0.159 HD
HETATM   15  C15 UNL     1      25.897   7.214  49.807  1.00  0.00     0.043 A 
HETATM   16  C19 UNL     1      26.465   4.899  49.287  1.00  0.00    -0.022 A 
HETATM   17  C16 UNL     1      26.939   7.617  48.977  1.00  0.00    -0.005 A 
HETATM   18  C17 UNL     1      27.704   6.667  48.334  1.00  0.00     0.015 A 
HETATM   19  C18 UNL     1      27.498   5.308  48.463  1.00  0.00     0.011 A 
BRANCH  17  20
HETATM   20  P1  UNL     1      27.333   9.385  48.707  1.00  0.00     0.042 P 
HETATM   21  H25 UNL     1      28.261   9.442  47.589  1.00  0.00     0.092 HD
BRANCH  20  22
HETATM   22  O2  UNL     1      27.999  10.136  50.096  1.00  0.00    -0.371 OA
HETATM   23  H26 UNL     1      28.796  10.653  49.816  1.00  0.00     0.215 HD
ENDBRANCH  20  22
ENDBRANCH  17  20
ENDBRANCH   7  10
BRANCH   1  24
HETATM   24  C4  UNL     1      24.139  -0.065  52.976  1.00  0.00     0.033 C 
HETATM   25  C3  UNL     1      23.376  -0.821  53.942  1.00  0.00     0.034 C 
BRANCH  25  26
HETATM   26  C2  UNL     1      21.913  -0.865  54.036  1.00  0.00     0.114 C 
HETATM   27  C1  UNL     1      21.231   0.218  54.817  1.00  0.00     0.039 C 
BRANCH  26  28
HETATM   28  O1  UNL     1      21.536  -2.092  54.666  1.00  0.00    -0.396 OA
HETATM   29  H5  UNL     1      20.855  -2.480  54.057  1.00  0.00     0.210 HD
ENDBRANCH  26  28
ENDBRANCH  25  26
ENDBRANCH   1  24
TORSDOF 6
ENDMDL
MODEL 4
REMARK VINA RESULT:      -7.0      2.775      6.465
REMARK  6 active torsions:
REMARK  status: ('A' for Active; 'I' for Inactive)
REMARK    1  A    between atoms: C2_2  and  O1_3 
REMARK    2  A    between atoms: C2_2  and  C3_4 
REMARK    3  A    between atoms: C4_5  and  C5_6 
REMARK    4  A    between atoms: C11_12  and  C12_13 
REMARK    5  A    between atoms: C16_18  and  P1_19 
REMARK    6  A    between atoms: P1_19  and  O2_20 
ROOT
HETATM    1  C5  UNL     1      25.613   0.617  52.685  1.00  0.00     0.026 C 
HETATM    2  C6  UNL     1      26.526  -0.084  51.730  1.00  0.00     0.038 C 
HETATM    3  C7  UNL     1      24.378  -0.269  52.819  1.00  0.00     0.031 C 
HETATM    4  C8  UNL     1      23.276   0.408  53.579  1.00  0.00     0.008 C 
HETATM    5  C9  UNL     1      22.822   1.710  53.004  1.00  0.00     0.056 C 
HETATM    6  C10 UNL     1      23.688   2.001  51.807  1.00  0.00     0.002 C 
HETATM    7  C11 UNL     1      23.188   2.445  50.668  1.00  0.00     0.009 C 
HETATM    8  N2  UNL     1      25.090   1.787  51.916  1.00  0.00    -0.385 N 
HETATM    9  H29 UNL     1      25.751   2.471  51.442  1.00  0.00     0.160 HD
ENDROOT
BRANCH   7  10
HETATM   10  C12 UNL     1      23.990   2.755  49.438  1.00  0.00     0.063 C 
HETATM   11  C13 UNL     1      23.102   2.753  48.207  1.00  0.00     0.133 C 
HETATM   12  N1  UNL     1      22.479   4.077  48.346  1.00  0.00    -0.388 N 
HETATM   13  C14 UNL     1      23.523   4.935  48.838  1.00  0.00     0.036 A 
HETATM   14  H23 UNL     1      21.497   4.319  48.129  1.00  0.00     0.159 HD
HETATM   15  C15 UNL     1      23.641   6.311  48.704  1.00  0.00     0.043 A 
HETATM   16  C19 UNL     1      24.447   4.153  49.503  1.00  0.00    -0.022 A 
HETATM   17  C16 UNL     1      24.761   6.902  49.282  1.00  0.00    -0.005 A 
HETATM   18  C17 UNL     1      25.681   6.115  49.944  1.00  0.00     0.015 A 
HETATM   19  C18 UNL     1      25.558   4.747  50.073  1.00  0.00     0.011 A 
BRANCH  17  20
HETATM   20  P1  UNL     1      25.059   8.707  49.192  1.00  0.00     0.042 P 
HETATM   21  H25 UNL     1      25.802   8.948  47.965  1.00  0.00     0.092 HD
BRANCH  20  22
HETATM   22  O2  UNL     1      25.911   9.307  50.553  1.00  0.00    -0.371 OA
HETATM   23  H26 UNL     1      26.692   8.720  50.713  1.00  0.00     0.215 HD
ENDBRANCH  20  22
ENDBRANCH  17  20
ENDBRANCH   7  10
BRANCH   1  24
HETATM   24  C4  UNL     1      26.124   1.124  53.943  1.00  0.00     0.033 C 
HETATM   25  C3  UNL     1      27.431   0.920  54.523  1.00  0.00     0.034 C 
BRANCH  25  26
HETATM   26  C2  UNL     1      28.710   1.307  53.918  1.00  0.00     0.114 C 
HETATM   27  C1  UNL     1      29.717   0.226  53.663  1.00  0.00     0.039 C 
BRANCH  26  28
HETATM   28  O1  UNL     1      29.357   2.242  54.785  1.00  0.00    -0.396 OA
HETATM   29  H5  UNL     1      29.267   1.841  55.688  1.00  0.00     0.210 HD
ENDBRANCH  26  28
ENDBRANCH  25  26
ENDBRANCH   1  24
TORSDOF 6
ENDMDL
MODEL 5
REMARK VINA RESULT:      -7.0      2.538      4.765
REMARK  6 active torsions:
REMARK  status: ('A' for Active; 'I' for Inactive)
REMARK    1  A    between atoms: C2_2  and  O1_3 
REMARK    2  A    between atoms: C2_2  and  C3_4 
REMARK    3  A    between atoms: C4_5  and  C5_6 
REMARK    4  A    between atoms: C11_12  and  C12_13 
REMARK    5  A    between atoms: C16_18  and  P1_19 
REMARK    6  A    between atoms: P1_19  and  O2_20 
ROOT
HETATM    1  C5  UNL     1      20.757   1.560  51.447  1.00  0.00     0.026 C 
HETATM    2  C6  UNL     1      20.742   0.614  50.288  1.00  0.00     0.038 C 
HETATM    3  C7  UNL     1      20.237   2.892  50.914  1.00  0.00     0.031 C 
HETATM    4  C8  UNL     1      20.397   4.001  51.911  1.00  0.00     0.008 C 
HETATM    5  C9  UNL     1      21.798   4.231  52.377  1.00  0.00     0.056 C 
HETATM    6  C10 UNL     1      22.668   3.192  51.722  1.00  0.00     0.002 C 
HETATM    7  C11 UNL     1      23.839   3.490  51.188  1.00  0.00     0.009 C 
HETATM    8  N2  UNL     1      22.205   1.848  51.680  1.00  0.00    -0.385 N 
HETATM    9  H29 UNL     1      22.905   1.060  51.816  1.00  0.00     0.160 HD
ENDROOT
BRANCH   7  10
HETATM   10  C12 UNL     1      24.756   2.507  50.521  1.00  0.00     0.063 C 
HETATM   11  C13 UNL     1      25.824   3.231  49.721  1.00  0.00     0.133 C 
HETATM   12  N1  UNL     1      26.738   3.608  50.810  1.00  0.00    -0.388 N 
HETATM   13  C14 UNL     1      26.735   2.488  51.711  1.00  0.00     0.036 A 
HETATM   14  H23 UNL     1      27.262   4.496  50.890  1.00  0.00     0.159 HD
HETATM   15  C15 UNL     1      27.721   2.101  52.607  1.00  0.00     0.043 A 
HETATM   16  C19 UNL     1      25.542   1.808  51.550  1.00  0.00    -0.022 A 
HETATM   17  C16 UNL     1      27.463   0.965  53.369  1.00  0.00    -0.005 A 
HETATM   18  C17 UNL     1      26.270   0.291  53.204  1.00  0.00     0.015 A 
HETATM   19  C18 UNL     1      25.294   0.680  52.310  1.00  0.00     0.011 A 
BRANCH  17  20
HETATM   20  P1  UNL     1      28.664   0.327  54.595  1.00  0.00     0.042 P 
HETATM   21  H25 UNL     1      29.748   1.295  54.663  1.00  0.00     0.092 HD
BRANCH  20  22
HETATM   22  O2  UNL     1      29.257  -1.231  54.196  1.00  0.00    -0.371 OA
HETATM   23  H26 UNL     1      28.611  -1.903  54.529  1.00  0.00     0.215 HD
ENDBRANCH  20  22
ENDBRANCH  17  20
ENDBRANCH   7  10
BRANCH   1  24
HETATM   24  C4  UNL     1      20.188   1.162  52.719  1.00  0.00     0.033 C 
HETATM   25  C3  UNL     1      20.125  -0.161  53.295  1.00  0.00     0.034 C 
BRANCH  25  26
HETATM   26  C2  UNL     1      21.275  -1.015  53.612  1.00  0.00     0.114 C 
HETATM   27  C1  UNL     1      21.959  -0.803  54.929  1.00  0.00     0.039 C 
BRANCH  26  28
HETATM   28  O1  UNL     1      22.280  -0.809  52.617  1.00  0.00    -0.396 OA
HETATM   29  H5  UNL     1      22.690  -1.705  52.494  1.00  0.00     0.210 HD
ENDBRANCH  26  28
ENDBRANCH  25  26
ENDBRANCH   1  24
TORSDOF 6
ENDMDL
MODEL 6
REMARK VINA RESULT:      -6.7      4.184      7.123
REMARK  6 active torsions:
REMARK  status: ('A' for Active; 'I' for Inactive)
REMARK    1  A    between atoms: C2_2  and  O1_3 
REMARK    2  A    between atoms: C2_2  and  C3_4 
REMARK    3  A    between atoms: C4_5  and  C5_6 
REMARK    4  A    between atoms: C11_12  and  C12_13 
REMARK    5  A    between atoms: C16_18  and  P1_19 
REMARK    6  A    between atoms: P1_19  and  O2_20 
ROOT
HETATM    1  C5  UNL     1      25.901   1.633  52.395  1.00  0.00     0.026 C 
HETATM    2  C6  UNL     1      26.407   2.292  51.150  1.00  0.00     0.038 C 
HETATM    3  C7  UNL     1      25.922   0.133  52.119  1.00  0.00     0.031 C 
HETATM    4  C8  UNL     1      25.239  -0.651  53.200  1.00  0.00     0.008 C 
HETATM    5  C9  UNL     1      23.816  -0.270  53.450  1.00  0.00     0.056 C 
HETATM    6  C10 UNL     1      23.492   0.884  52.539  1.00  0.00     0.002 C 
HETATM    7  C11 UNL     1      22.362   0.946  51.857  1.00  0.00     0.009 C 
HETATM    8  N2  UNL     1      24.439   1.938  52.415  1.00  0.00    -0.385 N 
HETATM    9  H29 UNL     1      24.086   2.938  52.337  1.00  0.00     0.160 HD
ENDROOT
BRANCH   7  10
HETATM   10  C12 UNL     1      21.974   2.063  50.933  1.00  0.00     0.063 C 
HETATM   11  C13 UNL     1      22.198   1.661  49.486  1.00  0.00     0.133 C 
HETATM   12  N1  UNL     1      21.001   0.835  49.269  1.00  0.00    -0.388 N 
HETATM   13  C14 UNL     1      19.946   1.502  49.982  1.00  0.00     0.036 A 
HETATM   14  H23 UNL     1      20.952  -0.039  48.717  1.00  0.00     0.159 HD
HETATM   15  C15 UNL     1      18.580   1.448  49.746  1.00  0.00     0.043 A 
HETATM   16  C19 UNL     1      20.516   2.252  50.994  1.00  0.00    -0.022 A 
HETATM   17  C16 UNL     1      17.769   2.199  50.593  1.00  0.00    -0.005 A 
HETATM   18  C17 UNL     1      18.344   2.945  51.602  1.00  0.00     0.015 A 
HETATM   19  C18 UNL     1      19.704   2.996  51.830  1.00  0.00     0.011 A 
BRANCH  17  20
HETATM   20  P1  UNL     1      15.947   2.231  50.413  1.00  0.00     0.042 P 
HETATM   21  H25 UNL     1      15.641   3.256  49.427  1.00  0.00     0.092 HD
BRANCH  20  22
HETATM   22  O2  UNL     1      15.139   2.541  51.892  1.00  0.00    -0.371 OA
HETATM   23  H26 UNL     1      15.098   1.696  52.406  1.00  0.00     0.215 HD
ENDBRANCH  20  22
ENDBRANCH  17  20
ENDBRANCH   7  10
BRANCH   1  24
HETATM   24  C4  UNL     1      26.438   2.011  53.688  1.00  0.00     0.033 C 
HETATM   25  C3  UNL     1      27.612   1.496  54.352  1.00  0.00     0.034 C 
BRANCH  25  26
HETATM   26  C2  UNL     1      28.984   1.550  53.837  1.00  0.00     0.114 C 
HETATM   27  C1  UNL     1      29.726   0.255  53.694  1.00  0.00     0.039 C 
BRANCH  26  28
HETATM   28  O1  UNL     1      29.770   2.351  54.722  1.00  0.00    -0.396 OA
HETATM   29  H5  UNL     1      30.708   2.136  54.479  1.00  0.00     0.210 HD
ENDBRANCH  26  28
ENDBRANCH  25  26
ENDBRANCH   1  24
TORSDOF 6
ENDMDL
MODEL 7
REMARK VINA RESULT:      -6.7      3.475      6.646
REMARK  6 active torsions:
REMARK  status: ('A' for Active; 'I' for Inactive)
REMARK    1  A    between atoms: C2_2  and  O1_3 
REMARK    2  A    between atoms: C2_2  and  C3_4 
REMARK    3  A    between atoms: C4_5  and  C5_6 
REMARK    4  A    between atoms: C11_12  and  C12_13 
REMARK    5  A    between atoms: C16_18  and  P1_19 
REMARK    6  A    between atoms: P1_19  and  O2_20 
ROOT
HETATM    1  C5  UNL     1      22.944   2.540  50.717  1.00  0.00     0.026 C 
HETATM    2  C6  UNL     1      22.427   2.008  49.417  1.00  0.00     0.038 C 
HETATM    3  C7  UNL     1      21.828   3.405  51.295  1.00  0.00     0.031 C 
HETATM    4  C8  UNL     1      22.279   4.181  52.496  1.00  0.00     0.008 C 
HETATM    5  C9  UNL     1      23.453   5.075  52.264  1.00  0.00     0.056 C 
HETATM    6  C10 UNL     1      23.894   4.879  50.838  1.00  0.00     0.002 C 
HETATM    7  C11 UNL     1      24.210   5.893  50.052  1.00  0.00     0.009 C 
HETATM    8  N2  UNL     1      23.970   3.553  50.328  1.00  0.00    -0.385 N 
HETATM    9  H29 UNL     1      24.767   3.302  49.670  1.00  0.00     0.160 HD
ENDROOT
BRANCH   7  10
HETATM   10  C12 UNL     1      24.656   5.770  48.625  1.00  0.00     0.063 C 
HETATM   11  C13 UNL     1      24.223   6.984  47.824  1.00  0.00     0.133 C 
HETATM   12  N1  UNL     1      25.255   7.942  48.245  1.00  0.00    -0.388 N 
HETATM   13  C14 UNL     1      26.467   7.175  48.342  1.00  0.00     0.036 A 
HETATM   14  H23 UNL     1      25.117   8.951  48.428  1.00  0.00     0.159 HD
HETATM   15  C15 UNL     1      27.777   7.617  48.233  1.00  0.00     0.043 A 
HETATM   16  C19 UNL     1      26.125   5.856  48.572  1.00  0.00    -0.022 A 
HETATM   17  C16 UNL     1      28.775   6.656  48.368  1.00  0.00    -0.005 A 
HETATM   18  C17 UNL     1      28.427   5.341  48.598  1.00  0.00     0.015 A 
HETATM   19  C18 UNL     1      27.122   4.907  48.704  1.00  0.00     0.011 A 
BRANCH  17  20
HETATM   20  P1  UNL     1      30.553   7.082  48.251  1.00  0.00     0.042 P 
HETATM   21  H25 UNL     1      31.230   5.910  47.718  1.00  0.00     0.092 HD
BRANCH  20  22
HETATM   22  O2  UNL     1      31.225   7.546  49.758  1.00  0.00    -0.371 OA
HETATM   23  H26 UNL     1      30.487   7.631  50.413  1.00  0.00     0.215 HD
ENDBRANCH  20  22
ENDBRANCH  17  20
ENDBRANCH   7  10
BRANCH   1  24
HETATM   24  C4  UNL     1      23.563   1.645  51.675  1.00  0.00     0.033 C 
HETATM   25  C3  UNL     1      22.921   0.821  52.672  1.00  0.00     0.034 C 
BRANCH  25  26
HETATM   26  C2  UNL     1      21.940  -0.237  52.411  1.00  0.00     0.114 C 
HETATM   27  C1  UNL     1      20.491   0.090  52.616  1.00  0.00     0.039 C 
BRANCH  26  28
HETATM   28  O1  UNL     1      22.215  -1.336  53.284  1.00  0.00    -0.396 OA
HETATM   29  H5  UNL     1      22.035  -0.978  54.192  1.00  0.00     0.210 HD
ENDBRANCH  26  28
ENDBRANCH  25  26
ENDBRANCH   1  24
TORSDOF 6
ENDMDL
MODEL 8
REMARK VINA RESULT:      -6.7      2.987      6.104
REMARK  6 active torsions:
REMARK  status: ('A' for Active; 'I' for Inactive)
REMARK    1  A    between atoms: C2_2  and  O1_3 
REMARK    2  A    between atoms: C2_2  and  C3_4 
REMARK    3  A    between atoms: C4_5  and  C5_6 
REMARK    4  A    between atoms: C11_12  and  C12_13 
REMARK    5  A    between atoms: C16_18  and  P1_19 
REMARK    6  A    between atoms: P1_19  and  O2_20 
ROOT
HETATM    1  C5  UNL     1      22.730   2.413  51.223  1.00  0.00     0.026 C 
HETATM    2  C6  UNL     1      22.204   1.740  49.994  1.00  0.00     0.038 C 
HETATM    3  C7  UNL     1      21.611   3.325  51.717  1.00  0.00     0.031 C 
HETATM    4  C8  UNL     1      22.066   4.230  52.823  1.00  0.00     0.008 C 
HETATM    5  C9  UNL     1      23.228   5.105  52.481  1.00  0.00     0.056 C 
HETATM    6  C10 UNL     1      23.656   4.760  51.080  1.00  0.00     0.002 C 
HETATM    7  C11 UNL     1      23.953   5.687  50.186  1.00  0.00     0.009 C 
HETATM    8  N2  UNL     1      23.741   3.388  50.715  1.00  0.00    -0.385 N 
HETATM    9  H29 UNL     1      24.534   3.075  50.079  1.00  0.00     0.160 HD
ENDROOT
BRANCH   7  10
HETATM   10  C12 UNL     1      24.386   5.415  48.775  1.00  0.00     0.063 C 
HETATM   11  C13 UNL     1      23.867   6.493  47.841  1.00  0.00     0.133 C 
HETATM   12  N1  UNL     1      24.843   7.556  48.119  1.00  0.00    -0.388 N 
HETATM   13  C14 UNL     1      26.101   6.880  48.283  1.00  0.00     0.036 A 
HETATM   14  H23 UNL     1      24.645   8.569  48.179  1.00  0.00     0.159 HD
HETATM   15  C15 UNL     1      27.380   7.383  48.092  1.00  0.00     0.043 A 
HETATM   16  C19 UNL     1      25.845   5.582  48.680  1.00  0.00    -0.022 A 
HETATM   17  C16 UNL     1      28.437   6.508  48.322  1.00  0.00    -0.005 A 
HETATM   18  C17 UNL     1      28.175   5.212  48.719  1.00  0.00     0.015 A 
HETATM   19  C18 UNL     1      26.901   4.718  48.906  1.00  0.00     0.011 A 
BRANCH  17  20
HETATM   20  P1  UNL     1      30.183   7.021  48.114  1.00  0.00     0.042 P 
HETATM   21  H25 UNL     1      30.890   5.884  47.544  1.00  0.00     0.092 HD
BRANCH  20  22
HETATM   22  O2  UNL     1      30.908   7.519  49.585  1.00  0.00    -0.371 OA
HETATM   23  H26 UNL     1      30.309   7.259  50.329  1.00  0.00     0.215 HD
ENDBRANCH  20  22
ENDBRANCH  17  20
ENDBRANCH   7  10
BRANCH   1  24
HETATM   24  C4  UNL     1      23.368   1.632  52.264  1.00  0.00     0.033 C 
HETATM   25  C3  UNL     1      24.606   0.890  52.192  1.00  0.00     0.034 C 
BRANCH  25  26
HETATM   26  C2  UNL     1      25.926   1.449  51.886  1.00  0.00     0.114 C 
HETATM   27  C1  UNL     1      27.130   0.627  52.234  1.00  0.00     0.039 C 
BRANCH  26  28
HETATM   28  O1  UNL     1      26.076   2.677  52.604  1.00  0.00    -0.396 OA
HETATM   29  H5  UNL     1      27.056   2.766  52.734  1.00  0.00     0.210 HD
ENDBRANCH  26  28
ENDBRANCH  25  26
ENDBRANCH   1  24
TORSDOF 6
ENDMDL
MODEL 9
REMARK VINA RESULT:      -6.7      4.102      7.195
REMARK  6 active torsions:
REMARK  status: ('A' for Active; 'I' for Inactive)
REMARK    1  A    between atoms: C2_2  and  O1_3 
REMARK    2  A    between atoms: C2_2  and  C3_4 
REMARK    3  A    between atoms: C4_5  and  C5_6 
REMARK    4  A    between atoms: C11_12  and  C12_13 
REMARK    5  A    between atoms: C16_18  and  P1_19 
REMARK    6  A    between atoms: P1_19  and  O2_20 
ROOT
HETATM    1  C5  UNL     1      23.406   3.005  51.424  1.00  0.00     0.026 C 
HETATM    2  C6  UNL     1      22.437   4.041  51.902  1.00  0.00     0.038 C 
HETATM    3  C7  UNL     1      24.517   2.950  52.469  1.00  0.00     0.031 C 
HETATM    4  C8  UNL     1      25.674   2.108  52.020  1.00  0.00     0.008 C 
HETATM    5  C9  UNL     1      26.302   2.536  50.734  1.00  0.00     0.056 C 
HETATM    6  C10 UNL     1      25.511   3.707  50.213  1.00  0.00     0.002 C 
HETATM    7  C11 UNL     1      26.092   4.786  49.721  1.00  0.00     0.009 C 
HETATM    8  N2  UNL     1      24.091   3.639  50.258  1.00  0.00    -0.385 N 
HETATM    9  H29 UNL     1      23.533   4.047  49.450  1.00  0.00     0.160 HD
ENDROOT
BRANCH   7  10
HETATM   10  C12 UNL     1      25.367   5.986  49.186  1.00  0.00     0.063 C 
HETATM   11  C13 UNL     1      24.567   6.660  50.286  1.00  0.00     0.133 C 
HETATM   12  N1  UNL     1      25.644   7.396  50.963  1.00  0.00    -0.388 N 
HETATM   13  C14 UNL     1      26.505   7.861  49.909  1.00  0.00     0.036 A 
HETATM   14  H23 UNL     1      25.742   7.538  51.983  1.00  0.00     0.159 HD
HETATM   15  C15 UNL     1      27.361   8.953  49.916  1.00  0.00     0.043 A 
HETATM   16  C19 UNL     1      26.351   7.019  48.824  1.00  0.00    -0.022 A 
HETATM   17  C16 UNL     1      28.089   9.183  48.752  1.00  0.00    -0.005 A 
HETATM   18  C17 UNL     1      27.932   8.339  47.672  1.00  0.00     0.015 A 
HETATM   19  C18 UNL     1      27.077   7.256  47.672  1.00  0.00     0.011 A 
BRANCH  17  20
HETATM   20  P1  UNL     1      29.262  10.582  48.604  1.00  0.00     0.042 P 
HETATM   21  H25 UNL     1      29.907  10.452  47.307  1.00  0.00     0.092 HD
BRANCH  20  22
HETATM   22  O2  UNL     1      30.421  10.613  49.866  1.00  0.00    -0.371 OA
HETATM   23  H26 UNL     1      30.888   9.740  49.879  1.00  0.00     0.215 HD
ENDBRANCH  20  22
ENDBRANCH  17  20
ENDBRANCH   7  10
BRANCH   1  24
HETATM   24  C4  UNL     1      22.929   1.707  50.990  1.00  0.00     0.033 C 
HETATM   25  C3  UNL     1      22.255   0.696  51.771  1.00  0.00     0.034 C 
BRANCH  25  26
HETATM   26  C2  UNL     1      20.978   0.862  52.473  1.00  0.00     0.114 C 
HETATM   27  C1  UNL     1      20.909   0.429  53.906  1.00  0.00     0.039 C 
BRANCH  26  28
HETATM   28  O1  UNL     1      19.983   0.096  51.789  1.00  0.00    -0.396 OA
HETATM   29  H5  UNL     1      19.126   0.532  52.038  1.00  0.00     0.210 HD
ENDBRANCH  26  28
ENDBRANCH  25  26
ENDBRANCH   1  24
TORSDOF 6
ENDMDL
