MODEL 1
REMARK VINA RESULT:      -6.8      0.000      0.000
REMARK  8 active torsions:
REMARK  status: ('A' for Active; 'I' for Inactive)
REMARK    1  A    between atoms: N1_1  and  C1_2 
REMARK    2  A    between atoms: C1_2  and  C2_3 
REMARK    3  A    between atoms: C2_3  and  C3_4 
REMARK    4  A    between atoms: C4_5  and  C5_7 
REMARK    5  A    between atoms: C5_7  and  C6_8 
REMARK    6  A    between atoms: C7_11  and  S1_12 
REMARK    7  A    between atoms: S1_12  and  C8_13 
REMARK    8  A    between atoms: C8_13  and  C9_14 
ROOT
HETATM    1  C6  UNL     1      24.933   2.349  52.730  1.00  0.00     0.176 A 
HETATM    2  N2  UNL     1      24.182   3.339  53.242  1.00  0.00    -0.126 NA
HETATM    3  N3  UNL     1      23.098   3.433  52.496  1.00  0.00    -0.114 NA
HETATM    4  C7  UNL     1      23.139   2.521  51.509  1.00  0.00     0.231 A 
HETATM    5  O1  UNL     1      24.283   1.870  51.682  1.00  0.00    -0.268 OA
ENDROOT
BRANCH   1   6
HETATM    6  C5  UNL     1      26.248   1.943  53.312  1.00  0.00     0.158 C 
BRANCH   6   7
HETATM    7  C4  UNL     1      26.500   0.530  52.941  1.00  0.00     0.102 C 
HETATM    8  C3  UNL     1      26.347  -0.646  53.523  1.00  0.00     0.048 C 
HETATM    9  F1  UNL     1      27.016   0.407  51.688  1.00  0.00    -0.210 F 
BRANCH   8  10
HETATM   10  C2  UNL     1      26.817  -1.607  52.530  1.00  0.00     0.079 C 
BRANCH  10  11
HETATM   11  C1  UNL     1      27.780  -2.456  52.846  1.00  0.00    -0.025 C 
BRANCH  11  12
HETATM   12  N1  UNL     1      28.551  -3.463  53.072  1.00  0.00    -0.258 NA
HETATM   13  H1  UNL     1      28.140  -4.393  52.881  1.00  0.00     0.197 HD
ENDBRANCH  11  12
ENDBRANCH  10  11
ENDBRANCH   8  10
ENDBRANCH   6   7
ENDBRANCH   1   6
BRANCH   4  14
HETATM   14  S1  UNL     1      22.207   1.937  50.124  1.00  0.00    -0.078 SA
BRANCH  14  15
HETATM   15  C8  UNL     1      21.246   0.495  50.617  1.00  0.00     0.121 C 
BRANCH  15  16
HETATM   16  C9  UNL     1      21.449   0.151  52.034  1.00  0.00    -0.049 A 
HETATM   17  C10 UNL     1      20.527   0.717  52.895  1.00  0.00     0.008 A 
HETATM   18  C11 UNL     1      20.620   0.462  54.252  1.00  0.00     0.001 A 
HETATM   19  C12 UNL     1      21.601  -0.341  54.800  1.00  0.00     0.000 A 
HETATM   20  C13 UNL     1      22.522  -0.903  53.924  1.00  0.00     0.001 A 
HETATM   21  C14 UNL     1      22.417  -0.641  52.583  1.00  0.00     0.008 A 
ENDBRANCH  15  16
ENDBRANCH  14  15
ENDBRANCH   4  14
TORSDOF 8
ENDMDL
MODEL 2
REMARK VINA RESULT:      -6.8      4.143      6.981
REMARK  8 active torsions:
REMARK  status: ('A' for Active; 'I' for Inactive)
REMARK    1  A    between atoms: N1_1  and  C1_2 
REMARK    2  A    between atoms: C1_2  and  C2_3 
REMARK    3  A    between atoms: C2_3  and  C3_4 
REMARK    4  A    between atoms: C4_5  and  C5_7 
REMARK    5  A    between atoms: C5_7  and  C6_8 
REMARK    6  A    between atoms: C7_11  and  S1_12 
REMARK    7  A    between atoms: S1_12  and  C8_13 
REMARK    8  A    between atoms: C8_13  and  C9_14 
ROOT
HETATM    1  C6  UNL     1      25.563   3.685  50.141  1.00  0.00     0.176 A 
HETATM    2  N2  UNL     1      26.851   3.308  50.185  1.00  0.00    -0.126 NA
HETATM    3  N3  UNL     1      26.998   2.540  51.248  1.00  0.00    -0.114 NA
HETATM    4  C7  UNL     1      25.823   2.417  51.891  1.00  0.00     0.231 A 
HETATM    5  O1  UNL     1      24.960   3.134  51.182  1.00  0.00    -0.268 OA
ENDROOT
BRANCH   1   6
HETATM    6  C5  UNL     1      25.010   4.568  49.068  1.00  0.00     0.158 C 
BRANCH   6   7
HETATM    7  C4  UNL     1      25.665   5.892  49.179  1.00  0.00     0.102 C 
HETATM    8  C3  UNL     1      25.461   6.997  49.874  1.00  0.00     0.048 C 
HETATM    9  F1  UNL     1      26.749   6.005  48.364  1.00  0.00    -0.210 F 
BRANCH   8  10
HETATM   10  C2  UNL     1      26.530   7.896  49.451  1.00  0.00     0.079 C 
BRANCH  10  11
HETATM   11  C1  UNL     1      26.989   8.808  50.291  1.00  0.00    -0.025 C 
BRANCH  11  12
HETATM   12  N1  UNL     1      27.669   9.617  51.028  1.00  0.00    -0.258 NA
HETATM   13  H1  UNL     1      27.382  10.610  50.983  1.00  0.00     0.197 HD
ENDBRANCH  11  12
ENDBRANCH  10  11
ENDBRANCH   8  10
ENDBRANCH   6   7
ENDBRANCH   1   6
BRANCH   4  14
HETATM   14  S1  UNL     1      25.093   1.645  53.304  1.00  0.00    -0.078 SA
BRANCH  14  15
HETATM   15  C8  UNL     1      25.426  -0.125  53.257  1.00  0.00     0.121 C 
BRANCH  15  16
HETATM   16  C9  UNL     1      26.851  -0.426  53.473  1.00  0.00    -0.049 A 
HETATM   17  C10 UNL     1      27.459   0.357  54.438  1.00  0.00     0.008 A 
HETATM   18  C11 UNL     1      28.799   0.161  54.726  1.00  0.00     0.001 A 
HETATM   19  C12 UNL     1      29.573  -0.790  54.089  1.00  0.00     0.000 A 
HETATM   20  C13 UNL     1      28.950  -1.568  53.121  1.00  0.00     0.001 A 
HETATM   21  C14 UNL     1      27.623  -1.363  52.848  1.00  0.00     0.008 A 
ENDBRANCH  15  16
ENDBRANCH  14  15
ENDBRANCH   4  14
TORSDOF 8
ENDMDL
MODEL 3
REMARK VINA RESULT:      -6.8      2.770      4.213
REMARK  8 active torsions:
REMARK  status: ('A' for Active; 'I' for Inactive)
REMARK    1  A    between atoms: N1_1  and  C1_2 
REMARK    2  A    between atoms: C1_2  and  C2_3 
REMARK    3  A    between atoms: C2_3  and  C3_4 
REMARK    4  A    between atoms: C4_5  and  C5_7 
REMARK    5  A    between atoms: C5_7  and  C6_8 
REMARK    6  A    between atoms: C7_11  and  S1_12 
REMARK    7  A    between atoms: S1_12  and  C8_13 
REMARK    8  A    between atoms: C8_13  and  C9_14 
ROOT
HETATM    1  C6  UNL     1      23.247  -1.067  54.928  1.00  0.00     0.176 A 
HETATM    2  N2  UNL     1      22.271  -1.890  55.343  1.00  0.00    -0.126 NA
HETATM    3  N3  UNL     1      21.161  -1.521  54.733  1.00  0.00    -0.114 NA
HETATM    4  C7  UNL     1      21.406  -0.470  53.931  1.00  0.00     0.231 A 
HETATM    5  O1  UNL     1      22.701  -0.216  54.075  1.00  0.00    -0.268 OA
ENDROOT
BRANCH   1   6
HETATM    6  C5  UNL     1      24.660  -1.176  55.404  1.00  0.00     0.158 C 
BRANCH   6   7
HETATM    7  C4  UNL     1      25.525  -0.437  54.454  1.00  0.00     0.102 C 
HETATM    8  C3  UNL     1      26.337   0.602  54.521  1.00  0.00     0.048 C 
HETATM    9  F1  UNL     1      25.474  -0.955  53.197  1.00  0.00    -0.210 F 
BRANCH   8  10
HETATM   10  C2  UNL     1      26.851   0.751  53.162  1.00  0.00     0.079 C 
BRANCH  10  11
HETATM   11  C1  UNL     1      27.596   1.799  52.856  1.00  0.00    -0.025 C 
BRANCH  11  12
HETATM   12  N1  UNL     1      28.435   2.774  52.785  1.00  0.00    -0.258 NA
HETATM   13  H1  UNL     1      28.062   3.703  53.044  1.00  0.00     0.197 HD
ENDBRANCH  11  12
ENDBRANCH  10  11
ENDBRANCH   8  10
ENDBRANCH   6   7
ENDBRANCH   1   6
BRANCH   4  14
HETATM   14  S1  UNL     1      20.601   0.627  52.803  1.00  0.00    -0.078 SA
BRANCH  14  15
HETATM   15  C8  UNL     1      21.200   0.312  51.133  1.00  0.00     0.121 C 
BRANCH  15  16
HETATM   16  C9  UNL     1      22.258   1.255  50.737  1.00  0.00    -0.049 A 
HETATM   17  C10 UNL     1      22.075   1.827  49.491  1.00  0.00     0.008 A 
HETATM   18  C11 UNL     1      23.008   2.732  49.015  1.00  0.00     0.001 A 
HETATM   19  C12 UNL     1      24.132   3.099  49.731  1.00  0.00     0.000 A 
HETATM   20  C13 UNL     1      24.303   2.517  50.981  1.00  0.00     0.001 A 
HETATM   21  C14 UNL     1      23.371   1.623  51.438  1.00  0.00     0.008 A 
ENDBRANCH  15  16
ENDBRANCH  14  15
ENDBRANCH   4  14
TORSDOF 8
ENDMDL
MODEL 4
REMARK VINA RESULT:      -6.6      3.628      5.651
REMARK  8 active torsions:
REMARK  status: ('A' for Active; 'I' for Inactive)
REMARK    1  A    between atoms: N1_1  and  C1_2 
REMARK    2  A    between atoms: C1_2  and  C2_3 
REMARK    3  A    between atoms: C2_3  and  C3_4 
REMARK    4  A    between atoms: C4_5  and  C5_7 
REMARK    5  A    between atoms: C5_7  and  C6_8 
REMARK    6  A    between atoms: C7_11  and  S1_12 
REMARK    7  A    between atoms: S1_12  and  C8_13 
REMARK    8  A    between atoms: C8_13  and  C9_14 
ROOT
HETATM    1  C6  UNL     1      24.103   1.535  52.398  1.00  0.00     0.176 A 
HETATM    2  N2  UNL     1      24.231   2.684  53.082  1.00  0.00    -0.126 NA
HETATM    3  N3  UNL     1      24.196   3.668  52.204  1.00  0.00    -0.114 NA
HETATM    4  C7  UNL     1      24.049   3.171  50.963  1.00  0.00     0.231 A 
HETATM    5  O1  UNL     1      23.996   1.854  51.119  1.00  0.00    -0.268 OA
ENDROOT
BRANCH   1   6
HETATM    6  C5  UNL     1      24.097   0.193  53.057  1.00  0.00     0.158 C 
BRANCH   6   7
HETATM    7  C4  UNL     1      25.492  -0.305  53.100  1.00  0.00     0.102 C 
HETATM    8  C3  UNL     1      26.352  -0.796  52.226  1.00  0.00     0.048 C 
HETATM    9  F1  UNL     1      26.026  -0.244  54.350  1.00  0.00    -0.210 F 
BRANCH   8  10
HETATM   10  C2  UNL     1      27.552  -1.070  53.011  1.00  0.00     0.079 C 
BRANCH  10  11
HETATM   11  C1  UNL     1      27.994  -2.312  53.118  1.00  0.00    -0.025 C 
BRANCH  11  12
HETATM   12  N1  UNL     1      28.612  -3.441  53.062  1.00  0.00    -0.258 NA
HETATM   13  H1  UNL     1      28.729  -3.840  52.115  1.00  0.00     0.197 HD
ENDBRANCH  11  12
ENDBRANCH  10  11
ENDBRANCH   8  10
ENDBRANCH   6   7
ENDBRANCH   1   6
BRANCH   4  14
HETATM   14  S1  UNL     1      23.911   3.680  49.276  1.00  0.00    -0.078 SA
BRANCH  14  15
HETATM   15  C8  UNL     1      24.334   5.426  49.143  1.00  0.00     0.121 C 
BRANCH  15  16
HETATM   16  C9  UNL     1      25.753   5.628  48.806  1.00  0.00    -0.049 A 
HETATM   17  C10 UNL     1      26.045   6.882  48.301  1.00  0.00     0.008 A 
HETATM   18  C11 UNL     1      27.349   7.186  47.950  1.00  0.00     0.001 A 
HETATM   19  C12 UNL     1      28.391   6.287  48.080  1.00  0.00     0.000 A 
HETATM   20  C13 UNL     1      28.083   5.031  48.588  1.00  0.00     0.001 A 
HETATM   21  C14 UNL     1      26.787   4.746  48.931  1.00  0.00     0.008 A 
ENDBRANCH  15  16
ENDBRANCH  14  15
ENDBRANCH   4  14
TORSDOF 8
ENDMDL
MODEL 5
REMARK VINA RESULT:      -6.6      3.883      5.864
REMARK  8 active torsions:
REMARK  status: ('A' for Active; 'I' for Inactive)
REMARK    1  A    between atoms: N1_1  and  C1_2 
REMARK    2  A    between atoms: C1_2  and  C2_3 
REMARK    3  A    between atoms: C2_3  and  C3_4 
REMARK    4  A    between atoms: C4_5  and  C5_7 
REMARK    5  A    between atoms: C5_7  and  C6_8 
REMARK    6  A    between atoms: C7_11  and  S1_12 
REMARK    7  A    between atoms: S1_12  and  C8_13 
REMARK    8  A    between atoms: C8_13  and  C9_14 
ROOT
HETATM    1  C6  UNL     1      25.616   3.414  50.707  1.00  0.00     0.176 A 
HETATM    2  N2  UNL     1      26.953   3.297  50.649  1.00  0.00    -0.126 NA
HETATM    3  N3  UNL     1      27.321   2.513  51.644  1.00  0.00    -0.114 NA
HETATM    4  C7  UNL     1      26.241   2.122  52.344  1.00  0.00     0.231 A 
HETATM    5  O1  UNL     1      25.207   2.695  51.740  1.00  0.00    -0.268 OA
ENDROOT
BRANCH   1   6
HETATM    6  C5  UNL     1      24.828   4.231  49.734  1.00  0.00     0.158 C 
BRANCH   6   7
HETATM    7  C4  UNL     1      25.480   5.556  49.611  1.00  0.00     0.102 C 
HETATM    8  C3  UNL     1      25.434   6.701  50.270  1.00  0.00     0.048 C 
HETATM    9  F1  UNL     1      26.342   5.615  48.561  1.00  0.00    -0.210 F 
BRANCH   8  10
HETATM   10  C2  UNL     1      26.367   7.568  49.556  1.00  0.00     0.079 C 
BRANCH  10  11
HETATM   11  C1  UNL     1      26.876   8.624  50.167  1.00  0.00    -0.025 C 
BRANCH  11  12
HETATM   12  N1  UNL     1      27.161   9.637  50.911  1.00  0.00    -0.258 NA
HETATM   13  H1  UNL     1      26.947   9.527  51.917  1.00  0.00     0.197 HD
ENDBRANCH  11  12
ENDBRANCH  10  11
ENDBRANCH   8  10
ENDBRANCH   6   7
ENDBRANCH   1   6
BRANCH   4  14
HETATM   14  S1  UNL     1      25.777   1.141  53.739  1.00  0.00    -0.078 SA
BRANCH  14  15
HETATM   15  C8  UNL     1      24.782  -0.255  53.183  1.00  0.00     0.121 C 
BRANCH  15  16
HETATM   16  C9  UNL     1      23.348  -0.053  53.449  1.00  0.00    -0.049 A 
HETATM   17  C10 UNL     1      22.847  -0.825  54.482  1.00  0.00     0.008 A 
HETATM   18  C11 UNL     1      21.509  -0.717  54.822  1.00  0.00     0.001 A 
HETATM   19  C12 UNL     1      20.635   0.134  54.173  1.00  0.00     0.000 A 
HETATM   20  C13 UNL     1      21.152   0.902  53.137  1.00  0.00     0.001 A 
HETATM   21  C14 UNL     1      22.478   0.785  52.813  1.00  0.00     0.008 A 
ENDBRANCH  15  16
ENDBRANCH  14  15
ENDBRANCH   4  14
TORSDOF 8
ENDMDL
MODEL 6
REMARK VINA RESULT:      -6.5      2.975      4.985
REMARK  8 active torsions:
REMARK  status: ('A' for Active; 'I' for Inactive)
REMARK    1  A    between atoms: N1_1  and  C1_2 
REMARK    2  A    between atoms: C1_2  and  C2_3 
REMARK    3  A    between atoms: C2_3  and  C3_4 
REMARK    4  A    between atoms: C4_5  and  C5_7 
REMARK    5  A    between atoms: C5_7  and  C6_8 
REMARK    6  A    between atoms: C7_11  and  S1_12 
REMARK    7  A    between atoms: S1_12  and  C8_13 
REMARK    8  A    between atoms: C8_13  and  C9_14 
ROOT
HETATM    1  C6  UNL     1      23.500   0.137  52.780  1.00  0.00     0.176 A 
HETATM    2  N2  UNL     1      22.250  -0.352  52.746  1.00  0.00    -0.126 NA
HETATM    3  N3  UNL     1      21.610   0.277  51.778  1.00  0.00    -0.114 NA
HETATM    4  C7  UNL     1      22.430   1.166  51.189  1.00  0.00     0.231 A 
HETATM    5  O1  UNL     1      23.586   1.053  51.830  1.00  0.00    -0.268 OA
ENDROOT
BRANCH   1   6
HETATM    6  C5  UNL     1      24.531  -0.336  53.754  1.00  0.00     0.158 C 
BRANCH   6   7
HETATM    7  C4  UNL     1      25.785   0.410  53.497  1.00  0.00     0.102 C 
HETATM    8  C3  UNL     1      26.381   1.471  54.012  1.00  0.00     0.048 C 
HETATM    9  F1  UNL     1      26.509  -0.128  52.478  1.00  0.00    -0.210 F 
BRANCH   8  10
HETATM   10  C2  UNL     1      27.607   1.613  53.233  1.00  0.00     0.079 C 
BRANCH  10  11
HETATM   11  C1  UNL     1      28.737   1.928  53.843  1.00  0.00    -0.025 C 
BRANCH  11  12
HETATM   12  N1  UNL     1      29.683   2.342  54.615  1.00  0.00    -0.258 NA
HETATM   13  H1  UNL     1      30.495   1.709  54.705  1.00  0.00     0.197 HD
ENDBRANCH  11  12
ENDBRANCH  10  11
ENDBRANCH   8  10
ENDBRANCH   6   7
ENDBRANCH   1   6
BRANCH   4  14
HETATM   14  S1  UNL     1      22.462   2.374  49.899  1.00  0.00    -0.078 SA
BRANCH  14  15
HETATM   15  C8  UNL     1      23.133   3.917  50.543  1.00  0.00     0.121 C 
BRANCH  15  16
HETATM   16  C9  UNL     1      24.453   4.229  49.970  1.00  0.00    -0.049 A 
HETATM   17  C10 UNL     1      25.383   3.214  50.098  1.00  0.00     0.008 A 
HETATM   18  C11 UNL     1      26.660   3.396  49.594  1.00  0.00     0.001 A 
HETATM   19  C12 UNL     1      27.059   4.557  48.959  1.00  0.00     0.000 A 
HETATM   20  C13 UNL     1      26.114   5.568  48.838  1.00  0.00     0.001 A 
HETATM   21  C14 UNL     1      24.855   5.373  49.342  1.00  0.00     0.008 A 
ENDBRANCH  15  16
ENDBRANCH  14  15
ENDBRANCH   4  14
TORSDOF 8
ENDMDL
MODEL 7
REMARK VINA RESULT:      -6.4      2.873      4.870
REMARK  8 active torsions:
REMARK  status: ('A' for Active; 'I' for Inactive)
REMARK    1  A    between atoms: N1_1  and  C1_2 
REMARK    2  A    between atoms: C1_2  and  C2_3 
REMARK    3  A    between atoms: C2_3  and  C3_4 
REMARK    4  A    between atoms: C4_5  and  C5_7 
REMARK    5  A    between atoms: C5_7  and  C6_8 
REMARK    6  A    between atoms: C7_11  and  S1_12 
REMARK    7  A    between atoms: S1_12  and  C8_13 
REMARK    8  A    between atoms: C8_13  and  C9_14 
ROOT
HETATM    1  C6  UNL     1      23.221   0.298  53.251  1.00  0.00     0.176 A 
HETATM    2  N2  UNL     1      22.199  -0.184  52.524  1.00  0.00    -0.126 NA
HETATM    3  N3  UNL     1      21.802   0.783  51.719  1.00  0.00    -0.114 NA
HETATM    4  C7  UNL     1      22.552   1.882  51.915  1.00  0.00     0.231 A 
HETATM    5  O1  UNL     1      23.417   1.549  52.866  1.00  0.00    -0.268 OA
ENDROOT
BRANCH   1   6
HETATM    6  C5  UNL     1      23.939  -0.513  54.282  1.00  0.00     0.158 C 
BRANCH   6   7
HETATM    7  C4  UNL     1      25.337  -0.702  53.828  1.00  0.00     0.102 C 
HETATM    8  C3  UNL     1      25.933  -0.987  52.683  1.00  0.00     0.048 C 
HETATM    9  F1  UNL     1      26.236  -0.543  54.836  1.00  0.00    -0.210 F 
BRANCH   8  10
HETATM   10  C2  UNL     1      27.355  -1.009  53.010  1.00  0.00     0.079 C 
BRANCH  10  11
HETATM   11  C1  UNL     1      28.036  -2.137  52.896  1.00  0.00    -0.025 C 
BRANCH  11  12
HETATM   12  N1  UNL     1      28.580  -3.299  53.006  1.00  0.00    -0.258 NA
HETATM   13  H1  UNL     1      28.974  -3.522  53.935  1.00  0.00     0.197 HD
ENDBRANCH  11  12
ENDBRANCH  10  11
ENDBRANCH   8  10
ENDBRANCH   6   7
ENDBRANCH   1   6
BRANCH   4  14
HETATM   14  S1  UNL     1      22.749   3.543  51.345  1.00  0.00    -0.078 SA
BRANCH  14  15
HETATM   15  C8  UNL     1      23.161   3.527  49.591  1.00  0.00     0.121 C 
BRANCH  15  16
HETATM   16  C9  UNL     1      24.443   4.197  49.318  1.00  0.00    -0.049 A 
HETATM   17  C10 UNL     1      25.557   3.415  49.561  1.00  0.00     0.008 A 
HETATM   18  C11 UNL     1      26.819   3.941  49.338  1.00  0.00     0.001 A 
HETATM   19  C12 UNL     1      27.025   5.227  48.877  1.00  0.00     0.000 A 
HETATM   20  C13 UNL     1      25.897   6.002  48.638  1.00  0.00     0.001 A 
HETATM   21  C14 UNL     1      24.656   5.467  48.864  1.00  0.00     0.008 A 
ENDBRANCH  15  16
ENDBRANCH  14  15
ENDBRANCH   4  14
TORSDOF 8
ENDMDL
MODEL 8
REMARK VINA RESULT:      -6.3      2.538      5.628
REMARK  8 active torsions:
REMARK  status: ('A' for Active; 'I' for Inactive)
REMARK    1  A    between atoms: N1_1  and  C1_2 
REMARK    2  A    between atoms: C1_2  and  C2_3 
REMARK    3  A    between atoms: C2_3  and  C3_4 
REMARK    4  A    between atoms: C4_5  and  C5_7 
REMARK    5  A    between atoms: C5_7  and  C6_8 
REMARK    6  A    between atoms: C7_11  and  S1_12 
REMARK    7  A    between atoms: S1_12  and  C8_13 
REMARK    8  A    between atoms: C8_13  and  C9_14 
ROOT
HETATM    1  C6  UNL     1      22.433   2.488  51.622  1.00  0.00     0.176 A 
HETATM    2  N2  UNL     1      22.572   3.232  50.512  1.00  0.00    -0.126 NA
HETATM    3  N3  UNL     1      23.861   3.278  50.231  1.00  0.00    -0.114 NA
HETATM    4  C7  UNL     1      24.554   2.575  51.144  1.00  0.00     0.231 A 
HETATM    5  O1  UNL     1      23.644   2.102  51.986  1.00  0.00    -0.268 OA
ENDROOT
BRANCH   1   6
HETATM    6  C5  UNL     1      21.106   2.208  52.251  1.00  0.00     0.158 C 
BRANCH   6   7
HETATM    7  C4  UNL     1      21.207   0.927  52.988  1.00  0.00     0.102 C 
HETATM    8  C3  UNL     1      20.878   0.497  54.193  1.00  0.00     0.048 C 
HETATM    9  F1  UNL     1      21.780  -0.057  52.243  1.00  0.00    -0.210 F 
BRANCH   8  10
HETATM   10  C2  UNL     1      21.288  -0.904  54.204  1.00  0.00     0.079 C 
BRANCH  10  11
HETATM   11  C1  UNL     1      22.192  -1.315  55.076  1.00  0.00    -0.025 C 
BRANCH  11  12
HETATM   12  N1  UNL     1      23.047  -1.943  55.808  1.00  0.00    -0.258 NA
HETATM   13  H1  UNL     1      22.918  -2.967  55.867  1.00  0.00     0.197 HD
ENDBRANCH  11  12
ENDBRANCH  10  11
ENDBRANCH   8  10
ENDBRANCH   6   7
ENDBRANCH   1   6
BRANCH   4  14
HETATM   14  S1  UNL     1      26.205   2.101  51.562  1.00  0.00    -0.078 SA
BRANCH  14  15
HETATM   15  C8  UNL     1      26.156   0.720  52.719  1.00  0.00     0.121 C 
BRANCH  15  16
HETATM   16  C9  UNL     1      27.502   0.220  53.042  1.00  0.00    -0.049 A 
HETATM   17  C10 UNL     1      27.639  -1.153  52.939  1.00  0.00     0.008 A 
HETATM   18  C11 UNL     1      28.863  -1.736  53.218  1.00  0.00     0.001 A 
HETATM   19  C12 UNL     1      29.973  -1.007  53.600  1.00  0.00     0.000 A 
HETATM   20  C13 UNL     1      29.821   0.371  53.700  1.00  0.00     0.001 A 
HETATM   21  C14 UNL     1      28.603   0.933  53.421  1.00  0.00     0.008 A 
ENDBRANCH  15  16
ENDBRANCH  14  15
ENDBRANCH   4  14
TORSDOF 8
ENDMDL
MODEL 9
REMARK VINA RESULT:      -6.3      3.163      6.187
REMARK  8 active torsions:
REMARK  status: ('A' for Active; 'I' for Inactive)
REMARK    1  A    between atoms: N1_1  and  C1_2 
REMARK    2  A    between atoms: C1_2  and  C2_3 
REMARK    3  A    between atoms: C2_3  and  C3_4 
REMARK    4  A    between atoms: C4_5  and  C5_7 
REMARK    5  A    between atoms: C5_7  and  C6_8 
REMARK    6  A    between atoms: C7_11  and  S1_12 
REMARK    7  A    between atoms: S1_12  and  C8_13 
REMARK    8  A    between atoms: C8_13  and  C9_14 
ROOT
HETATM    1  C6  UNL     1      24.480  -0.878  55.018  1.00  0.00     0.176 A 
HETATM    2  N2  UNL     1      25.636  -0.887  55.701  1.00  0.00    -0.126 NA
HETATM    3  N3  UNL     1      26.535  -0.272  54.955  1.00  0.00    -0.114 NA
HETATM    4  C7  UNL     1      25.975   0.132  53.801  1.00  0.00     0.231 A 
HETATM    5  O1  UNL     1      24.709  -0.258  53.872  1.00  0.00    -0.268 OA
ENDROOT
BRANCH   1   6
HETATM    6  C5  UNL     1      23.220  -1.487  55.545  1.00  0.00     0.158 C 
BRANCH   6   7
HETATM    7  C4  UNL     1      22.098  -1.044  54.684  1.00  0.00     0.102 C 
HETATM    8  C3  UNL     1      21.259  -0.024  54.668  1.00  0.00     0.048 C 
HETATM    9  F1  UNL     1      21.872  -1.897  53.648  1.00  0.00    -0.210 F 
BRANCH   8  10
HETATM   10  C2  UNL     1      20.419  -0.262  53.498  1.00  0.00     0.079 C 
BRANCH  10  11
HETATM   11  C1  UNL     1      20.407   0.617  52.511  1.00  0.00    -0.025 C 
BRANCH  11  12
HETATM   12  N1  UNL     1      20.652   1.456  51.564  1.00  0.00    -0.258 NA
HETATM   13  H1  UNL     1      20.805   2.434  51.863  1.00  0.00     0.197 HD
ENDBRANCH  11  12
ENDBRANCH  10  11
ENDBRANCH   8  10
ENDBRANCH   6   7
ENDBRANCH   1   6
BRANCH   4  14
HETATM   14  S1  UNL     1      26.363   0.972  52.295  1.00  0.00    -0.078 SA
BRANCH  14  15
HETATM   15  C8  UNL     1      24.884   1.788  51.668  1.00  0.00     0.121 C 
BRANCH  15  16
HETATM   16  C9  UNL     1      25.208   2.967  50.848  1.00  0.00    -0.049 A 
HETATM   17  C10 UNL     1      26.412   2.878  50.173  1.00  0.00     0.008 A 
HETATM   18  C11 UNL     1      26.819   3.929  49.369  1.00  0.00     0.001 A 
HETATM   19  C12 UNL     1      26.073   5.080  49.203  1.00  0.00     0.000 A 
HETATM   20  C13 UNL     1      24.866   5.156  49.887  1.00  0.00     0.001 A 
HETATM   21  C14 UNL     1      24.477   4.108  50.679  1.00  0.00     0.008 A 
ENDBRANCH  15  16
ENDBRANCH  14  15
ENDBRANCH   4  14
TORSDOF 8
ENDMDL
