MODEL 1
REMARK VINA RESULT:      -8.0      0.000      0.000
REMARK  2 active torsions:
REMARK  status: ('A' for Active; 'I' for Inactive)
REMARK    1  A    between atoms: N1_2  and  C2_3 
REMARK    2  A    between atoms: C8_12  and  O1_13 
ROOT
HETATM    1  C2  UNL     1      26.680   2.024  53.802  1.00  0.00     0.194 A 
HETATM    2  N2  UNL     1      25.994   1.022  54.089  1.00  0.00    -0.252 N 
HETATM    3  C3  UNL     1      26.280  -0.162  54.818  1.00  0.00     0.303 C 
HETATM    4  N3  UNL     1      25.104  -1.006  54.932  1.00  0.00    -0.251 NA
HETATM    5  S1  UNL     1      23.672  -0.409  54.624  1.00  0.00    -0.116 SA
HETATM    6  C4  UNL     1      22.460  -1.720  54.861  1.00  0.00     0.084 C 
HETATM    7  C5  UNL     1      21.250  -1.426  54.083  1.00  0.00    -0.009 C 
HETATM    8  C6  UNL     1      21.535  -0.234  53.490  1.00  0.00     0.049 C 
HETATM    9  C7  UNL     1      20.756   0.645  52.563  1.00  0.00     0.035 C 
HETATM   10  C8  UNL     1      21.454   1.713  52.256  1.00  0.00     0.138 C 
HETATM   11  N4  UNL     1      22.570   2.584  52.280  1.00  0.00    -0.336 N 
HETATM   12  C10 UNL     1      23.812   2.717  51.624  1.00  0.00     0.054 C 
HETATM   13  C11 UNL     1      23.716   3.210  50.389  1.00  0.00     0.031 C 
HETATM   14  C12 UNL     1      24.767   3.486  49.386  1.00  0.00    -0.001 C 
HETATM   15  C13 UNL     1      25.960   3.172  49.831  1.00  0.00    -0.021 C 
HETATM   16  C14 UNL     1      26.369   2.606  51.136  1.00  0.00     0.082 C 
HETATM   17  C15 UNL     1      25.195   2.503  52.021  1.00  0.00     0.047 C 
HETATM   18  N5  UNL     1      25.399   2.229  53.254  1.00  0.00    -0.124 NA
HETATM   19  H7  UNL     1      23.611   0.104  53.331  1.00  0.00     0.115 HD
HETATM   20  H16 UNL     1      22.826   3.436  52.801  1.00  0.00     0.168 HD
ENDROOT
BRANCH   1  21
HETATM   21  N1  UNL     1      27.966   2.589  53.958  1.00  0.00    -0.368 N 
HETATM   22  C1  UNL     1      28.911   1.571  53.542  1.00  0.00     0.148 C 
HETATM   23  H4  UNL     1      27.755   3.535  54.316  1.00  0.00     0.161 HD
ENDBRANCH   1  21
BRANCH  10  24
HETATM   24  O1  UNL     1      20.960   2.705  51.399  1.00  0.00    -0.341 OA
HETATM   25  C9  UNL     1      20.004   3.659  51.734  1.00  0.00     0.211 C 
ENDBRANCH  10  24
TORSDOF 2
ENDMDL
MODEL 2
REMARK VINA RESULT:      -7.5      1.594      2.005
REMARK  2 active torsions:
REMARK  status: ('A' for Active; 'I' for Inactive)
REMARK    1  A    between atoms: N1_2  and  C2_3 
REMARK    2  A    between atoms: C8_12  and  O1_13 
ROOT
HETATM    1  C2  UNL     1      26.485   1.383  52.796  1.00  0.00     0.194 A 
HETATM    2  N2  UNL     1      25.385   0.802  52.892  1.00  0.00    -0.252 N 
HETATM    3  C3  UNL     1      25.028  -0.531  53.227  1.00  0.00     0.303 C 
HETATM    4  N3  UNL     1      23.587  -0.694  53.267  1.00  0.00    -0.251 NA
HETATM    5  S1  UNL     1      22.649   0.579  53.329  1.00  0.00    -0.116 SA
HETATM    6  C4  UNL     1      20.941   0.012  53.364  1.00  0.00     0.084 C 
HETATM    7  C5  UNL     1      20.054   1.071  52.867  1.00  0.00    -0.009 C 
HETATM    8  C6  UNL     1      20.907   2.094  52.585  1.00  0.00     0.049 C 
HETATM    9  C7  UNL     1      20.688   3.472  52.045  1.00  0.00     0.035 C 
HETATM   10  C8  UNL     1      21.832   4.108  51.947  1.00  0.00     0.138 C 
HETATM   11  N4  UNL     1      23.233   4.280  52.054  1.00  0.00    -0.336 N 
HETATM   12  C10 UNL     1      24.388   3.991  51.297  1.00  0.00     0.054 C 
HETATM   13  C11 UNL     1      24.573   4.816  50.266  1.00  0.00     0.031 C 
HETATM   14  C12 UNL     1      25.641   4.841  49.243  1.00  0.00    -0.001 C 
HETATM   15  C13 UNL     1      26.510   3.874  49.420  1.00  0.00    -0.021 C 
HETATM   16  C14 UNL     1      26.556   2.817  50.455  1.00  0.00     0.082 C 
HETATM   17  C15 UNL     1      25.472   3.030  51.430  1.00  0.00     0.047 C 
HETATM   18  N5  UNL     1      25.489   2.334  52.503  1.00  0.00    -0.124 NA
HETATM   19  H7  UNL     1      22.877   1.422  52.244  1.00  0.00     0.115 HD
HETATM   20  H16 UNL     1      23.870   4.702  52.746  1.00  0.00     0.168 HD
ENDROOT
BRANCH   1  21
HETATM   21  N1  UNL     1      27.878   1.183  52.924  1.00  0.00    -0.368 N 
HETATM   22  C1  UNL     1      28.393   2.346  53.623  1.00  0.00     0.148 C 
HETATM   23  H4  UNL     1      28.019   0.268  52.465  1.00  0.00     0.161 HD
ENDBRANCH   1  21
BRANCH  10  24
HETATM   24  O1  UNL     1      21.916   5.421  51.466  1.00  0.00    -0.341 OA
HETATM   25  C9  UNL     1      21.067   5.992  50.523  1.00  0.00     0.211 C 
ENDBRANCH  10  24
TORSDOF 2
ENDMDL
MODEL 3
REMARK VINA RESULT:      -7.4      2.468      4.860
REMARK  2 active torsions:
REMARK  status: ('A' for Active; 'I' for Inactive)
REMARK    1  A    between atoms: N1_2  and  C2_3 
REMARK    2  A    between atoms: C8_12  and  O1_13 
ROOT
HETATM    1  C2  UNL     1      24.221   4.101  49.870  1.00  0.00     0.194 A 
HETATM    2  N2  UNL     1      25.166   3.478  50.396  1.00  0.00    -0.252 N 
HETATM    3  C3  UNL     1      26.576   3.601  50.285  1.00  0.00     0.303 C 
HETATM    4  N3  UNL     1      27.255   2.670  51.168  1.00  0.00    -0.251 NA
HETATM    5  S1  UNL     1      26.457   1.968  52.340  1.00  0.00    -0.116 SA
HETATM    6  C4  UNL     1      27.597   0.890  53.222  1.00  0.00     0.084 C 
HETATM    7  C5  UNL     1      26.848  -0.168  53.912  1.00  0.00    -0.009 C 
HETATM    8  C6  UNL     1      25.551   0.111  53.610  1.00  0.00     0.049 C 
HETATM    9  C7  UNL     1      24.262  -0.554  53.977  1.00  0.00     0.035 C 
HETATM   10  C8  UNL     1      23.251   0.090  53.444  1.00  0.00     0.138 C 
HETATM   11  N4  UNL     1      22.611   1.101  52.687  1.00  0.00    -0.336 N 
HETATM   12  C10 UNL     1      22.284   1.353  51.338  1.00  0.00     0.054 C 
HETATM   13  C11 UNL     1      21.240   0.651  50.898  1.00  0.00     0.031 C 
HETATM   14  C12 UNL     1      20.601   0.622  49.565  1.00  0.00    -0.001 C 
HETATM   15  C13 UNL     1      21.200   1.425  48.719  1.00  0.00    -0.021 C 
HETATM   16  C14 UNL     1      22.372   2.308  48.915  1.00  0.00     0.082 C 
HETATM   17  C15 UNL     1      22.791   2.269  50.327  1.00  0.00     0.047 C 
HETATM   18  N5  UNL     1      23.656   3.128  50.718  1.00  0.00    -0.124 NA
HETATM   19  H7  UNL     1      25.369   1.253  51.846  1.00  0.00     0.115 HD
HETATM   20  H16 UNL     1      22.154   2.000  52.899  1.00  0.00     0.168 HD
ENDROOT
BRANCH   1  21
HETATM   21  N1  UNL     1      23.926   5.154  48.975  1.00  0.00    -0.368 N 
HETATM   22  C1  UNL     1      22.989   6.022  49.664  1.00  0.00     0.148 C 
HETATM   23  H4  UNL     1      24.495   4.913  48.147  1.00  0.00     0.161 HD
ENDBRANCH   1  21
BRANCH  10  24
HETATM   24  O1  UNL     1      21.924  -0.322  53.628  1.00  0.00    -0.341 OA
HETATM   25  C9  UNL     1      21.507  -1.352  54.466  1.00  0.00     0.211 C 
ENDBRANCH  10  24
TORSDOF 2
ENDMDL
MODEL 4
REMARK VINA RESULT:      -7.3      2.583      5.521
REMARK  2 active torsions:
REMARK  status: ('A' for Active; 'I' for Inactive)
REMARK    1  A    between atoms: N1_2  and  C2_3 
REMARK    2  A    between atoms: C8_12  and  O1_13 
ROOT
HETATM    1  C2  UNL     1      22.037   0.270  53.644  1.00  0.00     0.194 A 
HETATM    2  N2  UNL     1      21.489   0.546  52.557  1.00  0.00    -0.252 N 
HETATM    3  C3  UNL     1      20.226   0.207  52.005  1.00  0.00     0.303 C 
HETATM    4  N3  UNL     1      20.029   0.843  50.715  1.00  0.00    -0.251 NA
HETATM    5  S1  UNL     1      20.959   2.046  50.278  1.00  0.00    -0.116 SA
HETATM    6  C4  UNL     1      20.439   2.584  48.640  1.00  0.00     0.084 C 
HETATM    7  C5  UNL     1      21.551   3.266  47.964  1.00  0.00    -0.009 C 
HETATM    8  C6  UNL     1      22.553   3.229  48.885  1.00  0.00     0.049 C 
HETATM    9  C7  UNL     1      23.961   3.735  48.866  1.00  0.00     0.035 C 
HETATM   10  C8  UNL     1      24.555   3.466  50.005  1.00  0.00     0.138 C 
HETATM   11  N4  UNL     1      24.667   2.954  51.320  1.00  0.00    -0.336 N 
HETATM   12  C10 UNL     1      24.946   1.722  51.947  1.00  0.00     0.054 C 
HETATM   13  C11 UNL     1      26.238   1.393  51.931  1.00  0.00     0.031 C 
HETATM   14  C12 UNL     1      26.926   0.197  52.464  1.00  0.00    -0.001 C 
HETATM   15  C13 UNL     1      26.085  -0.641  53.023  1.00  0.00    -0.021 C 
HETATM   16  C14 UNL     1      24.616  -0.551  53.178  1.00  0.00     0.082 C 
HETATM   17  C15 UNL     1      24.144   0.752  52.677  1.00  0.00     0.047 C 
HETATM   18  N5  UNL     1      22.933   1.083  52.923  1.00  0.00    -0.124 NA
HETATM   19  H7  UNL     1      22.299   1.669  50.282  1.00  0.00     0.115 HD
HETATM   20  H16 UNL     1      24.587   3.347  52.270  1.00  0.00     0.168 HD
ENDROOT
BRANCH   1  21
HETATM   21  N1  UNL     1      21.844  -0.431  54.855  1.00  0.00    -0.368 N 
HETATM   22  C1  UNL     1      21.549  -1.803  54.489  1.00  0.00     0.148 C 
HETATM   23  H4  UNL     1      21.987   0.304  55.567  1.00  0.00     0.161 HD
ENDBRANCH   1  21
BRANCH  10  24
HETATM   24  O1  UNL     1      25.885   3.829  50.256  1.00  0.00    -0.341 OA
HETATM   25  C9  UNL     1      26.860   4.046  49.286  1.00  0.00     0.211 C 
ENDBRANCH  10  24
TORSDOF 2
ENDMDL
MODEL 5
REMARK VINA RESULT:      -7.2      2.140      4.720
REMARK  2 active torsions:
REMARK  status: ('A' for Active; 'I' for Inactive)
REMARK    1  A    between atoms: N1_2  and  C2_3 
REMARK    2  A    between atoms: C8_12  and  O1_13 
ROOT
HETATM    1  C2  UNL     1      26.647  -0.553  53.030  1.00  0.00     0.194 A 
HETATM    2  N2  UNL     1      26.609   0.605  52.567  1.00  0.00    -0.252 N 
HETATM    3  C3  UNL     1      27.608   1.595  52.375  1.00  0.00     0.303 C 
HETATM    4  N3  UNL     1      27.061   2.773  51.726  1.00  0.00    -0.251 NA
HETATM    5  S1  UNL     1      25.657   2.695  51.002  1.00  0.00    -0.116 SA
HETATM    6  C4  UNL     1      25.293   4.320  50.316  1.00  0.00     0.084 C 
HETATM    7  C5  UNL     1      23.843   4.475  50.145  1.00  0.00    -0.009 C 
HETATM    8  C6  UNL     1      23.343   3.283  50.574  1.00  0.00     0.049 C 
HETATM    9  C7  UNL     1      21.948   2.752  50.677  1.00  0.00     0.035 C 
HETATM   10  C8  UNL     1      21.963   1.529  51.152  1.00  0.00     0.138 C 
HETATM   11  N4  UNL     1      22.544   0.339  51.653  1.00  0.00    -0.336 N 
HETATM   12  C10 UNL     1      23.002  -0.167  52.887  1.00  0.00     0.054 C 
HETATM   13  C11 UNL     1      22.022  -0.545  53.709  1.00  0.00     0.031 C 
HETATM   14  C12 UNL     1      22.085  -1.107  55.075  1.00  0.00    -0.001 C 
HETATM   15  C13 UNL     1      23.321  -1.224  55.499  1.00  0.00    -0.021 C 
HETATM   16  C14 UNL     1      24.593  -0.882  54.824  1.00  0.00     0.082 C 
HETATM   17  C15 UNL     1      24.318  -0.438  53.445  1.00  0.00     0.047 C 
HETATM   18  N5  UNL     1      25.313  -0.301  52.653  1.00  0.00    -0.124 NA
HETATM   19  H7  UNL     1      24.661   2.288  51.886  1.00  0.00     0.115 HD
HETATM   20  H16 UNL     1      22.813  -0.572  51.252  1.00  0.00     0.168 HD
ENDROOT
BRANCH   1  21
HETATM   21  N1  UNL     1      27.520  -1.517  53.583  1.00  0.00    -0.368 N 
HETATM   22  C1  UNL     1      27.563  -2.616  52.637  1.00  0.00     0.148 C 
HETATM   23  H4  UNL     1      27.811  -1.076  54.471  1.00  0.00     0.161 HD
ENDBRANCH   1  21
BRANCH  10  24
HETATM   24  O1  UNL     1      20.787   0.793  51.352  1.00  0.00    -0.341 OA
HETATM   25  C9  UNL     1      19.536   1.331  51.638  1.00  0.00     0.211 C 
ENDBRANCH  10  24
TORSDOF 2
ENDMDL
MODEL 6
REMARK VINA RESULT:      -7.2      2.359      4.642
REMARK  2 active torsions:
REMARK  status: ('A' for Active; 'I' for Inactive)
REMARK    1  A    between atoms: N1_2  and  C2_3 
REMARK    2  A    between atoms: C8_12  and  O1_13 
ROOT
HETATM    1  C2  UNL     1      25.583   3.330  50.948  1.00  0.00     0.194 A 
HETATM    2  N2  UNL     1      24.414   3.756  51.044  1.00  0.00    -0.252 N 
HETATM    3  C3  UNL     1      23.822   5.011  50.747  1.00  0.00     0.303 C 
HETATM    4  N3  UNL     1      22.388   4.981  50.971  1.00  0.00    -0.251 NA
HETATM    5  S1  UNL     1      21.640   3.594  51.116  1.00  0.00    -0.116 SA
HETATM    6  C4  UNL     1      19.892   3.930  51.384  1.00  0.00     0.084 C 
HETATM    7  C5  UNL     1      19.264   2.790  52.064  1.00  0.00    -0.009 C 
HETATM    8  C6  UNL     1      20.288   1.903  52.209  1.00  0.00     0.049 C 
HETATM    9  C7  UNL     1      20.363   0.538  52.815  1.00  0.00     0.035 C 
HETATM   10  C8  UNL     1      21.583   0.064  52.716  1.00  0.00     0.138 C 
HETATM   11  N4  UNL     1      22.952   0.072  52.355  1.00  0.00    -0.336 N 
HETATM   12  C10 UNL     1      24.172   0.548  52.877  1.00  0.00     0.054 C 
HETATM   13  C11 UNL     1      24.653  -0.192  53.877  1.00  0.00     0.031 C 
HETATM   14  C12 UNL     1      25.880  -0.025  54.684  1.00  0.00    -0.001 C 
HETATM   15  C13 UNL     1      26.561   1.038  54.324  1.00  0.00    -0.021 C 
HETATM   16  C14 UNL     1      26.273   2.038  53.272  1.00  0.00     0.082 C 
HETATM   17  C15 UNL     1      25.071   1.636  52.521  1.00  0.00     0.047 C 
HETATM   18  N5  UNL     1      24.797   2.272  51.446  1.00  0.00    -0.124 NA
HETATM   19  H7  UNL     1      22.174   2.845  52.161  1.00  0.00     0.115 HD
HETATM   20  H16 UNL     1      23.506  -0.297  51.567  1.00  0.00     0.168 HD
ENDROOT
BRANCH   1  21
HETATM   21  N1  UNL     1      26.889   3.705  50.560  1.00  0.00    -0.368 N 
HETATM   22  C1  UNL     1      26.812   4.045  49.152  1.00  0.00     0.148 C 
HETATM   23  H4  UNL     1      27.426   3.596  51.436  1.00  0.00     0.161 HD
ENDBRANCH   1  21
BRANCH  10  24
HETATM   24  O1  UNL     1      21.933  -1.201  53.206  1.00  0.00    -0.341 OA
HETATM   25  C9  UNL     1      21.449  -1.776  54.378  1.00  0.00     0.211 C 
ENDBRANCH  10  24
TORSDOF 2
ENDMDL
MODEL 7
REMARK VINA RESULT:      -7.0      1.951      3.192
REMARK  2 active torsions:
REMARK  status: ('A' for Active; 'I' for Inactive)
REMARK    1  A    between atoms: N1_2  and  C2_3 
REMARK    2  A    between atoms: C8_12  and  O1_13 
ROOT
HETATM    1  C2  UNL     1      25.445   3.748  50.784  1.00  0.00     0.194 A 
HETATM    2  N2  UNL     1      25.721   2.775  51.515  1.00  0.00    -0.252 N 
HETATM    3  C3  UNL     1      26.950   2.249  51.991  1.00  0.00     0.303 C 
HETATM    4  N3  UNL     1      26.731   1.126  52.883  1.00  0.00    -0.251 NA
HETATM    5  S1  UNL     1      25.295   0.875  53.499  1.00  0.00    -0.116 SA
HETATM    6  C4  UNL     1      25.385  -0.588  54.545  1.00  0.00     0.084 C 
HETATM    7  C5  UNL     1      24.051  -1.186  54.680  1.00  0.00    -0.009 C 
HETATM    8  C6  UNL     1      23.255  -0.357  53.949  1.00  0.00     0.049 C 
HETATM    9  C7  UNL     1      21.789  -0.367  53.654  1.00  0.00     0.035 C 
HETATM   10  C8  UNL     1      21.472   0.656  52.895  1.00  0.00     0.138 C 
HETATM   11  N4  UNL     1      21.702   1.835  52.146  1.00  0.00    -0.336 N 
HETATM   12  C10 UNL     1      22.126   2.187  50.847  1.00  0.00     0.054 C 
HETATM   13  C11 UNL     1      21.189   2.023  49.913  1.00  0.00     0.031 C 
HETATM   14  C12 UNL     1      21.240   2.265  48.456  1.00  0.00    -0.001 C 
HETATM   15  C13 UNL     1      22.418   2.700  48.074  1.00  0.00    -0.021 C 
HETATM   16  C14 UNL     1      23.637   2.964  48.871  1.00  0.00     0.082 C 
HETATM   17  C15 UNL     1      23.347   2.762  50.302  1.00  0.00     0.047 C 
HETATM   18  N5  UNL     1      24.224   3.146  51.149  1.00  0.00    -0.124 NA
HETATM   19  H7  UNL     1      24.341   0.719  52.496  1.00  0.00     0.115 HD
HETATM   20  H16 UNL     1      21.613   2.847  52.322  1.00  0.00     0.168 HD
ENDROOT
BRANCH   1  21
HETATM   21  N1  UNL     1      26.027   4.808  50.054  1.00  0.00    -0.368 N 
HETATM   22  C1  UNL     1      26.996   4.201  49.161  1.00  0.00     0.148 C 
HETATM   23  H4  UNL     1      25.540   5.638  50.431  1.00  0.00     0.161 HD
ENDBRANCH   1  21
BRANCH  10  24
HETATM   24  O1  UNL     1      20.158   0.887  52.466  1.00  0.00    -0.341 OA
HETATM   25  C9  UNL     1      19.167  -0.081  52.343  1.00  0.00     0.211 C 
ENDBRANCH  10  24
TORSDOF 2
ENDMDL
MODEL 8
REMARK VINA RESULT:      -6.9      8.836     11.076
REMARK  2 active torsions:
REMARK  status: ('A' for Active; 'I' for Inactive)
REMARK    1  A    between atoms: N1_2  and  C2_3 
REMARK    2  A    between atoms: C8_12  and  O1_13 
ROOT
HETATM    1  C2  UNL     1      33.815   6.747  47.971  1.00  0.00     0.194 A 
HETATM    2  N2  UNL     1      32.701   6.192  47.885  1.00  0.00    -0.252 N 
HETATM    3  C3  UNL     1      32.312   4.858  47.594  1.00  0.00     0.303 C 
HETATM    4  N3  UNL     1      30.872   4.700  47.683  1.00  0.00    -0.251 NA
HETATM    5  S1  UNL     1      30.000   5.801  48.412  1.00  0.00    -0.116 SA
HETATM    6  C4  UNL     1      28.276   5.287  48.333  1.00  0.00     0.084 C 
HETATM    7  C5  UNL     1      27.401   6.459  48.466  1.00  0.00    -0.009 C 
HETATM    8  C6  UNL     1      28.275   7.493  48.615  1.00  0.00     0.049 C 
HETATM    9  C7  UNL     1      28.076   8.965  48.798  1.00  0.00     0.035 C 
HETATM   10  C8  UNL     1      29.237   9.569  48.903  1.00  0.00     0.138 C 
HETATM   11  N4  UNL     1      30.648   9.667  48.953  1.00  0.00    -0.336 N 
HETATM   12  C10 UNL     1      31.726   9.761  48.048  1.00  0.00     0.054 C 
HETATM   13  C11 UNL     1      31.867  10.970  47.504  1.00  0.00     0.031 C 
HETATM   14  C12 UNL     1      32.852  11.465  46.519  1.00  0.00    -0.001 C 
HETATM   15  C13 UNL     1      33.688  10.524  46.149  1.00  0.00    -0.021 C 
HETATM   16  C14 UNL     1      33.768   9.107  46.566  1.00  0.00     0.082 C 
HETATM   17  C15 UNL     1      32.773   8.844  47.622  1.00  0.00     0.047 C 
HETATM   18  N5  UNL     1      32.842   7.729  48.243  1.00  0.00    -0.124 NA
HETATM   19  H7  UNL     1      30.180   7.051  47.826  1.00  0.00     0.115 HD
HETATM   20  H16 UNL     1      31.355   9.716  49.701  1.00  0.00     0.168 HD
ENDROOT
BRANCH   1  21
HETATM   21  N1  UNL     1      35.204   6.506  47.866  1.00  0.00    -0.368 N 
HETATM   22  C1  UNL     1      35.599   5.858  49.102  1.00  0.00     0.148 C 
HETATM   23  H4  UNL     1      35.429   6.887  46.932  1.00  0.00     0.161 HD
ENDBRANCH   1  21
BRANCH  10  24
HETATM   24  O1  UNL     1      29.341  10.955  49.081  1.00  0.00    -0.341 OA
HETATM   25  C9  UNL     1      28.399  11.895  48.675  1.00  0.00     0.211 C 
ENDBRANCH  10  24
TORSDOF 2
ENDMDL
MODEL 9
REMARK VINA RESULT:      -6.8      2.226      5.360
REMARK  2 active torsions:
REMARK  status: ('A' for Active; 'I' for Inactive)
REMARK    1  A    between atoms: N1_2  and  C2_3 
REMARK    2  A    between atoms: C8_12  and  O1_13 
ROOT
HETATM    1  C2  UNL     1      19.925   0.014  52.691  1.00  0.00     0.194 A 
HETATM    2  N2  UNL     1      20.878  -0.277  53.442  1.00  0.00    -0.252 N 
HETATM    3  C3  UNL     1      20.971  -1.078  54.610  1.00  0.00     0.303 C 
HETATM    4  N3  UNL     1      22.340  -1.157  55.084  1.00  0.00    -0.251 NA
HETATM    5  S1  UNL     1      23.531  -0.730  54.135  1.00  0.00    -0.116 SA
HETATM    6  C4  UNL     1      25.072  -0.953  55.039  1.00  0.00     0.084 C 
HETATM    7  C5  UNL     1      26.113  -0.086  54.471  1.00  0.00    -0.009 C 
HETATM    8  C6  UNL     1      25.476   0.545  53.446  1.00  0.00     0.049 C 
HETATM    9  C7  UNL     1      25.932   1.561  52.446  1.00  0.00     0.035 C 
HETATM   10  C8  UNL     1      24.947   1.874  51.637  1.00  0.00     0.138 C 
HETATM   11  N4  UNL     1      23.634   1.820  51.110  1.00  0.00    -0.336 N 
HETATM   12  C10 UNL     1      22.375   2.402  51.369  1.00  0.00     0.054 C 
HETATM   13  C11 UNL     1      22.270   3.663  50.950  1.00  0.00     0.031 C 
HETATM   14  C12 UNL     1      21.137   4.608  51.041  1.00  0.00    -0.001 C 
HETATM   15  C13 UNL     1      20.102   4.073  51.645  1.00  0.00    -0.021 C 
HETATM   16  C14 UNL     1      19.932   2.719  52.218  1.00  0.00     0.082 C 
HETATM   17  C15 UNL     1      21.128   1.907  51.933  1.00  0.00     0.047 C 
HETATM   18  N5  UNL     1      21.069   0.652  52.173  1.00  0.00    -0.124 NA
HETATM   19  H7  UNL     1      23.384   0.587  53.709  1.00  0.00     0.115 HD
HETATM   20  H16 UNL     1      23.175   1.326  50.331  1.00  0.00     0.168 HD
ENDROOT
BRANCH   1  21
HETATM   21  N1  UNL     1      18.541  -0.196  52.496  1.00  0.00    -0.368 N 
HETATM   22  C1  UNL     1      18.326  -0.181  51.061  1.00  0.00     0.148 C 
HETATM   23  H4  UNL     1      18.187  -0.285  53.463  1.00  0.00     0.161 HD
ENDBRANCH   1  21
BRANCH  10  24
HETATM   24  O1  UNL     1      25.101   2.807  50.603  1.00  0.00    -0.341 OA
HETATM   25  C9  UNL     1      26.303   3.137  49.985  1.00  0.00     0.211 C 
ENDBRANCH  10  24
TORSDOF 2
ENDMDL
