MODEL 1
REMARK VINA RESULT:      -7.2      0.000      0.000
REMARK  3 active torsions:
REMARK  status: ('A' for Active; 'I' for Inactive)
REMARK    1  A    between atoms: O1_2  and  C2_3 
REMARK    2  A    between atoms: C10_12  and  C11_13 
REMARK    3  A    between atoms: N2_14  and  C12_15 
ROOT
HETATM    1  C2  UNL     1      23.142   2.279  49.901  1.00  0.00     0.069 A 
HETATM    2  C3  UNL     1      22.077   1.603  50.445  1.00  0.00     0.039 A 
HETATM    3  C4  UNL     1      22.211   1.083  51.717  1.00  0.00     0.040 A 
HETATM    4  C5  UNL     1      23.370   1.221  52.450  1.00  0.00     0.085 A 
HETATM    5  C6  UNL     1      24.473   1.911  51.914  1.00  0.00     0.000 A 
HETATM    6  C7  UNL     1      24.281   2.401  50.654  1.00  0.00     0.048 A 
HETATM    7  C8  UNL     1      25.713   2.063  52.723  1.00  0.00     0.111 C 
HETATM    8  C9  UNL     1      26.861   2.283  51.819  1.00  0.00     0.037 C 
HETATM    9  N1  UNL     1      25.754   1.000  53.635  1.00  0.00    -0.388 N 
HETATM   10  C10 UNL     1      26.086  -0.302  53.223  1.00  0.00     0.237 C 
HETATM   11  N3  UNL     1      25.659  -1.223  54.263  1.00  0.00    -0.285 N 
HETATM   12  N4  UNL     1      24.586  -0.389  54.023  1.00  0.00    -0.165 NA
HETATM   13  C13 UNL     1      23.393  -0.779  53.874  1.00  0.00     0.280 C 
HETATM   14  O2  UNL     1      23.277   0.607  53.726  1.00  0.00    -0.302 OA
HETATM   15  H11 UNL     1      25.590   1.173  54.625  1.00  0.00     0.156 HD
HETATM   16  H16 UNL     1      26.156  -2.010  54.738  1.00  0.00     0.185 HD
ENDROOT
BRANCH  10  17
HETATM   17  C11 UNL     1      27.596  -0.332  53.048  1.00  0.00     0.133 C 
HETATM   18  N2  UNL     1      28.330  -1.043  53.808  1.00  0.00    -0.271 NA
BRANCH  18  19
HETATM   19  C12 UNL     1      29.746  -1.034  53.596  1.00  0.00     0.370 C 
HETATM   20  F1  UNL     1      30.161   0.244  53.346  1.00  0.00    -0.232 F 
ENDBRANCH  18  19
ENDBRANCH  10  17
BRANCH   1  21
HETATM   21  O1  UNL     1      23.066   2.817  48.638  1.00  0.00    -0.356 OA
HETATM   22  C1  UNL     1      22.409   2.063  47.637  1.00  0.00     0.210 C 
ENDBRANCH   1  21
TORSDOF 3
ENDMDL
MODEL 2
REMARK VINA RESULT:      -7.0      2.878      4.330
REMARK  3 active torsions:
REMARK  status: ('A' for Active; 'I' for Inactive)
REMARK    1  A    between atoms: O1_2  and  C2_3 
REMARK    2  A    between atoms: C10_12  and  C11_13 
REMARK    3  A    between atoms: N2_14  and  C12_15 
ROOT
HETATM    1  C2  UNL     1      21.322   0.129  52.647  1.00  0.00     0.069 A 
HETATM    2  C3  UNL     1      22.031  -0.925  53.170  1.00  0.00     0.039 A 
HETATM    3  C4  UNL     1      23.337  -0.706  53.562  1.00  0.00     0.040 A 
HETATM    4  C5  UNL     1      23.944   0.527  53.445  1.00  0.00     0.085 A 
HETATM    5  C6  UNL     1      23.236   1.620  52.913  1.00  0.00     0.000 A 
HETATM    6  C7  UNL     1      21.951   1.342  52.543  1.00  0.00     0.048 A 
HETATM    7  C8  UNL     1      23.901   2.947  52.804  1.00  0.00     0.111 C 
HETATM    8  C9  UNL     1      23.232   3.744  51.754  1.00  0.00     0.037 C 
HETATM    9  N1  UNL     1      25.282   2.721  52.716  1.00  0.00    -0.388 N 
HETATM   10  C10 UNL     1      25.868   2.241  51.533  1.00  0.00     0.237 C 
HETATM   11  N3  UNL     1      27.190   1.735  51.862  1.00  0.00    -0.285 N 
HETATM   12  N4  UNL     1      26.327   1.190  52.792  1.00  0.00    -0.165 NA
HETATM   13  C13 UNL     1      26.316  -0.027  53.134  1.00  0.00     0.280 C 
HETATM   14  O2  UNL     1      25.285   0.513  53.909  1.00  0.00    -0.302 OA
HETATM   15  H11 UNL     1      25.886   2.953  53.502  1.00  0.00     0.156 HD
HETATM   16  H16 UNL     1      28.123   1.895  51.419  1.00  0.00     0.185 HD
ENDROOT
BRANCH  10  17
HETATM   17  C11 UNL     1      25.953   3.420  50.578  1.00  0.00     0.133 C 
HETATM   18  N2  UNL     1      26.963   3.577  49.818  1.00  0.00    -0.271 NA
BRANCH  18  19
HETATM   19  C12 UNL     1      26.988   4.706  48.938  1.00  0.00     0.370 C 
HETATM   20  F1  UNL     1      28.181   4.741  48.274  1.00  0.00    -0.232 F 
ENDBRANCH  18  19
ENDBRANCH  10  17
BRANCH   1  21
HETATM   21  O1  UNL     1      20.019  -0.031  52.239  1.00  0.00    -0.356 OA
HETATM   22  C1  UNL     1      19.115  -0.641  53.141  1.00  0.00     0.210 C 
ENDBRANCH   1  21
TORSDOF 3
ENDMDL
MODEL 3
REMARK VINA RESULT:      -7.0      3.951      6.134
REMARK  3 active torsions:
REMARK  status: ('A' for Active; 'I' for Inactive)
REMARK    1  A    between atoms: O1_2  and  C2_3 
REMARK    2  A    between atoms: C10_12  and  C11_13 
REMARK    3  A    between atoms: N2_14  and  C12_15 
ROOT
HETATM    1  C2  UNL     1      26.309   1.570  53.899  1.00  0.00     0.069 A 
HETATM    2  C3  UNL     1      26.240   0.376  54.573  1.00  0.00     0.039 A 
HETATM    3  C4  UNL     1      25.180  -0.468  54.306  1.00  0.00     0.040 A 
HETATM    4  C5  UNL     1      24.199  -0.150  53.392  1.00  0.00     0.085 A 
HETATM    5  C6  UNL     1      24.249   1.068  52.689  1.00  0.00     0.000 A 
HETATM    6  C7  UNL     1      25.320   1.859  52.996  1.00  0.00     0.048 A 
HETATM    7  C8  UNL     1      23.189   1.392  51.696  1.00  0.00     0.111 C 
HETATM    8  C9  UNL     1      23.115   2.858  51.523  1.00  0.00     0.037 C 
HETATM    9  N1  UNL     1      22.036   0.687  52.067  1.00  0.00    -0.388 N 
HETATM   10  C10 UNL     1      21.250   1.095  53.158  1.00  0.00     0.237 C 
HETATM   11  N3  UNL     1      20.396  -0.018  53.535  1.00  0.00    -0.285 N 
HETATM   12  N4  UNL     1      21.670  -0.535  53.414  1.00  0.00    -0.165 NA
HETATM   13  C13 UNL     1      22.212  -1.310  54.252  1.00  0.00     0.280 C 
HETATM   14  O2  UNL     1      23.213  -1.164  53.285  1.00  0.00    -0.302 OA
HETATM   15  H11 UNL     1      21.725  -0.107  51.511  1.00  0.00     0.156 HD
HETATM   16  H16 UNL     1      19.370  -0.069  53.727  1.00  0.00     0.185 HD
ENDROOT
BRANCH  10  17
HETATM   17  C11 UNL     1      20.429   2.283  52.685  1.00  0.00     0.133 C 
HETATM   18  N2  UNL     1      19.435   2.124  51.906  1.00  0.00    -0.271 NA
BRANCH  18  19
HETATM   19  C12 UNL     1      18.697   3.280  51.493  1.00  0.00     0.370 C 
HETATM   20  F1  UNL     1      19.531   4.361  51.447  1.00  0.00    -0.232 F 
ENDBRANCH  18  19
ENDBRANCH  10  17
BRANCH   1  21
HETATM   21  O1  UNL     1      27.342   2.449  54.124  1.00  0.00    -0.356 OA
HETATM   22  C1  UNL     1      28.622   2.106  53.629  1.00  0.00     0.210 C 
ENDBRANCH   1  21
TORSDOF 3
ENDMDL
MODEL 4
REMARK VINA RESULT:      -6.8      3.731      6.390
REMARK  3 active torsions:
REMARK  status: ('A' for Active; 'I' for Inactive)
REMARK    1  A    between atoms: O1_2  and  C2_3 
REMARK    2  A    between atoms: C10_12  and  C11_13 
REMARK    3  A    between atoms: N2_14  and  C12_15 
ROOT
HETATM    1  C2  UNL     1      26.609  -0.716  52.949  1.00  0.00     0.069 A 
HETATM    2  C3  UNL     1      27.251   0.290  52.268  1.00  0.00     0.039 A 
HETATM    3  C4  UNL     1      26.524   1.410  51.916  1.00  0.00     0.040 A 
HETATM    4  C5  UNL     1      25.187   1.546  52.224  1.00  0.00     0.085 A 
HETATM    5  C6  UNL     1      24.510   0.529  52.921  1.00  0.00     0.000 A 
HETATM    6  C7  UNL     1      25.281  -0.552  53.242  1.00  0.00     0.048 A 
HETATM    7  C8  UNL     1      23.070   0.697  53.257  1.00  0.00     0.111 C 
HETATM    8  C9  UNL     1      22.456  -0.634  53.449  1.00  0.00     0.037 C 
HETATM    9  N1  UNL     1      22.518   1.577  52.317  1.00  0.00    -0.388 N 
HETATM   10  C10 UNL     1      22.245   1.162  51.002  1.00  0.00     0.237 C 
HETATM   11  N3  UNL     1      22.074   2.351  50.184  1.00  0.00    -0.285 N 
HETATM   12  N4  UNL     1      23.235   2.544  50.905  1.00  0.00    -0.165 NA
HETATM   13  C13 UNL     1      24.321   2.964  50.415  1.00  0.00     0.280 C 
HETATM   14  O2  UNL     1      24.651   2.776  51.762  1.00  0.00    -0.302 OA
HETATM   15  H11 UNL     1      22.259   2.522  52.595  1.00  0.00     0.156 HD
HETATM   16  H16 UNL     1      21.333   2.618  49.497  1.00  0.00     0.185 HD
ENDROOT
BRANCH  10  17
HETATM   17  C11 UNL     1      20.965   0.345  51.059  1.00  0.00     0.133 C 
HETATM   18  N2  UNL     1      19.845   0.898  51.307  1.00  0.00    -0.271 NA
BRANCH  18  19
HETATM   19  C12 UNL     1      18.671   0.077  51.347  1.00  0.00     0.370 C 
HETATM   20  F1  UNL     1      18.729  -0.750  52.432  1.00  0.00    -0.232 F 
ENDBRANCH  18  19
ENDBRANCH  10  17
BRANCH   1  21
HETATM   21  O1  UNL     1      27.282  -1.855  53.325  1.00  0.00    -0.356 OA
HETATM   22  C1  UNL     1      28.691  -1.864  53.190  1.00  0.00     0.210 C 
ENDBRANCH   1  21
TORSDOF 3
ENDMDL
MODEL 5
REMARK VINA RESULT:      -6.6      3.676      5.608
REMARK  3 active torsions:
REMARK  status: ('A' for Active; 'I' for Inactive)
REMARK    1  A    between atoms: O1_2  and  C2_3 
REMARK    2  A    between atoms: C10_12  and  C11_13 
REMARK    3  A    between atoms: N2_14  and  C12_15 
ROOT
HETATM    1  C2  UNL     1      22.416   0.098  53.237  1.00  0.00     0.069 A 
HETATM    2  C3  UNL     1      23.591  -0.535  53.562  1.00  0.00     0.039 A 
HETATM    3  C4  UNL     1      24.764   0.192  53.510  1.00  0.00     0.040 A 
HETATM    4  C5  UNL     1      24.790   1.521  53.144  1.00  0.00     0.085 A 
HETATM    5  C6  UNL     1      23.599   2.189  52.808  1.00  0.00     0.000 A 
HETATM    6  C7  UNL     1      22.473   1.419  52.878  1.00  0.00     0.048 A 
HETATM    7  C8  UNL     1      23.642   3.628  52.428  1.00  0.00     0.111 C 
HETATM    8  C9  UNL     1      22.458   3.950  51.605  1.00  0.00     0.037 C 
HETATM    9  N1  UNL     1      24.922   3.891  51.920  1.00  0.00    -0.388 N 
HETATM   10  C10 UNL     1      25.300   3.458  50.638  1.00  0.00     0.237 C 
HETATM   11  N3  UNL     1      26.750   3.513  50.558  1.00  0.00    -0.285 N 
HETATM   12  N4  UNL     1      26.454   2.862  51.739  1.00  0.00    -0.165 NA
HETATM   13  C13 UNL     1      27.009   1.795  52.128  1.00  0.00     0.280 C 
HETATM   14  O2  UNL     1      26.103   2.059  53.161  1.00  0.00    -0.302 OA
HETATM   15  H11 UNL     1      25.578   4.449  52.462  1.00  0.00     0.156 HD
HETATM   16  H16 UNL     1      27.389   3.915  49.835  1.00  0.00     0.185 HD
ENDROOT
BRANCH  10  17
HETATM   17  C11 UNL     1      24.658   4.415  49.647  1.00  0.00     0.133 C 
HETATM   18  N2  UNL     1      25.191   5.542  49.385  1.00  0.00    -0.271 NA
BRANCH  18  19
HETATM   19  C12 UNL     1      24.541   6.402  48.442  1.00  0.00     0.370 C 
HETATM   20  F1  UNL     1      25.478   6.986  47.637  1.00  0.00    -0.232 F 
ENDBRANCH  18  19
ENDBRANCH  10  17
BRANCH   1  21
HETATM   21  O1  UNL     1      21.219  -0.576  53.271  1.00  0.00    -0.356 OA
HETATM   22  C1  UNL     1      21.050  -1.574  54.261  1.00  0.00     0.210 C 
ENDBRANCH   1  21
TORSDOF 3
ENDMDL
MODEL 6
REMARK VINA RESULT:      -6.6      4.189      6.685
REMARK  3 active torsions:
REMARK  status: ('A' for Active; 'I' for Inactive)
REMARK    1  A    between atoms: O1_2  and  C2_3 
REMARK    2  A    between atoms: C10_12  and  C11_13 
REMARK    3  A    between atoms: N2_14  and  C12_15 
ROOT
HETATM    1  C2  UNL     1      25.430  -0.541  53.295  1.00  0.00     0.069 A 
HETATM    2  C3  UNL     1      25.722   0.524  52.478  1.00  0.00     0.039 A 
HETATM    3  C4  UNL     1      24.728   1.448  52.225  1.00  0.00     0.040 A 
HETATM    4  C5  UNL     1      23.463   1.335  52.762  1.00  0.00     0.085 A 
HETATM    5  C6  UNL     1      23.142   0.253  53.603  1.00  0.00     0.000 A 
HETATM    6  C7  UNL     1      24.165  -0.627  53.815  1.00  0.00     0.048 A 
HETATM    7  C8  UNL     1      21.776   0.151  54.186  1.00  0.00     0.111 C 
HETATM    8  C9  UNL     1      21.496  -1.259  54.528  1.00  0.00     0.037 C 
HETATM    9  N1  UNL     1      20.901   0.835  53.331  1.00  0.00    -0.388 N 
HETATM   10  C10 UNL     1      20.505   0.284  52.101  1.00  0.00     0.237 C 
HETATM   11  N3  UNL     1      19.952   1.355  51.288  1.00  0.00    -0.285 N 
HETATM   12  N4  UNL     1      21.152   1.827  51.783  1.00  0.00    -0.165 NA
HETATM   13  C13 UNL     1      22.027   2.421  51.092  1.00  0.00     0.280 C 
HETATM   14  O2  UNL     1      22.611   2.397  52.364  1.00  0.00    -0.302 OA
HETATM   15  H11 UNL     1      20.501   1.726  53.620  1.00  0.00     0.156 HD
HETATM   16  H16 UNL     1      19.067   1.419  50.737  1.00  0.00     0.185 HD
ENDROOT
BRANCH  10  17
HETATM   17  C11 UNL     1      19.453  -0.768  52.413  1.00  0.00     0.133 C 
HETATM   18  N2  UNL     1      18.313  -0.438  52.876  1.00  0.00    -0.271 NA
BRANCH  18  19
HETATM   19  C12 UNL     1      17.361  -1.472  53.151  1.00  0.00     0.370 C 
HETATM   20  F1  UNL     1      17.936  -2.423  53.946  1.00  0.00    -0.232 F 
ENDBRANCH  18  19
ENDBRANCH  10  17
BRANCH   1  21
HETATM   21  O1  UNL     1      26.380  -1.492  53.582  1.00  0.00    -0.356 OA
HETATM   22  C1  UNL     1      26.969  -2.185  52.497  1.00  0.00     0.210 C 
ENDBRANCH   1  21
TORSDOF 3
ENDMDL
MODEL 7
REMARK VINA RESULT:      -6.5      3.738      5.854
REMARK  3 active torsions:
REMARK  status: ('A' for Active; 'I' for Inactive)
REMARK    1  A    between atoms: O1_2  and  C2_3 
REMARK    2  A    between atoms: C10_12  and  C11_13 
REMARK    3  A    between atoms: N2_14  and  C12_15 
ROOT
HETATM    1  C2  UNL     1      24.564  -0.392  53.955  1.00  0.00     0.069 A 
HETATM    2  C3  UNL     1      23.283  -0.809  54.226  1.00  0.00     0.039 A 
HETATM    3  C4  UNL     1      22.244  -0.232  53.524  1.00  0.00     0.040 A 
HETATM    4  C5  UNL     1      22.451   0.741  52.570  1.00  0.00     0.085 A 
HETATM    5  C6  UNL     1      23.753   1.183  52.275  1.00  0.00     0.000 A 
HETATM    6  C7  UNL     1      24.739   0.576  53.001  1.00  0.00     0.048 A 
HETATM    7  C8  UNL     1      23.962   2.225  51.233  1.00  0.00     0.111 C 
HETATM    8  C9  UNL     1      25.245   2.914  51.482  1.00  0.00     0.037 C 
HETATM    9  N1  UNL     1      22.783   2.979  51.150  1.00  0.00    -0.388 N 
HETATM   10  C10 UNL     1      22.450   3.921  52.139  1.00  0.00     0.237 C 
HETATM   11  N3  UNL     1      21.037   4.231  52.002  1.00  0.00    -0.285 N 
HETATM   12  N4  UNL     1      21.132   2.854  51.986  1.00  0.00    -0.165 NA
HETATM   13  C13 UNL     1      20.391   2.077  52.652  1.00  0.00     0.280 C 
HETATM   14  O2  UNL     1      21.238   1.186  51.983  1.00  0.00    -0.302 OA
HETATM   15  H11 UNL     1      22.177   2.887  50.338  1.00  0.00     0.156 HD
HETATM   16  H16 UNL     1      20.529   5.144  51.968  1.00  0.00     0.185 HD
ENDROOT
BRANCH  10  17
HETATM   17  C11 UNL     1      23.310   5.147  51.881  1.00  0.00     0.133 C 
HETATM   18  N2  UNL     1      22.958   6.028  51.032  1.00  0.00    -0.271 NA
BRANCH  18  19
HETATM   19  C12 UNL     1      23.807   7.164  50.832  1.00  0.00     0.370 C 
HETATM   20  F1  UNL     1      25.114   6.767  50.863  1.00  0.00    -0.232 F 
ENDBRANCH  18  19
ENDBRANCH  10  17
BRANCH   1  21
HETATM   21  O1  UNL     1      25.638  -0.931  54.623  1.00  0.00    -0.356 OA
HETATM   22  C1  UNL     1      26.732  -0.081  54.910  1.00  0.00     0.210 C 
ENDBRANCH   1  21
TORSDOF 3
ENDMDL
MODEL 8
REMARK VINA RESULT:      -6.4      7.384      8.879
REMARK  3 active torsions:
REMARK  status: ('A' for Active; 'I' for Inactive)
REMARK    1  A    between atoms: O1_2  and  C2_3 
REMARK    2  A    between atoms: C10_12  and  C11_13 
REMARK    3  A    between atoms: N2_14  and  C12_15 
ROOT
HETATM    1  C2  UNL     1      26.706   4.770  49.129  1.00  0.00     0.069 A 
HETATM    2  C3  UNL     1      25.931   5.831  49.528  1.00  0.00     0.039 A 
HETATM    3  C4  UNL     1      26.400   7.109  49.299  1.00  0.00     0.040 A 
HETATM    4  C5  UNL     1      27.612   7.349  48.688  1.00  0.00     0.085 A 
HETATM    5  C6  UNL     1      28.422   6.278  48.269  1.00  0.00     0.000 A 
HETATM    6  C7  UNL     1      27.906   5.039  48.523  1.00  0.00     0.048 A 
HETATM    7  C8  UNL     1      29.722   6.554  47.599  1.00  0.00     0.111 C 
HETATM    8  C9  UNL     1      30.614   5.386  47.765  1.00  0.00     0.037 C 
HETATM    9  N1  UNL     1      30.158   7.815  48.028  1.00  0.00    -0.388 N 
HETATM   10  C10 UNL     1      30.690   8.004  49.314  1.00  0.00     0.237 C 
HETATM   11  N3  UNL     1      30.668   9.428  49.602  1.00  0.00    -0.285 N 
HETATM   12  N4  UNL     1      29.413   9.114  49.123  1.00  0.00    -0.165 NA
HETATM   13  C13 UNL     1      28.328   9.492  49.650  1.00  0.00     0.280 C 
HETATM   14  O2  UNL     1      27.886   8.736  48.559  1.00  0.00    -0.302 OA
HETATM   15  H11 UNL     1      30.140   8.604  47.385  1.00  0.00     0.156 HD
HETATM   16  H16 UNL     1      31.403  10.070  49.977  1.00  0.00     0.185 HD
ENDROOT
BRANCH  10  17
HETATM   17  C11 UNL     1      32.113   7.471  49.281  1.00  0.00     0.133 C 
HETATM   18  N2  UNL     1      32.997   8.009  48.538  1.00  0.00    -0.271 NA
BRANCH  18  19
HETATM   19  C12 UNL     1      34.322   7.465  48.548  1.00  0.00     0.370 C 
HETATM   20  F1  UNL     1      34.384   6.397  47.698  1.00  0.00    -0.232 F 
ENDBRANCH  18  19
ENDBRANCH  10  17
BRANCH   1  21
HETATM   21  O1  UNL     1      26.290   3.476  49.332  1.00  0.00    -0.356 OA
HETATM   22  C1  UNL     1      24.939   3.266  49.699  1.00  0.00     0.210 C 
ENDBRANCH   1  21
TORSDOF 3
ENDMDL
MODEL 9
REMARK VINA RESULT:      -6.2      4.387      6.222
REMARK  3 active torsions:
REMARK  status: ('A' for Active; 'I' for Inactive)
REMARK    1  A    between atoms: O1_2  and  C2_3 
REMARK    2  A    between atoms: C10_12  and  C11_13 
REMARK    3  A    between atoms: N2_14  and  C12_15 
ROOT
HETATM    1  C2  UNL     1      23.672   3.360  52.144  1.00  0.00     0.069 A 
HETATM    2  C3  UNL     1      24.573   2.821  53.030  1.00  0.00     0.039 A 
HETATM    3  C4  UNL     1      24.435   1.492  53.379  1.00  0.00     0.040 A 
HETATM    4  C5  UNL     1      23.428   0.699  52.871  1.00  0.00     0.085 A 
HETATM    5  C6  UNL     1      22.495   1.229  51.962  1.00  0.00     0.000 A 
HETATM    6  C7  UNL     1      22.683   2.547  51.656  1.00  0.00     0.048 A 
HETATM    7  C8  UNL     1      21.422   0.356  51.412  1.00  0.00     0.111 C 
HETATM    8  C9  UNL     1      20.287   1.196  50.974  1.00  0.00     0.037 C 
HETATM    9  N1  UNL     1      21.197  -0.669  52.341  1.00  0.00    -0.388 N 
HETATM   10  C10 UNL     1      20.500  -0.430  53.537  1.00  0.00     0.237 C 
HETATM   11  N3  UNL     1      20.773  -1.533  54.443  1.00  0.00    -0.285 N 
HETATM   12  N4  UNL     1      21.998  -1.126  53.951  1.00  0.00    -0.165 NA
HETATM   13  C13 UNL     1      23.028  -0.938  54.658  1.00  0.00     0.280 C 
HETATM   14  O2  UNL     1      23.484  -0.628  53.372  1.00  0.00    -0.302 OA
HETATM   15  H11 UNL     1      21.495  -1.620  52.130  1.00  0.00     0.156 HD
HETATM   16  H16 UNL     1      20.138  -2.127  55.022  1.00  0.00     0.185 HD
ENDROOT
BRANCH  10  17
HETATM   17  C11 UNL     1      19.024  -0.367  53.178  1.00  0.00     0.133 C 
HETATM   18  N2  UNL     1      18.280  -1.395  53.282  1.00  0.00    -0.271 NA
BRANCH  18  19
HETATM   19  C12 UNL     1      16.896  -1.276  52.930  1.00  0.00     0.370 C 
HETATM   20  F1  UNL     1      16.398  -2.508  52.613  1.00  0.00    -0.232 F 
ENDBRANCH  18  19
ENDBRANCH  10  17
BRANCH   1  21
HETATM   21  O1  UNL     1      23.761   4.677  51.761  1.00  0.00    -0.356 OA
HETATM   22  C1  UNL     1      22.556   5.404  51.611  1.00  0.00     0.210 C 
ENDBRANCH   1  21
TORSDOF 3
ENDMDL
