MODEL 1
REMARK VINA RESULT:      -8.1      0.000      0.000
REMARK  6 active torsions:
REMARK  status: ('A' for Active; 'I' for Inactive)
REMARK    1  A    between atoms: C2_2  and  C8_10 
REMARK    2  A    between atoms: C3_3  and  N1_4 
REMARK    3  A    between atoms: C8_10  and  C9_12 
REMARK    4  A    between atoms: C12_15  and  O3_16 
REMARK    5  A    between atoms: O3_16  and  C13_17 
REMARK    6  A    between atoms: C13_17  and  C14_18 
ROOT
HETATM    1  C9  UNL     1      23.021   2.330  51.759  1.00  0.00     0.015 A 
HETATM    2  C10 UNL     1      23.223   3.513  52.411  1.00  0.00     0.018 A 
HETATM    3  C11 UNL     1      23.549   4.622  51.667  1.00  0.00     0.038 A 
HETATM    4  C12 UNL     1      23.690   4.631  50.301  1.00  0.00     0.069 A 
HETATM    5  C20 UNL     1      23.475   3.401  49.681  1.00  0.00     0.038 A 
HETATM    6  C21 UNL     1      23.141   2.250  50.405  1.00  0.00     0.018 A 
ENDROOT
BRANCH   1   7
HETATM    7  C8  UNL     1      22.679   1.200  52.606  1.00  0.00     0.189 C 
HETATM    8  O2  UNL     1      21.483   0.880  52.811  1.00  0.00    -0.287 OA
BRANCH   7   9
HETATM    9  C2  UNL     1      23.478   0.253  53.351  1.00  0.00     0.004 C 
HETATM   10  C1  UNL     1      23.160  -0.862  54.269  1.00  0.00     0.054 C 
HETATM   11  C3  UNL     1      24.738   0.512  53.101  1.00  0.00     0.096 C 
BRANCH  11  12
HETATM   12  N1  UNL     1      25.844  -0.171  53.624  1.00  0.00    -0.385 N 
HETATM   13  C4  UNL     1      26.399   0.150  54.925  1.00  0.00     0.148 C 
HETATM   14  C5  UNL     1      27.896   0.285  54.740  1.00  0.00     0.187 C 
HETATM   15  O1  UNL     1      28.395  -0.903  54.269  1.00  0.00    -0.388 OA
HETATM   16  C6  UNL     1      27.957  -1.295  53.031  1.00  0.00     0.187 C 
HETATM   17  C7  UNL     1      26.465  -1.227  52.868  1.00  0.00     0.148 C 
ENDBRANCH  11  12
ENDBRANCH   7   9
ENDBRANCH   1   7
BRANCH   4  18
HETATM   18  O3  UNL     1      23.989   5.528  49.336  1.00  0.00    -0.347 OA
BRANCH  18  19
HETATM   19  C13 UNL     1      24.852   6.607  49.302  1.00  0.00     0.214 C 
BRANCH  19  20
HETATM   20  C14 UNL     1      26.236   6.249  48.917  1.00  0.00    -0.034 A 
HETATM   21  C15 UNL     1      26.999   7.347  48.503  1.00  0.00     0.009 A 
HETATM   22  C16 UNL     1      28.307   7.265  48.081  1.00  0.00     0.001 A 
HETATM   23  C17 UNL     1      28.938   6.044  48.052  1.00  0.00     0.000 A 
HETATM   24  C18 UNL     1      28.203   4.955  48.456  1.00  0.00     0.001 A 
HETATM   25  C19 UNL     1      26.897   5.044  48.875  1.00  0.00     0.009 A 
ENDBRANCH  19  20
ENDBRANCH  18  19
ENDBRANCH   4  18
TORSDOF 6
ENDMDL
MODEL 2
REMARK VINA RESULT:      -7.9      2.860      8.189
REMARK  6 active torsions:
REMARK  status: ('A' for Active; 'I' for Inactive)
REMARK    1  A    between atoms: C2_2  and  C8_10 
REMARK    2  A    between atoms: C3_3  and  N1_4 
REMARK    3  A    between atoms: C8_10  and  C9_12 
REMARK    4  A    between atoms: C12_15  and  O3_16 
REMARK    5  A    between atoms: O3_16  and  C13_17 
REMARK    6  A    between atoms: C13_17  and  C14_18 
ROOT
HETATM    1  C9  UNL     1      25.328   3.861  50.296  1.00  0.00     0.015 A 
HETATM    2  C10 UNL     1      26.329   2.934  50.353  1.00  0.00     0.018 A 
HETATM    3  C11 UNL     1      26.232   1.922  51.278  1.00  0.00     0.038 A 
HETATM    4  C12 UNL     1      25.191   1.771  52.161  1.00  0.00     0.069 A 
HETATM    5  C20 UNL     1      24.195   2.740  52.065  1.00  0.00     0.038 A 
HETATM    6  C21 UNL     1      24.259   3.786  51.136  1.00  0.00     0.018 A 
ENDROOT
BRANCH   1   7
HETATM    7  C8  UNL     1      25.494   4.901  49.295  1.00  0.00     0.189 C 
HETATM    8  O2  UNL     1      24.528   5.289  48.593  1.00  0.00    -0.287 OA
BRANCH   7   9
HETATM    9  C2  UNL     1      26.635   5.681  48.869  1.00  0.00     0.004 C 
HETATM   10  C1  UNL     1      28.009   5.343  48.441  1.00  0.00     0.054 C 
HETATM   11  C3  UNL     1      26.286   6.944  48.899  1.00  0.00     0.096 C 
BRANCH  11  12
HETATM   12  N1  UNL     1      27.097   8.035  48.560  1.00  0.00    -0.385 N 
HETATM   13  C4  UNL     1      27.271   8.465  47.186  1.00  0.00     0.148 C 
HETATM   14  C5  UNL     1      28.760   8.633  46.966  1.00  0.00     0.187 C 
HETATM   15  O1  UNL     1      29.235   9.576  47.842  1.00  0.00    -0.388 OA
HETATM   16  C6  UNL     1      29.145   9.264  49.174  1.00  0.00     0.187 C 
HETATM   17  C7  UNL     1      27.788   8.768  49.588  1.00  0.00     0.148 C 
ENDBRANCH  11  12
ENDBRANCH   7   9
ENDBRANCH   1   7
BRANCH   4  18
HETATM   18  O3  UNL     1      24.834   0.914  53.142  1.00  0.00    -0.347 OA
BRANCH  18  19
HETATM   19  C13 UNL     1      25.295  -0.339  53.499  1.00  0.00     0.214 C 
BRANCH  19  20
HETATM   20  C14 UNL     1      26.754  -0.387  53.749  1.00  0.00    -0.034 A 
HETATM   21  C15 UNL     1      27.421  -1.339  52.971  1.00  0.00     0.009 A 
HETATM   22  C16 UNL     1      28.774  -1.582  53.036  1.00  0.00     0.001 A 
HETATM   23  C17 UNL     1      29.554  -0.861  53.910  1.00  0.00     0.000 A 
HETATM   24  C18 UNL     1      28.914   0.079  54.683  1.00  0.00     0.001 A 
HETATM   25  C19 UNL     1      27.562   0.315  54.613  1.00  0.00     0.009 A 
ENDBRANCH  19  20
ENDBRANCH  18  19
ENDBRANCH   4  18
TORSDOF 6
ENDMDL
MODEL 3
REMARK VINA RESULT:      -7.9      3.966      8.340
REMARK  6 active torsions:
REMARK  status: ('A' for Active; 'I' for Inactive)
REMARK    1  A    between atoms: C2_2  and  C8_10 
REMARK    2  A    between atoms: C3_3  and  N1_4 
REMARK    3  A    between atoms: C8_10  and  C9_12 
REMARK    4  A    between atoms: C12_15  and  O3_16 
REMARK    5  A    between atoms: O3_16  and  C13_17 
REMARK    6  A    between atoms: C13_17  and  C14_18 
ROOT
HETATM    1  C9  UNL     1      22.693   1.359  52.016  1.00  0.00     0.015 A 
HETATM    2  C10 UNL     1      22.131   1.177  50.785  1.00  0.00     0.018 A 
HETATM    3  C11 UNL     1      20.893   0.582  50.712  1.00  0.00     0.038 A 
HETATM    4  C12 UNL     1      20.171   0.151  51.798  1.00  0.00     0.069 A 
HETATM    5  C20 UNL     1      20.785   0.358  53.031  1.00  0.00     0.038 A 
HETATM    6  C21 UNL     1      22.044   0.960  53.145  1.00  0.00     0.018 A 
ENDROOT
BRANCH   1   7
HETATM    7  C8  UNL     1      24.000   1.994  52.019  1.00  0.00     0.189 C 
HETATM    8  O2  UNL     1      24.122   3.231  51.842  1.00  0.00    -0.287 OA
BRANCH   7   9
HETATM    9  C2  UNL     1      25.340   1.482  52.196  1.00  0.00     0.004 C 
HETATM   10  C1  UNL     1      26.634   1.737  51.527  1.00  0.00     0.054 C 
HETATM   11  C3  UNL     1      25.308   0.615  53.178  1.00  0.00     0.096 C 
BRANCH  11  12
HETATM   12  N1  UNL     1      26.396  -0.115  53.674  1.00  0.00    -0.385 N 
HETATM   13  C4  UNL     1      27.092   0.273  54.887  1.00  0.00     0.148 C 
HETATM   14  C5  UNL     1      28.572   0.253  54.566  1.00  0.00     0.187 C 
HETATM   15  O1  UNL     1      28.926  -1.014  54.177  1.00  0.00    -0.388 OA
HETATM   16  C6  UNL     1      28.346  -1.477  53.025  1.00  0.00     0.187 C 
HETATM   17  C7  UNL     1      26.856  -1.289  52.979  1.00  0.00     0.148 C 
ENDBRANCH  11  12
ENDBRANCH   7   9
ENDBRANCH   1   7
BRANCH   4  18
HETATM   18  O3  UNL     1      18.979  -0.443  52.029  1.00  0.00    -0.347 OA
BRANCH  18  19
HETATM   19  C13 UNL     1      18.314  -0.775  53.193  1.00  0.00     0.214 C 
BRANCH  19  20
HETATM   20  C14 UNL     1      17.312  -1.851  53.020  1.00  0.00    -0.034 A 
HETATM   21  C15 UNL     1      17.653  -3.040  53.674  1.00  0.00     0.009 A 
HETATM   22  C16 UNL     1      16.890  -4.185  53.646  1.00  0.00     0.001 A 
HETATM   23  C17 UNL     1      15.710  -4.200  52.941  1.00  0.00     0.000 A 
HETATM   24  C18 UNL     1      15.360  -3.040  52.291  1.00  0.00     0.001 A 
HETATM   25  C19 UNL     1      16.127  -1.900  52.323  1.00  0.00     0.009 A 
ENDBRANCH  19  20
ENDBRANCH  18  19
ENDBRANCH   4  18
TORSDOF 6
ENDMDL
MODEL 4
REMARK VINA RESULT:      -7.7      3.899      8.612
REMARK  6 active torsions:
REMARK  status: ('A' for Active; 'I' for Inactive)
REMARK    1  A    between atoms: C2_2  and  C8_10 
REMARK    2  A    between atoms: C3_3  and  N1_4 
REMARK    3  A    between atoms: C8_10  and  C9_12 
REMARK    4  A    between atoms: C12_15  and  O3_16 
REMARK    5  A    between atoms: O3_16  and  C13_17 
REMARK    6  A    between atoms: C13_17  and  C14_18 
ROOT
HETATM    1  C9  UNL     1      27.377   6.005  48.491  1.00  0.00     0.015 A 
HETATM    2  C10 UNL     1      26.138   6.456  48.846  1.00  0.00     0.018 A 
HETATM    3  C11 UNL     1      25.253   5.565  49.407  1.00  0.00     0.038 A 
HETATM    4  C12 UNL     1      25.525   4.240  49.640  1.00  0.00     0.069 A 
HETATM    5  C20 UNL     1      26.800   3.826  49.261  1.00  0.00     0.038 A 
HETATM    6  C21 UNL     1      27.728   4.704  48.687  1.00  0.00     0.018 A 
ENDROOT
BRANCH   1   7
HETATM    7  C8  UNL     1      28.260   6.998  47.905  1.00  0.00     0.189 C 
HETATM    8  O2  UNL     1      27.926   7.641  46.879  1.00  0.00    -0.287 OA
BRANCH   7   9
HETATM    9  C2  UNL     1      29.578   7.474  48.261  1.00  0.00     0.004 C 
HETATM   10  C1  UNL     1      30.077   8.613  49.061  1.00  0.00     0.054 C 
HETATM   11  C3  UNL     1      30.454   6.665  47.717  1.00  0.00     0.096 C 
BRANCH  11  12
HETATM   12  N1  UNL     1      31.847   6.767  47.814  1.00  0.00    -0.385 N 
HETATM   13  C4  UNL     1      32.633   7.502  46.840  1.00  0.00     0.148 C 
HETATM   14  C5  UNL     1      33.778   6.600  46.432  1.00  0.00     0.187 C 
HETATM   15  O1  UNL     1      34.525   6.299  47.543  1.00  0.00    -0.388 OA
HETATM   16  C6  UNL     1      33.889   5.581  48.523  1.00  0.00     0.187 C 
HETATM   17  C7  UNL     1      32.545   6.133  48.902  1.00  0.00     0.148 C 
ENDBRANCH  11  12
ENDBRANCH   7   9
ENDBRANCH   1   7
BRANCH   4  18
HETATM   18  O3  UNL     1      24.884   3.168  50.156  1.00  0.00    -0.347 OA
BRANCH  18  19
HETATM   19  C13 UNL     1      24.540   2.820  51.448  1.00  0.00     0.214 C 
BRANCH  19  20
HETATM   20  C14 UNL     1      25.181   1.572  51.919  1.00  0.00    -0.034 A 
HETATM   21  C15 UNL     1      24.349   0.788  52.726  1.00  0.00     0.009 A 
HETATM   22  C16 UNL     1      24.725  -0.407  53.296  1.00  0.00     0.001 A 
HETATM   23  C17 UNL     1      25.992  -0.895  53.081  1.00  0.00     0.000 A 
HETATM   24  C18 UNL     1      26.823  -0.138  52.290  1.00  0.00     0.001 A 
HETATM   25  C19 UNL     1      26.442   1.055  51.725  1.00  0.00     0.009 A 
ENDBRANCH  19  20
ENDBRANCH  18  19
ENDBRANCH   4  18
TORSDOF 6
ENDMDL
MODEL 5
REMARK VINA RESULT:      -7.7      3.310      8.531
REMARK  6 active torsions:
REMARK  status: ('A' for Active; 'I' for Inactive)
REMARK    1  A    between atoms: C2_2  and  C8_10 
REMARK    2  A    between atoms: C3_3  and  N1_4 
REMARK    3  A    between atoms: C8_10  and  C9_12 
REMARK    4  A    between atoms: C12_15  and  O3_16 
REMARK    5  A    between atoms: O3_16  and  C13_17 
REMARK    6  A    between atoms: C13_17  and  C14_18 
ROOT
HETATM    1  C9  UNL     1      26.006   4.603  49.653  1.00  0.00     0.015 A 
HETATM    2  C10 UNL     1      24.871   4.675  50.408  1.00  0.00     0.018 A 
HETATM    3  C11 UNL     1      24.538   3.597  51.194  1.00  0.00     0.038 A 
HETATM    4  C12 UNL     1      25.270   2.439  51.278  1.00  0.00     0.069 A 
HETATM    5  C20 UNL     1      26.419   2.412  50.490  1.00  0.00     0.038 A 
HETATM    6  C21 UNL     1      26.790   3.490  49.677  1.00  0.00     0.018 A 
ENDROOT
BRANCH   1   7
HETATM    7  C8  UNL     1      26.297   5.777  48.847  1.00  0.00     0.189 C 
HETATM    8  O2  UNL     1      25.375   6.462  48.340  1.00  0.00    -0.287 OA
BRANCH   7   9
HETATM    9  C2  UNL     1      27.533   6.412  48.446  1.00  0.00     0.004 C 
HETATM   10  C1  UNL     1      28.874   5.910  48.079  1.00  0.00     0.054 C 
HETATM   11  C3  UNL     1      27.328   7.706  48.433  1.00  0.00     0.096 C 
BRANCH  11  12
HETATM   12  N1  UNL     1      28.268   8.690  48.101  1.00  0.00    -0.385 N 
HETATM   13  C4  UNL     1      29.137   9.290  49.097  1.00  0.00     0.148 C 
HETATM   14  C5  UNL     1      29.057  10.789  48.900  1.00  0.00     0.187 C 
HETATM   15  O1  UNL     1      29.477  11.094  47.630  1.00  0.00    -0.388 OA
HETATM   16  C6  UNL     1      28.713  10.599  46.605  1.00  0.00     0.187 C 
HETATM   17  C7  UNL     1      28.397   9.137  46.739  1.00  0.00     0.148 C 
ENDBRANCH  11  12
ENDBRANCH   7   9
ENDBRANCH   1   7
BRANCH   4  18
HETATM   18  O3  UNL     1      25.198   1.261  51.935  1.00  0.00    -0.347 OA
BRANCH  18  19
HETATM   19  C13 UNL     1      25.542   0.888  53.221  1.00  0.00     0.214 C 
BRANCH  19  20
HETATM   20  C14 UNL     1      26.900   0.308  53.328  1.00  0.00    -0.034 A 
HETATM   21  C15 UNL     1      27.855   1.213  53.805  1.00  0.00     0.009 A 
HETATM   22  C16 UNL     1      29.188   0.913  53.975  1.00  0.00     0.001 A 
HETATM   23  C17 UNL     1      29.648  -0.346  53.669  1.00  0.00     0.000 A 
HETATM   24  C18 UNL     1      28.722  -1.247  53.199  1.00  0.00     0.001 A 
HETATM   25  C19 UNL     1      27.393  -0.941  53.030  1.00  0.00     0.009 A 
ENDBRANCH  19  20
ENDBRANCH  18  19
ENDBRANCH   4  18
TORSDOF 6
ENDMDL
MODEL 6
REMARK VINA RESULT:      -7.6      3.546      8.944
REMARK  6 active torsions:
REMARK  status: ('A' for Active; 'I' for Inactive)
REMARK    1  A    between atoms: C2_2  and  C8_10 
REMARK    2  A    between atoms: C3_3  and  N1_4 
REMARK    3  A    between atoms: C8_10  and  C9_12 
REMARK    4  A    between atoms: C12_15  and  O3_16 
REMARK    5  A    between atoms: O3_16  and  C13_17 
REMARK    6  A    between atoms: C13_17  and  C14_18 
ROOT
HETATM    1  C9  UNL     1      26.938   5.008  48.957  1.00  0.00     0.015 A 
HETATM    2  C10 UNL     1      25.901   5.893  49.042  1.00  0.00     0.018 A 
HETATM    3  C11 UNL     1      24.707   5.455  49.565  1.00  0.00     0.038 A 
HETATM    4  C12 UNL     1      24.475   4.179  50.014  1.00  0.00     0.069 A 
HETATM    5  C20 UNL     1      25.562   3.313  49.907  1.00  0.00     0.038 A 
HETATM    6  C21 UNL     1      26.792   3.722  49.380  1.00  0.00     0.018 A 
ENDROOT
BRANCH   1   7
HETATM    7  C8  UNL     1      28.169   5.538  48.396  1.00  0.00     0.189 C 
HETATM    8  O2  UNL     1      29.168   4.801  48.208  1.00  0.00    -0.287 OA
BRANCH   7   9
HETATM    9  C2  UNL     1      28.560   6.859  47.957  1.00  0.00     0.004 C 
HETATM   10  C1  UNL     1      27.987   7.838  47.008  1.00  0.00     0.054 C 
HETATM   11  C3  UNL     1      29.667   7.175  48.583  1.00  0.00     0.096 C 
BRANCH  11  12
HETATM   12  N1  UNL     1      30.384   8.370  48.445  1.00  0.00    -0.385 N 
HETATM   13  C4  UNL     1      30.172   9.499  49.332  1.00  0.00     0.148 C 
HETATM   14  C5  UNL     1      30.010  10.721  48.453  1.00  0.00     0.187 C 
HETATM   15  O1  UNL     1      31.149  10.886  47.707  1.00  0.00    -0.388 OA
HETATM   16  C6  UNL     1      31.436   9.888  46.812  1.00  0.00     0.187 C 
HETATM   17  C7  UNL     1      31.366   8.509  47.402  1.00  0.00     0.148 C 
ENDBRANCH  11  12
ENDBRANCH   7   9
ENDBRANCH   1   7
BRANCH   4  18
HETATM   18  O3  UNL     1      23.451   3.485  50.556  1.00  0.00    -0.347 OA
BRANCH  18  19
HETATM   19  C13 UNL     1      22.945   2.224  50.307  1.00  0.00     0.214 C 
BRANCH  19  20
HETATM   20  C14 UNL     1      22.994   1.321  51.479  1.00  0.00    -0.034 A 
HETATM   21  C15 UNL     1      21.811   0.600  51.677  1.00  0.00     0.009 A 
HETATM   22  C16 UNL     1      21.609  -0.289  52.709  1.00  0.00     0.001 A 
HETATM   23  C17 UNL     1      22.612  -0.509  53.624  1.00  0.00     0.000 A 
HETATM   24  C18 UNL     1      23.781   0.191  53.445  1.00  0.00     0.001 A 
HETATM   25  C19 UNL     1      23.975   1.078  52.413  1.00  0.00     0.009 A 
ENDBRANCH  19  20
ENDBRANCH  18  19
ENDBRANCH   4  18
TORSDOF 6
ENDMDL
MODEL 7
REMARK VINA RESULT:      -7.6      2.223      3.735
REMARK  6 active torsions:
REMARK  status: ('A' for Active; 'I' for Inactive)
REMARK    1  A    between atoms: C2_2  and  C8_10 
REMARK    2  A    between atoms: C3_3  and  N1_4 
REMARK    3  A    between atoms: C8_10  and  C9_12 
REMARK    4  A    between atoms: C12_15  and  O3_16 
REMARK    5  A    between atoms: O3_16  and  C13_17 
REMARK    6  A    between atoms: C13_17  and  C14_18 
ROOT
HETATM    1  C9  UNL     1      25.743   4.181  49.843  1.00  0.00     0.015 A 
HETATM    2  C10 UNL     1      25.199   5.433  49.810  1.00  0.00     0.018 A 
HETATM    3  C11 UNL     1      25.890   6.430  49.160  1.00  0.00     0.038 A 
HETATM    4  C12 UNL     1      27.100   6.258  48.535  1.00  0.00     0.069 A 
HETATM    5  C20 UNL     1      27.614   4.964  48.595  1.00  0.00     0.038 A 
HETATM    6  C21 UNL     1      26.940   3.925  49.248  1.00  0.00     0.018 A 
ENDROOT
BRANCH   1   7
HETATM    7  C8  UNL     1      24.960   3.178  50.544  1.00  0.00     0.189 C 
HETATM    8  O2  UNL     1      23.920   2.692  50.035  1.00  0.00    -0.287 OA
BRANCH   7   9
HETATM    9  C2  UNL     1      25.110   2.537  51.831  1.00  0.00     0.004 C 
HETATM   10  C1  UNL     1      24.613   2.835  53.192  1.00  0.00     0.054 C 
HETATM   11  C3  UNL     1      25.862   1.477  51.662  1.00  0.00     0.096 C 
BRANCH  11  12
HETATM   12  N1  UNL     1      26.254   0.573  52.658  1.00  0.00    -0.385 N 
HETATM   13  C4  UNL     1      25.410  -0.534  53.065  1.00  0.00     0.148 C 
HETATM   14  C5  UNL     1      25.359  -0.512  54.578  1.00  0.00     0.187 C 
HETATM   15  O1  UNL     1      26.632  -0.654  55.069  1.00  0.00    -0.388 OA
HETATM   16  C6  UNL     1      27.513   0.351  54.767  1.00  0.00     0.187 C 
HETATM   17  C7  UNL     1      27.527   0.725  53.311  1.00  0.00     0.148 C 
ENDBRANCH  11  12
ENDBRANCH   7   9
ENDBRANCH   1   7
BRANCH   4  18
HETATM   18  O3  UNL     1      27.979   7.015  47.843  1.00  0.00    -0.347 OA
BRANCH  18  19
HETATM   19  C13 UNL     1      28.773   8.087  48.205  1.00  0.00     0.214 C 
BRANCH  19  20
HETATM   20  C14 UNL     1      30.213   7.755  48.301  1.00  0.00    -0.034 A 
HETATM   21  C15 UNL     1      30.628   6.804  47.362  1.00  0.00     0.009 A 
HETATM   22  C16 UNL     1      31.914   6.322  47.265  1.00  0.00     0.001 A 
HETATM   23  C17 UNL     1      32.881   6.783  48.128  1.00  0.00     0.000 A 
HETATM   24  C18 UNL     1      32.490   7.718  49.057  1.00  0.00     0.001 A 
HETATM   25  C19 UNL     1      31.203   8.193  49.149  1.00  0.00     0.009 A 
ENDBRANCH  19  20
ENDBRANCH  18  19
ENDBRANCH   4  18
TORSDOF 6
ENDMDL
MODEL 8
REMARK VINA RESULT:      -7.6      3.733      8.925
REMARK  6 active torsions:
REMARK  status: ('A' for Active; 'I' for Inactive)
REMARK    1  A    between atoms: C2_2  and  C8_10 
REMARK    2  A    between atoms: C3_3  and  N1_4 
REMARK    3  A    between atoms: C8_10  and  C9_12 
REMARK    4  A    between atoms: C12_15  and  O3_16 
REMARK    5  A    between atoms: O3_16  and  C13_17 
REMARK    6  A    between atoms: C13_17  and  C14_18 
ROOT
HETATM    1  C9  UNL     1      26.656   5.540  48.973  1.00  0.00     0.015 A 
HETATM    2  C10 UNL     1      25.509   5.838  49.651  1.00  0.00     0.018 A 
HETATM    3  C11 UNL     1      24.893   4.839  50.366  1.00  0.00     0.038 A 
HETATM    4  C12 UNL     1      25.349   3.547  50.451  1.00  0.00     0.069 A 
HETATM    5  C20 UNL     1      26.522   3.291  49.743  1.00  0.00     0.038 A 
HETATM    6  C21 UNL     1      27.177   4.283  49.003  1.00  0.00     0.018 A 
ENDROOT
BRANCH   1   7
HETATM    7  C8  UNL     1      27.254   6.643  48.240  1.00  0.00     0.189 C 
HETATM    8  O2  UNL     1      26.549   7.437  47.569  1.00  0.00    -0.287 OA
BRANCH   7   9
HETATM    9  C2  UNL     1      28.619   7.092  48.080  1.00  0.00     0.004 C 
HETATM   10  C1  UNL     1      29.906   6.404  47.844  1.00  0.00     0.054 C 
HETATM   11  C3  UNL     1      28.622   8.399  48.182  1.00  0.00     0.096 C 
BRANCH  11  12
HETATM   12  N1  UNL     1      29.743   9.234  48.089  1.00  0.00    -0.385 N 
HETATM   13  C4  UNL     1      30.487   9.654  49.262  1.00  0.00     0.148 C 
HETATM   14  C5  UNL     1      30.668  11.153  49.151  1.00  0.00     0.187 C 
HETATM   15  O1  UNL     1      31.360  11.434  48.000  1.00  0.00    -0.388 OA
HETATM   16  C6  UNL     1      30.738  11.102  46.824  1.00  0.00     0.187 C 
HETATM   17  C7  UNL     1      30.190   9.703  46.804  1.00  0.00     0.148 C 
ENDBRANCH  11  12
ENDBRANCH   7   9
ENDBRANCH   1   7
BRANCH   4  18
HETATM   18  O3  UNL     1      24.975   2.396  51.051  1.00  0.00    -0.347 OA
BRANCH  18  19
HETATM   19  C13 UNL     1      24.961   1.996  52.374  1.00  0.00     0.214 C 
BRANCH  19  20
HETATM   20  C14 UNL     1      26.191   1.285  52.792  1.00  0.00    -0.034 A 
HETATM   21  C15 UNL     1      26.223  -0.055  52.391  1.00  0.00     0.009 A 
HETATM   22  C16 UNL     1      27.252  -0.924  52.676  1.00  0.00     0.001 A 
HETATM   23  C17 UNL     1      28.336  -0.483  53.398  1.00  0.00     0.000 A 
HETATM   24  C18 UNL     1      28.320   0.832  53.801  1.00  0.00     0.001 A 
HETATM   25  C19 UNL     1      27.289   1.693  53.514  1.00  0.00     0.009 A 
ENDBRANCH  19  20
ENDBRANCH  18  19
ENDBRANCH   4  18
TORSDOF 6
ENDMDL
MODEL 9
REMARK VINA RESULT:      -7.6      2.990      8.731
REMARK  6 active torsions:
REMARK  status: ('A' for Active; 'I' for Inactive)
REMARK    1  A    between atoms: C2_2  and  C8_10 
REMARK    2  A    between atoms: C3_3  and  N1_4 
REMARK    3  A    between atoms: C8_10  and  C9_12 
REMARK    4  A    between atoms: C12_15  and  O3_16 
REMARK    5  A    between atoms: O3_16  and  C13_17 
REMARK    6  A    between atoms: C13_17  and  C14_18 
ROOT
HETATM    1  C9  UNL     1      25.549   3.853  50.403  1.00  0.00     0.015 A 
HETATM    2  C10 UNL     1      24.520   4.055  51.278  1.00  0.00     0.018 A 
HETATM    3  C11 UNL     1      24.346   3.156  52.304  1.00  0.00     0.038 A 
HETATM    4  C12 UNL     1      25.139   2.055  52.517  1.00  0.00     0.069 A 
HETATM    5  C20 UNL     1      26.174   1.891  51.599  1.00  0.00     0.038 A 
HETATM    6  C21 UNL     1      26.382   2.786  50.542  1.00  0.00     0.018 A 
ENDROOT
BRANCH   1   7
HETATM    7  C8  UNL     1      25.674   4.842  49.346  1.00  0.00     0.189 C 
HETATM    8  O2  UNL     1      24.681   5.191  48.661  1.00  0.00    -0.287 OA
BRANCH   7   9
HETATM    9  C2  UNL     1      26.794   5.602  48.839  1.00  0.00     0.004 C 
HETATM   10  C1  UNL     1      28.168   5.251  48.418  1.00  0.00     0.054 C 
HETATM   11  C3  UNL     1      26.425   6.857  48.770  1.00  0.00     0.096 C 
BRANCH  11  12
HETATM   12  N1  UNL     1      27.211   7.929  48.331  1.00  0.00    -0.385 N 
HETATM   13  C4  UNL     1      28.059   8.681  49.237  1.00  0.00     0.148 C 
HETATM   14  C5  UNL     1      27.781  10.147  48.981  1.00  0.00     0.187 C 
HETATM   15  O1  UNL     1      28.078  10.435  47.673  1.00  0.00    -0.388 OA
HETATM   16  C6  UNL     1      27.319   9.798  46.725  1.00  0.00     0.187 C 
HETATM   17  C7  UNL     1      27.197   8.317  46.945  1.00  0.00     0.148 C 
ENDBRANCH  11  12
ENDBRANCH   7   9
ENDBRANCH   1   7
BRANCH   4  18
HETATM   18  O3  UNL     1      25.211   1.036  53.401  1.00  0.00    -0.347 OA
BRANCH  18  19
HETATM   19  C13 UNL     1      24.841  -0.293  53.324  1.00  0.00     0.214 C 
BRANCH  19  20
HETATM   20  C14 UNL     1      23.410  -0.530  53.620  1.00  0.00    -0.034 A 
HETATM   21  C15 UNL     1      22.550  -0.073  52.616  1.00  0.00     0.009 A 
HETATM   22  C16 UNL     1      21.178  -0.164  52.670  1.00  0.00     0.001 A 
HETATM   23  C17 UNL     1      20.577  -0.737  53.766  1.00  0.00     0.000 A 
HETATM   24  C18 UNL     1      21.407  -1.192  54.763  1.00  0.00     0.001 A 
HETATM   25  C19 UNL     1      22.777  -1.096  54.702  1.00  0.00     0.009 A 
ENDBRANCH  19  20
ENDBRANCH  18  19
ENDBRANCH   4  18
TORSDOF 6
ENDMDL
