MODEL 1
REMARK VINA RESULT:      -6.6      0.000      0.000
REMARK  7 active torsions:
REMARK  status: ('A' for Active; 'I' for Inactive)
REMARK    1  A    between atoms: C2_2  and  C3_4 
REMARK    2  A    between atoms: C3_4  and  C4_5 
REMARK    3  A    between atoms: C4_5  and  C5_6 
REMARK    4  A    between atoms: C5_6  and  C6_7 
REMARK    5  A    between atoms: C6_7  and  N1_8 
REMARK    6  A    between atoms: N1_8  and  C7_9 
REMARK       I    between atoms: N4_17  and  C13_18 
REMARK    7  A    between atoms: C13_18  and  C14_20 
ROOT
HETATM    1  C14 UNL     1      22.529   3.048  51.640  1.00  0.00    -0.005 C 
HETATM    2  C15 UNL     1      22.253   4.187  51.499  1.00  0.00    -0.101 C 
HETATM    3  C16 UNL     1      21.935   5.595  51.337  1.00  0.00     0.112 C 
ENDROOT
BRANCH   1   4
HETATM    4  C13 UNL     1      22.861   1.698  51.832  1.00  0.00     0.306 C 
HETATM    5  N4  UNL     1      23.869   1.068  52.510  1.00  0.00    -0.265 N 
HETATM    6  C7  UNL     1      24.797   0.473  53.134  1.00  0.00     0.282 C 
HETATM    7  C12 UNL     1      24.456   2.231  52.936  1.00  0.00     0.100 C 
HETATM    8  N2  UNL     1      25.363  -0.395  53.982  1.00  0.00    -0.224 NA
HETATM    9  C8  UNL     1      26.401   0.089  54.757  1.00  0.00     0.231 C 
HETATM   10  N3  UNL     1      26.908   1.327  54.573  1.00  0.00    -0.254 NA
HETATM   11  C9  UNL     1      27.072   1.733  53.311  1.00  0.00     0.118 C 
HETATM   12  C10 UNL     1      26.613   1.795  51.979  1.00  0.00     0.021 C 
HETATM   13  C11 UNL     1      25.420   2.548  51.948  1.00  0.00     0.019 C 
HETATM   14  O1  UNL     1      22.404   0.592  51.490  1.00  0.00    -0.257 OA
BRANCH   6  15
HETATM   15  N1  UNL     1      23.635  -0.349  53.498  1.00  0.00    -0.352 N 
HETATM   16  H7  UNL     1      22.924  -0.817  52.796  1.00  0.00     0.163 HD
BRANCH  15  17
HETATM   17  C6  UNL     1      22.957  -0.928  54.669  1.00  0.00     0.066 C 
BRANCH  17  18
HETATM   18  C5  UNL     1      21.921  -1.643  54.143  1.00  0.00     0.069 C 
BRANCH  18  19
HETATM   19  C4  UNL     1      20.875  -0.439  54.385  1.00  0.00     0.006 C 
BRANCH  19  20
HETATM   20  C3  UNL     1      19.717  -0.389  53.585  1.00  0.00    -0.007 C 
BRANCH  20  21
HETATM   21  C2  UNL     1      18.504  -0.726  52.812  1.00  0.00    -0.003 C 
HETATM   22  C1  UNL     1      17.633  -1.613  53.243  1.00  0.00     0.031 C 
HETATM   23 BR1  UNL     1      18.220   0.140  51.144  1.00  0.00    -0.052 Br
ENDBRANCH  20  21
ENDBRANCH  19  20
ENDBRANCH  18  19
ENDBRANCH  17  18
ENDBRANCH  15  17
ENDBRANCH   6  15
ENDBRANCH   1   4
TORSDOF 7
ENDMDL
MODEL 2
REMARK VINA RESULT:      -6.2      8.256     11.276
REMARK  7 active torsions:
REMARK  status: ('A' for Active; 'I' for Inactive)
REMARK    1  A    between atoms: C2_2  and  C3_4 
REMARK    2  A    between atoms: C3_4  and  C4_5 
REMARK    3  A    between atoms: C4_5  and  C5_6 
REMARK    4  A    between atoms: C5_6  and  C6_7 
REMARK    5  A    between atoms: C6_7  and  N1_8 
REMARK    6  A    between atoms: N1_8  and  C7_9 
REMARK       I    between atoms: N4_17  and  C13_18 
REMARK    7  A    between atoms: C13_18  and  C14_20 
ROOT
HETATM    1  C14 UNL     1      26.927   4.640  48.929  1.00  0.00    -0.005 C 
HETATM    2  C15 UNL     1      25.940   4.096  49.279  1.00  0.00    -0.101 C 
HETATM    3  C16 UNL     1      24.725   3.441  49.730  1.00  0.00     0.112 C 
ENDROOT
BRANCH   1   4
HETATM    4  C13 UNL     1      28.112   5.281  48.535  1.00  0.00     0.306 C 
HETATM    5  N4  UNL     1      28.484   6.596  48.454  1.00  0.00    -0.265 N 
HETATM    6  C7  UNL     1      28.841   7.809  48.377  1.00  0.00     0.282 C 
HETATM    7  C12 UNL     1      27.278   7.076  48.893  1.00  0.00     0.100 C 
HETATM    8  N2  UNL     1      29.605   8.891  48.570  1.00  0.00    -0.224 NA
HETATM    9  C8  UNL     1      28.943  10.062  48.892  1.00  0.00     0.231 C 
HETATM   10  N3  UNL     1      27.595  10.144  48.878  1.00  0.00    -0.254 NA
HETATM   11  C9  UNL     1      26.962   9.542  47.867  1.00  0.00     0.118 C 
HETATM   12  C10 UNL     1      26.839   8.455  46.978  1.00  0.00     0.021 C 
HETATM   13  C11 UNL     1      26.515   7.300  47.721  1.00  0.00     0.019 C 
HETATM   14  O1  UNL     1      29.237   4.941  48.124  1.00  0.00    -0.257 OA
BRANCH   6  15
HETATM   15  N1  UNL     1      30.039   7.195  48.965  1.00  0.00    -0.352 N 
HETATM   16  H7  UNL     1      30.064   6.285  49.588  1.00  0.00     0.163 HD
BRANCH  15  17
HETATM   17  C6  UNL     1      31.503   7.342  49.009  1.00  0.00     0.066 C 
BRANCH  17  18
HETATM   18  C5  UNL     1      31.930   6.268  49.735  1.00  0.00     0.069 C 
BRANCH  18  19
HETATM   19  C4  UNL     1      33.224   6.059  48.795  1.00  0.00     0.006 C 
BRANCH  19  20
HETATM   20  C3  UNL     1      33.307   4.884  48.023  1.00  0.00    -0.007 C 
BRANCH  20  21
HETATM   21  C2  UNL     1      33.263   3.893  46.928  1.00  0.00    -0.003 C 
HETATM   22  C1  UNL     1      32.140   3.309  46.567  1.00  0.00     0.031 C 
HETATM   23 BR1  UNL     1      34.884   3.446  46.043  1.00  0.00    -0.052 Br
ENDBRANCH  20  21
ENDBRANCH  19  20
ENDBRANCH  18  19
ENDBRANCH  17  18
ENDBRANCH  15  17
ENDBRANCH   6  15
ENDBRANCH   1   4
TORSDOF 7
ENDMDL
MODEL 3
REMARK VINA RESULT:      -6.2      3.910      6.826
REMARK  7 active torsions:
REMARK  status: ('A' for Active; 'I' for Inactive)
REMARK    1  A    between atoms: C2_2  and  C3_4 
REMARK    2  A    between atoms: C3_4  and  C4_5 
REMARK    3  A    between atoms: C4_5  and  C5_6 
REMARK    4  A    between atoms: C5_6  and  C6_7 
REMARK    5  A    between atoms: C6_7  and  N1_8 
REMARK    6  A    between atoms: N1_8  and  C7_9 
REMARK       I    between atoms: N4_17  and  C13_18 
REMARK    7  A    between atoms: C13_18  and  C14_20 
ROOT
HETATM    1  C14 UNL     1      23.269   0.349  53.303  1.00  0.00    -0.005 C 
HETATM    2  C15 UNL     1      22.513  -0.549  53.424  1.00  0.00    -0.101 C 
HETATM    3  C16 UNL     1      21.563  -1.637  53.571  1.00  0.00     0.112 C 
ENDROOT
BRANCH   1   4
HETATM    4  C13 UNL     1      24.159   1.428  53.181  1.00  0.00     0.306 C 
HETATM    5  N4  UNL     1      25.524   1.525  53.218  1.00  0.00    -0.265 N 
HETATM    6  C7  UNL     1      26.786   1.628  53.250  1.00  0.00     0.282 C 
HETATM    7  C12 UNL     1      25.722   0.185  53.427  1.00  0.00     0.100 C 
HETATM    8  N2  UNL     1      28.011   1.982  52.844  1.00  0.00    -0.224 NA
HETATM    9  C8  UNL     1      29.005   1.029  52.979  1.00  0.00     0.231 C 
HETATM   10  N3  UNL     1      28.783  -0.143  53.612  1.00  0.00    -0.254 NA
HETATM   11  C9  UNL     1      28.056  -0.100  54.731  1.00  0.00     0.118 C 
HETATM   12  C10 UNL     1      26.970   0.424  55.463  1.00  0.00     0.021 C 
HETATM   13  C11 UNL     1      25.771   0.028  54.833  1.00  0.00     0.019 C 
HETATM   14  O1  UNL     1      24.080   2.657  52.999  1.00  0.00    -0.257 OA
BRANCH   6  15
HETATM   15  N1  UNL     1      26.455   2.510  52.122  1.00  0.00    -0.352 N 
HETATM   16  H7  UNL     1      25.877   3.448  52.179  1.00  0.00     0.163 HD
BRANCH  15  17
HETATM   17  C6  UNL     1      26.685   2.665  50.677  1.00  0.00     0.066 C 
BRANCH  17  18
HETATM   18  C5  UNL     1      25.896   3.720  50.319  1.00  0.00     0.069 C 
BRANCH  18  19
HETATM   19  C4  UNL     1      26.899   4.158  49.134  1.00  0.00     0.006 C 
BRANCH  19  20
HETATM   20  C3  UNL     1      26.977   5.522  48.795  1.00  0.00    -0.007 C 
BRANCH  20  21
HETATM   21  C2  UNL     1      27.190   6.806  48.096  1.00  0.00    -0.003 C 
HETATM   22  C1  UNL     1      26.205   7.653  47.889  1.00  0.00     0.031 C 
HETATM   23 BR1  UNL     1      28.936   7.220  47.470  1.00  0.00    -0.052 Br
ENDBRANCH  20  21
ENDBRANCH  19  20
ENDBRANCH  18  19
ENDBRANCH  17  18
ENDBRANCH  15  17
ENDBRANCH   6  15
ENDBRANCH   1   4
TORSDOF 7
ENDMDL
MODEL 4
REMARK VINA RESULT:      -6.1      3.267      5.851
REMARK  7 active torsions:
REMARK  status: ('A' for Active; 'I' for Inactive)
REMARK    1  A    between atoms: C2_2  and  C3_4 
REMARK    2  A    between atoms: C3_4  and  C4_5 
REMARK    3  A    between atoms: C4_5  and  C5_6 
REMARK    4  A    between atoms: C5_6  and  C6_7 
REMARK    5  A    between atoms: C6_7  and  N1_8 
REMARK    6  A    between atoms: N1_8  and  C7_9 
REMARK       I    between atoms: N4_17  and  C13_18 
REMARK    7  A    between atoms: C13_18  and  C14_20 
ROOT
HETATM    1  C14 UNL     1      24.688   3.823  51.214  1.00  0.00    -0.005 C 
HETATM    2  C15 UNL     1      25.108   4.422  50.287  1.00  0.00    -0.101 C 
HETATM    3  C16 UNL     1      25.609   5.147  49.133  1.00  0.00     0.112 C 
ENDROOT
BRANCH   1   4
HETATM    4  C13 UNL     1      24.196   3.089  52.304  1.00  0.00     0.306 C 
HETATM    5  N4  UNL     1      23.054   2.362  52.505  1.00  0.00    -0.265 N 
HETATM    6  C7  UNL     1      22.002   1.684  52.703  1.00  0.00     0.282 C 
HETATM    7  C12 UNL     1      22.548   2.608  51.255  1.00  0.00     0.100 C 
HETATM    8  N2  UNL     1      21.253   0.631  53.051  1.00  0.00    -0.224 NA
HETATM    9  C8  UNL     1      20.188   0.330  52.221  1.00  0.00     0.231 C 
HETATM   10  N3  UNL     1      19.840   1.134  51.193  1.00  0.00    -0.254 NA
HETATM   11  C9  UNL     1      19.868   2.450  51.416  1.00  0.00     0.118 C 
HETATM   12  C10 UNL     1      20.483   3.577  52.001  1.00  0.00     0.021 C 
HETATM   13  C11 UNL     1      21.744   3.765  51.398  1.00  0.00     0.019 C 
HETATM   14  O1  UNL     1      24.570   2.815  53.459  1.00  0.00    -0.257 OA
BRANCH   6  15
HETATM   15  N1  UNL     1      23.020   0.813  53.305  1.00  0.00    -0.352 N 
HETATM   16  H7  UNL     1      23.634   1.048  54.190  1.00  0.00     0.163 HD
BRANCH  15  17
HETATM   17  C6  UNL     1      23.612  -0.527  53.170  1.00  0.00     0.066 C 
BRANCH  17  18
HETATM   18  C5  UNL     1      24.455  -0.635  54.238  1.00  0.00     0.069 C 
BRANCH  18  19
HETATM   19  C4  UNL     1      25.752  -0.771  53.289  1.00  0.00     0.006 C 
BRANCH  19  20
HETATM   20  C3  UNL     1      26.860   0.060  53.549  1.00  0.00    -0.007 C 
BRANCH  20  21
HETATM   21  C2  UNL     1      28.104   0.849  53.443  1.00  0.00    -0.003 C 
HETATM   22  C1  UNL     1      28.084   2.146  53.218  1.00  0.00     0.031 C 
HETATM   23 BR1  UNL     1      29.768  -0.051  53.618  1.00  0.00    -0.052 Br
ENDBRANCH  20  21
ENDBRANCH  19  20
ENDBRANCH  18  19
ENDBRANCH  17  18
ENDBRANCH  15  17
ENDBRANCH   6  15
ENDBRANCH   1   4
TORSDOF 7
ENDMDL
MODEL 5
REMARK VINA RESULT:      -6.1      1.744      3.961
REMARK  7 active torsions:
REMARK  status: ('A' for Active; 'I' for Inactive)
REMARK    1  A    between atoms: C2_2  and  C3_4 
REMARK    2  A    between atoms: C3_4  and  C4_5 
REMARK    3  A    between atoms: C4_5  and  C5_6 
REMARK    4  A    between atoms: C5_6  and  C6_7 
REMARK    5  A    between atoms: C6_7  and  N1_8 
REMARK    6  A    between atoms: N1_8  and  C7_9 
REMARK       I    between atoms: N4_17  and  C13_18 
REMARK    7  A    between atoms: C13_18  and  C14_20 
ROOT
HETATM    1  C14 UNL     1      27.233  -0.220  54.113  1.00  0.00    -0.005 C 
HETATM    2  C15 UNL     1      28.396  -0.096  53.950  1.00  0.00    -0.101 C 
HETATM    3  C16 UNL     1      29.822   0.083  53.744  1.00  0.00     0.112 C 
ENDROOT
BRANCH   1   4
HETATM    4  C13 UNL     1      25.847  -0.362  54.283  1.00  0.00     0.306 C 
HETATM    5  N4  UNL     1      24.765   0.135  53.609  1.00  0.00    -0.265 N 
HETATM    6  C7  UNL     1      23.755   0.588  52.992  1.00  0.00     0.282 C 
HETATM    7  C12 UNL     1      25.516   0.835  52.700  1.00  0.00     0.100 C 
HETATM    8  N2  UNL     1      22.581   0.562  52.349  1.00  0.00    -0.224 NA
HETATM    9  C8  UNL     1      22.477   1.359  51.224  1.00  0.00     0.231 C 
HETATM   10  N3  UNL     1      23.457   2.219  50.869  1.00  0.00    -0.254 NA
HETATM   11  C9  UNL     1      24.037   2.914  51.850  1.00  0.00     0.118 C 
HETATM   12  C10 UNL     1      24.547   2.980  53.164  1.00  0.00     0.021 C 
HETATM   13  C11 UNL     1      25.667   2.128  53.256  1.00  0.00     0.019 C 
HETATM   14  O1  UNL     1      25.083  -0.958  55.064  1.00  0.00    -0.257 OA
BRANCH   6  15
HETATM   15  N1  UNL     1      23.352  -0.807  53.216  1.00  0.00    -0.352 N 
HETATM   16  H7  UNL     1      23.973  -1.700  53.032  1.00  0.00     0.163 HD
BRANCH  15  17
HETATM   17  C6  UNL     1      22.233  -1.612  53.731  1.00  0.00     0.066 C 
BRANCH  17  18
HETATM   18  C5  UNL     1      21.551  -0.760  54.551  1.00  0.00     0.069 C 
BRANCH  18  19
HETATM   19  C4  UNL     1      20.131  -1.428  54.179  1.00  0.00     0.006 C 
BRANCH  19  20
HETATM   20  C3  UNL     1      19.322  -0.787  53.221  1.00  0.00    -0.007 C 
BRANCH  20  21
HETATM   21  C2  UNL     1      18.259  -0.446  52.253  1.00  0.00    -0.003 C 
HETATM   22  C1  UNL     1      17.036  -0.915  52.374  1.00  0.00     0.031 C 
HETATM   23 BR1  UNL     1      18.693   0.685  50.789  1.00  0.00    -0.052 Br
ENDBRANCH  20  21
ENDBRANCH  19  20
ENDBRANCH  18  19
ENDBRANCH  17  18
ENDBRANCH  15  17
ENDBRANCH   6  15
ENDBRANCH   1   4
TORSDOF 7
ENDMDL
MODEL 6
REMARK VINA RESULT:      -6.0      2.337      4.584
REMARK  7 active torsions:
REMARK  status: ('A' for Active; 'I' for Inactive)
REMARK    1  A    between atoms: C2_2  and  C3_4 
REMARK    2  A    between atoms: C3_4  and  C4_5 
REMARK    3  A    between atoms: C4_5  and  C5_6 
REMARK    4  A    between atoms: C5_6  and  C6_7 
REMARK    5  A    between atoms: C6_7  and  N1_8 
REMARK    6  A    between atoms: N1_8  and  C7_9 
REMARK       I    between atoms: N4_17  and  C13_18 
REMARK    7  A    between atoms: C13_18  and  C14_20 
ROOT
HETATM    1  C14 UNL     1      21.754   1.525  52.205  1.00  0.00    -0.005 C 
HETATM    2  C15 UNL     1      20.765   0.926  51.967  1.00  0.00    -0.101 C 
HETATM    3  C16 UNL     1      19.534   0.207  51.688  1.00  0.00     0.112 C 
ENDROOT
BRANCH   1   4
HETATM    4  C13 UNL     1      22.926   2.233  52.512  1.00  0.00     0.306 C 
HETATM    5  N4  UNL     1      24.242   1.871  52.608  1.00  0.00    -0.265 N 
HETATM    6  C7  UNL     1      25.464   1.548  52.700  1.00  0.00     0.282 C 
HETATM    7  C12 UNL     1      24.014   0.554  52.304  1.00  0.00     0.100 C 
HETATM    8  N2  UNL     1      26.782   1.611  52.479  1.00  0.00    -0.224 NA
HETATM    9  C8  UNL     1      27.429   0.407  52.266  1.00  0.00     0.231 C 
HETATM   10  N3  UNL     1      26.794  -0.776  52.410  1.00  0.00    -0.254 NA
HETATM   11  C9  UNL     1      25.966  -0.897  53.450  1.00  0.00     0.118 C 
HETATM   12  C10 UNL     1      24.988  -0.345  54.304  1.00  0.00     0.021 C 
HETATM   13  C11 UNL     1      23.824  -0.091  53.550  1.00  0.00     0.019 C 
HETATM   14  O1  UNL     1      23.230   3.405  52.802  1.00  0.00    -0.257 OA
BRANCH   6  15
HETATM   15  N1  UNL     1      25.558   2.825  51.978  1.00  0.00    -0.352 N 
HETATM   16  H7  UNL     1      25.101   3.780  52.287  1.00  0.00     0.163 HD
BRANCH  15  17
HETATM   17  C6  UNL     1      26.189   3.433  50.797  1.00  0.00     0.066 C 
BRANCH  17  18
HETATM   18  C5  UNL     1      25.229   4.259  50.287  1.00  0.00     0.069 C 
BRANCH  18  19
HETATM   19  C4  UNL     1      24.690   3.124  49.276  1.00  0.00     0.006 C 
BRANCH  19  20
HETATM   20  C3  UNL     1      23.324   3.128  48.933  1.00  0.00    -0.007 C 
BRANCH  20  21
HETATM   21  C2  UNL     1      21.861   2.923  48.908  1.00  0.00    -0.003 C 
HETATM   22  C1  UNL     1      21.321   1.856  48.359  1.00  0.00     0.031 C 
HETATM   23 BR1  UNL     1      20.744   4.255  49.676  1.00  0.00    -0.052 Br
ENDBRANCH  20  21
ENDBRANCH  19  20
ENDBRANCH  18  19
ENDBRANCH  17  18
ENDBRANCH  15  17
ENDBRANCH   6  15
ENDBRANCH   1   4
TORSDOF 7
ENDMDL
MODEL 7
REMARK VINA RESULT:      -6.0      2.790      5.881
REMARK  7 active torsions:
REMARK  status: ('A' for Active; 'I' for Inactive)
REMARK    1  A    between atoms: C2_2  and  C3_4 
REMARK    2  A    between atoms: C3_4  and  C4_5 
REMARK    3  A    between atoms: C4_5  and  C5_6 
REMARK    4  A    between atoms: C5_6  and  C6_7 
REMARK    5  A    between atoms: C6_7  and  N1_8 
REMARK    6  A    between atoms: N1_8  and  C7_9 
REMARK       I    between atoms: N4_17  and  C13_18 
REMARK    7  A    between atoms: C13_18  and  C14_20 
ROOT
HETATM    1  C14 UNL     1      25.591   1.969  52.100  1.00  0.00    -0.005 C 
HETATM    2  C15 UNL     1      26.680   2.061  52.544  1.00  0.00    -0.101 C 
HETATM    3  C16 UNL     1      28.011   2.179  53.114  1.00  0.00     0.112 C 
ENDROOT
BRANCH   1   4
HETATM    4  C13 UNL     1      24.290   1.883  51.579  1.00  0.00     0.306 C 
HETATM    5  N4  UNL     1      23.101   1.442  52.095  1.00  0.00    -0.265 N 
HETATM    6  C7  UNL     1      21.995   1.039  52.561  1.00  0.00     0.282 C 
HETATM    7  C12 UNL     1      23.631   1.103  53.312  1.00  0.00     0.100 C 
HETATM    8  N2  UNL     1      20.695   1.078  52.879  1.00  0.00    -0.224 NA
HETATM    9  C8  UNL     1      20.351   0.592  54.127  1.00  0.00     0.231 C 
HETATM   10  N3  UNL     1      21.254  -0.014  54.928  1.00  0.00    -0.254 NA
HETATM   11  C9  UNL     1      22.109  -0.858  54.346  1.00  0.00     0.118 C 
HETATM   12  C10 UNL     1      22.945  -1.196  53.260  1.00  0.00     0.021 C 
HETATM   13  C11 UNL     1      23.998  -0.260  53.195  1.00  0.00     0.019 C 
HETATM   14  O1  UNL     1      23.720   2.154  50.506  1.00  0.00    -0.257 OA
BRANCH   6  15
HETATM   15  N1  UNL     1      21.581   2.265  51.865  1.00  0.00    -0.352 N 
HETATM   16  H7  UNL     1      21.813   2.527  50.819  1.00  0.00     0.163 HD
BRANCH  15  17
HETATM   17  C6  UNL     1      20.788   3.487  52.064  1.00  0.00     0.066 C 
BRANCH  17  18
HETATM   18  C5  UNL     1      21.170   4.310  51.044  1.00  0.00     0.069 C 
BRANCH  18  19
HETATM   19  C4  UNL     1      22.239   5.081  51.973  1.00  0.00     0.006 C 
BRANCH  19  20
HETATM   20  C3  UNL     1      23.475   5.449  51.407  1.00  0.00    -0.007 C 
BRANCH  20  21
HETATM   21  C2  UNL     1      24.549   6.112  50.639  1.00  0.00    -0.003 C 
HETATM   22  C1  UNL     1      24.704   7.419  50.653  1.00  0.00     0.031 C 
HETATM   23 BR1  UNL     1      25.717   5.036  49.596  1.00  0.00    -0.052 Br
ENDBRANCH  20  21
ENDBRANCH  19  20
ENDBRANCH  18  19
ENDBRANCH  17  18
ENDBRANCH  15  17
ENDBRANCH   6  15
ENDBRANCH   1   4
TORSDOF 7
ENDMDL
MODEL 8
REMARK VINA RESULT:      -5.9      3.451      6.194
REMARK  7 active torsions:
REMARK  status: ('A' for Active; 'I' for Inactive)
REMARK    1  A    between atoms: C2_2  and  C3_4 
REMARK    2  A    between atoms: C3_4  and  C4_5 
REMARK    3  A    between atoms: C4_5  and  C5_6 
REMARK    4  A    between atoms: C5_6  and  C6_7 
REMARK    5  A    between atoms: C6_7  and  N1_8 
REMARK    6  A    between atoms: N1_8  and  C7_9 
REMARK       I    between atoms: N4_17  and  C13_18 
REMARK    7  A    between atoms: C13_18  and  C14_20 
ROOT
HETATM    1  C14 UNL     1      20.154   0.340  51.529  1.00  0.00    -0.005 C 
HETATM    2  C15 UNL     1      18.982   0.213  51.585  1.00  0.00    -0.101 C 
HETATM    3  C16 UNL     1      17.538   0.062  51.628  1.00  0.00     0.112 C 
ENDROOT
BRANCH   1   4
HETATM    4  C13 UNL     1      21.545   0.514  51.456  1.00  0.00     0.306 C 
HETATM    5  N4  UNL     1      22.345   1.377  50.758  1.00  0.00    -0.265 N 
HETATM    6  C7  UNL     1      23.097   2.171  50.118  1.00  0.00     0.282 C 
HETATM    7  C12 UNL     1      21.302   2.017  50.141  1.00  0.00     0.100 C 
HETATM    8  N2  UNL     1      24.068   3.071  49.921  1.00  0.00    -0.224 NA
HETATM    9  C8  UNL     1      23.776   4.114  49.060  1.00  0.00     0.231 C 
HETATM   10  N3  UNL     1      22.627   4.150  48.351  1.00  0.00    -0.254 NA
HETATM   11  C9  UNL     1      22.213   3.001  47.810  1.00  0.00     0.118 C 
HETATM   12  C10 UNL     1      22.039   1.604  47.895  1.00  0.00     0.021 C 
HETATM   13  C11 UNL     1      21.109   1.328  48.919  1.00  0.00     0.019 C 
HETATM   14  O1  UNL     1      22.555  -0.008  51.962  1.00  0.00    -0.257 OA
BRANCH   6  15
HETATM   15  N1  UNL     1      23.738   2.174  51.440  1.00  0.00    -0.352 N 
HETATM   16  H7  UNL     1      23.219   2.145  52.413  1.00  0.00     0.163 HD
BRANCH  15  17
HETATM   17  C6  UNL     1      25.065   2.154  52.074  1.00  0.00     0.066 C 
BRANCH  17  18
HETATM   18  C5  UNL     1      24.821   2.461  53.382  1.00  0.00     0.069 C 
BRANCH  18  19
HETATM   19  C4  UNL     1      26.358   2.206  53.801  1.00  0.00     0.006 C 
BRANCH  19  20
HETATM   20  C3  UNL     1      26.868   0.897  53.704  1.00  0.00    -0.007 C 
BRANCH  20  21
HETATM   21  C2  UNL     1      27.437  -0.378  53.220  1.00  0.00    -0.003 C 
HETATM   22  C1  UNL     1      26.719  -1.239  52.531  1.00  0.00     0.031 C 
HETATM   23 BR1  UNL     1      29.249  -0.777  53.629  1.00  0.00    -0.052 Br
ENDBRANCH  20  21
ENDBRANCH  19  20
ENDBRANCH  18  19
ENDBRANCH  17  18
ENDBRANCH  15  17
ENDBRANCH   6  15
ENDBRANCH   1   4
TORSDOF 7
ENDMDL
MODEL 9
REMARK VINA RESULT:      -5.9      2.778      6.063
REMARK  7 active torsions:
REMARK  status: ('A' for Active; 'I' for Inactive)
REMARK    1  A    between atoms: C2_2  and  C3_4 
REMARK    2  A    between atoms: C3_4  and  C4_5 
REMARK    3  A    between atoms: C4_5  and  C5_6 
REMARK    4  A    between atoms: C5_6  and  C6_7 
REMARK    5  A    between atoms: C6_7  and  N1_8 
REMARK    6  A    between atoms: N1_8  and  C7_9 
REMARK       I    between atoms: N4_17  and  C13_18 
REMARK    7  A    between atoms: C13_18  and  C14_20 
ROOT
HETATM    1  C14 UNL     1      18.497   1.027  51.430  1.00  0.00    -0.005 C 
HETATM    2  C15 UNL     1      17.674   0.319  50.965  1.00  0.00    -0.101 C 
HETATM    3  C16 UNL     1      16.646  -0.543  50.410  1.00  0.00     0.112 C 
ENDROOT
BRANCH   1   4
HETATM    4  C13 UNL     1      19.472   1.857  52.005  1.00  0.00     0.306 C 
HETATM    5  N4  UNL     1      20.723   1.623  52.508  1.00  0.00    -0.265 N 
HETATM    6  C7  UNL     1      21.883   1.420  52.974  1.00  0.00     0.282 C 
HETATM    7  C12 UNL     1      20.690   0.276  52.256  1.00  0.00     0.100 C 
HETATM    8  N2  UNL     1      23.201   1.592  53.140  1.00  0.00    -0.224 NA
HETATM    9  C8  UNL     1      23.966   0.443  53.220  1.00  0.00     0.231 C 
HETATM   10  N3  UNL     1      23.404  -0.784  53.268  1.00  0.00    -0.254 NA
HETATM   11  C9  UNL     1      22.317  -0.923  54.031  1.00  0.00     0.118 C 
HETATM   12  C10 UNL     1      21.094  -0.417  54.518  1.00  0.00     0.021 C 
HETATM   13  C11 UNL     1      20.188  -0.314  53.441  1.00  0.00     0.019 C 
HETATM   14  O1  UNL     1      19.592   3.066  52.276  1.00  0.00    -0.257 OA
BRANCH   6  15
HETATM   15  N1  UNL     1      22.095   2.658  52.211  1.00  0.00    -0.352 N 
HETATM   16  H7  UNL     1      21.597   2.931  51.266  1.00  0.00     0.163 HD
BRANCH  15  17
HETATM   17  C6  UNL     1      22.829   3.931  52.267  1.00  0.00     0.066 C 
BRANCH  17  18
HETATM   18  C5  UNL     1      22.437   4.599  51.142  1.00  0.00     0.069 C 
BRANCH  18  19
HETATM   19  C4  UNL     1      23.198   3.558  50.174  1.00  0.00     0.006 C 
BRANCH  19  20
HETATM   20  C3  UNL     1      24.594   3.675  50.033  1.00  0.00    -0.007 C 
BRANCH  20  21
HETATM   21  C2  UNL     1      26.055   3.464  50.099  1.00  0.00    -0.003 C 
HETATM   22  C1  UNL     1      26.878   4.052  49.257  1.00  0.00     0.031 C 
HETATM   23 BR1  UNL     1      26.745   2.295  51.429  1.00  0.00    -0.052 Br
ENDBRANCH  20  21
ENDBRANCH  19  20
ENDBRANCH  18  19
ENDBRANCH  17  18
ENDBRANCH  15  17
ENDBRANCH   6  15
ENDBRANCH   1   4
TORSDOF 7
ENDMDL
