MODEL 1
REMARK VINA RESULT:      -9.2      0.000      0.000
REMARK  4 active torsions:
REMARK  status: ('A' for Active; 'I' for Inactive)
REMARK    1  A    between atoms: C7_8  and  N1_9 
REMARK    2  A    between atoms: N1_9  and  C8_10 
REMARK    3  A    between atoms: C9_12  and  N3_13 
REMARK    4  A    between atoms: C13_18  and  C14_19 
ROOT
HETATM    1  C8  UNL     1      23.742   3.632  50.600  1.00  0.00     0.157 A 
HETATM    2  N2  UNL     1      22.866   3.240  49.657  1.00  0.00    -0.045 NA
HETATM    3  C9  UNL     1      22.281   2.038  49.604  1.00  0.00     0.724 A 
HETATM    4  N4  UNL     1      22.564   1.119  50.553  1.00  0.00    -0.045 NA
HETATM    5  C10 UNL     1      23.449   1.473  51.530  1.00  0.00     0.153 A 
HETATM    6  C11 UNL     1      24.055   2.709  51.587  1.00  0.00     0.037 A 
HETATM    7  C12 UNL     1      24.960   2.757  52.767  1.00  0.00     0.072 A 
HETATM    8  C13 UNL     1      24.838   1.411  53.393  1.00  0.00     0.099 A 
HETATM    9  N5  UNL     1      23.853   0.653  52.613  1.00  0.00    -0.368 N 
HETATM   10  H20 UNL     1      23.593  -0.296  52.913  1.00  0.00     0.161 HD
ENDROOT
BRANCH   1  11
HETATM   11  N1  UNL     1      24.323   4.929  50.659  1.00  0.00    -0.339 N 
HETATM   12  H7  UNL     1      23.846   5.576  51.286  1.00  0.00     0.167 HD
BRANCH  11  13
HETATM   13  C7  UNL     1      25.470   5.321  49.922  1.00  0.00     0.039 A 
HETATM   14  C2  UNL     1      25.766   6.635  49.647  1.00  0.00    -0.034 A 
HETATM   15  C1  UNL     1      24.882   7.736  50.131  1.00  0.00     0.050 C 
HETATM   16  C3  UNL     1      26.870   7.022  48.928  1.00  0.00     0.032 A 
HETATM   17  C4  UNL     1      27.772   6.079  48.425  1.00  0.00     0.034 A 
HETATM   18 CL1  UNL     1      29.142   6.628  47.521  1.00  0.00    -0.084 Cl
HETATM   19  C5  UNL     1      27.513   4.730  48.680  1.00  0.00     0.026 A 
HETATM   20  C6  UNL     1      26.383   4.427  49.410  1.00  0.00     0.032 A 
ENDBRANCH  11  13
ENDBRANCH   1  11
BRANCH   3  21
HETATM   21  N3  UNL     1      21.355   1.674  48.577  1.00  0.00    -0.231 N 
HETATM   22  H8  UNL     1      21.625   1.818  47.592  1.00  0.00     0.174 HD
HETATM   23  H9  UNL     1      20.419   1.266  48.877  1.00  0.00     0.174 HD
ENDBRANCH   3  21
BRANCH   8  24
HETATM   24  C14 UNL     1      26.095   0.571  53.342  1.00  0.00     0.054 C 
HETATM   25  C15 UNL     1      25.913  -0.787  52.848  1.00  0.00    -0.004 C 
HETATM   26  C16 UNL     1      26.856  -1.653  52.737  1.00  0.00    -0.033 C 
HETATM   27  C17 UNL     1      28.110  -1.480  52.965  1.00  0.00    -0.011 C 
HETATM   28  C18 UNL     1      28.847  -0.318  53.577  1.00  0.00     0.054 C 
HETATM   29  C19 UNL     1      28.056   0.109  54.771  1.00  0.00    -0.026 C 
HETATM   30  C20 UNL     1      26.791   0.517  54.663  1.00  0.00    -0.020 C 
ENDBRANCH   8  24
TORSDOF 4
ENDMDL
MODEL 2
REMARK VINA RESULT:      -9.1      2.553      6.585
REMARK  4 active torsions:
REMARK  status: ('A' for Active; 'I' for Inactive)
REMARK    1  A    between atoms: C7_8  and  N1_9 
REMARK    2  A    between atoms: N1_9  and  C8_10 
REMARK    3  A    between atoms: C9_12  and  N3_13 
REMARK    4  A    between atoms: C13_18  and  C14_19 
ROOT
HETATM    1  C8  UNL     1      24.761   2.784  52.628  1.00  0.00     0.157 A 
HETATM    2  N2  UNL     1      23.455   2.823  52.942  1.00  0.00    -0.045 NA
HETATM    3  C9  UNL     1      22.467   3.117  52.088  1.00  0.00     0.724 A 
HETATM    4  N4  UNL     1      22.764   3.400  50.801  1.00  0.00    -0.045 NA
HETATM    5  C10 UNL     1      24.079   3.373  50.436  1.00  0.00     0.153 A 
HETATM    6  C11 UNL     1      25.099   3.073  51.313  1.00  0.00     0.037 A 
HETATM    7  C12 UNL     1      26.399   3.139  50.593  1.00  0.00     0.072 A 
HETATM    8  C13 UNL     1      26.042   3.528  49.200  1.00  0.00     0.099 A 
HETATM    9  N5  UNL     1      24.579   3.624  49.135  1.00  0.00    -0.368 N 
HETATM   10  H20 UNL     1      24.127   3.841  48.236  1.00  0.00     0.161 HD
ENDROOT
BRANCH   1  11
HETATM   11  N1  UNL     1      25.792   2.432  53.542  1.00  0.00    -0.339 N 
HETATM   12  H7  UNL     1      25.941   3.108  54.291  1.00  0.00     0.167 HD
BRANCH  11  13
HETATM   13  C7  UNL     1      26.564   1.245  53.451  1.00  0.00     0.039 A 
HETATM   14  C2  UNL     1      27.938   1.244  53.518  1.00  0.00    -0.034 A 
HETATM   15  C1  UNL     1      28.696   2.515  53.707  1.00  0.00     0.050 C 
HETATM   16  C3  UNL     1      28.693   0.101  53.422  1.00  0.00     0.032 A 
HETATM   17  C4  UNL     1      28.092  -1.150  53.246  1.00  0.00     0.034 A 
HETATM   18 CL1  UNL     1      29.098  -2.554  53.126  1.00  0.00    -0.084 Cl
HETATM   19  C5  UNL     1      26.698  -1.198  53.172  1.00  0.00     0.026 A 
HETATM   20  C6  UNL     1      26.015  -0.004  53.278  1.00  0.00     0.032 A 
ENDBRANCH  11  13
ENDBRANCH   1  11
BRANCH   3  21
HETATM   21  N3  UNL     1      21.091   3.144  52.477  1.00  0.00    -0.231 N 
HETATM   22  H8  UNL     1      20.449   2.440  52.081  1.00  0.00     0.174 HD
HETATM   23  H9  UNL     1      20.787   3.896  53.165  1.00  0.00     0.174 HD
ENDBRANCH   3  21
BRANCH   8  24
HETATM   24  C14 UNL     1      26.534   4.894  48.776  1.00  0.00     0.054 C 
HETATM   25  C15 UNL     1      27.973   5.000  48.579  1.00  0.00    -0.004 C 
HETATM   26  C16 UNL     1      28.580   6.077  48.227  1.00  0.00    -0.033 C 
HETATM   27  C17 UNL     1      28.055   7.210  47.922  1.00  0.00    -0.011 C 
HETATM   28  C18 UNL     1      26.636   7.698  48.038  1.00  0.00     0.054 C 
HETATM   29  C19 UNL     1      26.139   7.258  49.376  1.00  0.00    -0.026 C 
HETATM   30  C20 UNL     1      26.093   5.968  49.716  1.00  0.00    -0.020 C 
ENDBRANCH   8  24
TORSDOF 4
ENDMDL
MODEL 3
REMARK VINA RESULT:      -8.7      1.516      2.141
REMARK  4 active torsions:
REMARK  status: ('A' for Active; 'I' for Inactive)
REMARK    1  A    between atoms: C7_8  and  N1_9 
REMARK    2  A    between atoms: N1_9  and  C8_10 
REMARK    3  A    between atoms: C9_12  and  N3_13 
REMARK    4  A    between atoms: C13_18  and  C14_19 
ROOT
HETATM    1  C8  UNL     1      23.869   2.456  50.243  1.00  0.00     0.157 A 
HETATM    2  N2  UNL     1      22.609   1.994  50.163  1.00  0.00    -0.045 NA
HETATM    3  C9  UNL     1      22.009   1.235  51.088  1.00  0.00     0.724 A 
HETATM    4  N4  UNL     1      22.686   0.886  52.203  1.00  0.00    -0.045 NA
HETATM    5  C10 UNL     1      23.970   1.333  52.327  1.00  0.00     0.153 A 
HETATM    6  C11 UNL     1      24.592   2.113  51.376  1.00  0.00     0.037 A 
HETATM    7  C12 UNL     1      25.979   2.414  51.822  1.00  0.00     0.072 A 
HETATM    8  C13 UNL     1      26.118   1.714  53.130  1.00  0.00     0.099 A 
HETATM    9  N5  UNL     1      24.827   1.085  53.428  1.00  0.00    -0.368 N 
HETATM   10  H20 UNL     1      24.702   0.585  54.318  1.00  0.00     0.161 HD
ENDROOT
BRANCH   1  11
HETATM   11  N1  UNL     1      24.475   3.294  49.267  1.00  0.00    -0.339 N 
HETATM   12  H7  UNL     1      24.727   2.818  48.400  1.00  0.00     0.167 HD
BRANCH  11  13
HETATM   13  C7  UNL     1      24.721   4.679  49.450  1.00  0.00     0.039 A 
HETATM   14  C2  UNL     1      25.968   5.240  49.308  1.00  0.00    -0.034 A 
HETATM   15  C1  UNL     1      27.146   4.402  48.935  1.00  0.00     0.050 C 
HETATM   16  C3  UNL     1      26.216   6.578  49.491  1.00  0.00     0.032 A 
HETATM   17  C4  UNL     1      25.189   7.462  49.842  1.00  0.00     0.034 A 
HETATM   18 CL1  UNL     1      25.565   9.137  50.064  1.00  0.00    -0.084 Cl
HETATM   19  C5  UNL     1      23.904   6.937  49.996  1.00  0.00     0.026 A 
HETATM   20  C6  UNL     1      23.741   5.583  49.793  1.00  0.00     0.032 A 
ENDBRANCH  11  13
ENDBRANCH   1  11
BRANCH   3  21
HETATM   21  N3  UNL     1      20.664   0.770  50.951  1.00  0.00    -0.231 N 
HETATM   22  H8  UNL     1      20.128   0.540  51.802  1.00  0.00     0.174 HD
HETATM   23  H9  UNL     1      20.269   0.680  49.966  1.00  0.00     0.174 HD
ENDBRANCH   3  21
BRANCH   8  24
HETATM   24  C14 UNL     1      27.110   0.573  53.137  1.00  0.00     0.054 C 
HETATM   25  C15 UNL     1      26.560  -0.729  52.787  1.00  0.00    -0.004 C 
HETATM   26  C16 UNL     1      27.241  -1.818  52.745  1.00  0.00    -0.033 C 
HETATM   27  C17 UNL     1      28.506  -1.959  52.927  1.00  0.00    -0.011 C 
HETATM   28  C18 UNL     1      29.546  -0.981  53.404  1.00  0.00     0.054 C 
HETATM   29  C19 UNL     1      28.950  -0.253  54.564  1.00  0.00    -0.026 C 
HETATM   30  C20 UNL     1      27.829   0.460  54.442  1.00  0.00    -0.020 C 
ENDBRANCH   8  24
TORSDOF 4
ENDMDL
MODEL 4
REMARK VINA RESULT:      -8.5      3.897      6.312
REMARK  4 active torsions:
REMARK  status: ('A' for Active; 'I' for Inactive)
REMARK    1  A    between atoms: C7_8  and  N1_9 
REMARK    2  A    between atoms: N1_9  and  C8_10 
REMARK    3  A    between atoms: C9_12  and  N3_13 
REMARK    4  A    between atoms: C13_18  and  C14_19 
ROOT
HETATM    1  C8  UNL     1      21.781   3.379  52.266  1.00  0.00     0.157 A 
HETATM    2  N2  UNL     1      21.627   4.700  52.063  1.00  0.00    -0.045 NA
HETATM    3  C9  UNL     1      22.546   5.507  51.520  1.00  0.00     0.724 A 
HETATM    4  N4  UNL     1      23.733   4.993  51.129  1.00  0.00    -0.045 NA
HETATM    5  C10 UNL     1      23.934   3.656  51.315  1.00  0.00     0.153 A 
HETATM    6  C11 UNL     1      22.991   2.822  51.877  1.00  0.00     0.037 A 
HETATM    7  C12 UNL     1      23.535   1.440  51.937  1.00  0.00     0.072 A 
HETATM    8  C13 UNL     1      24.907   1.546  51.368  1.00  0.00     0.099 A 
HETATM    9  N5  UNL     1      25.102   2.940  50.954  1.00  0.00    -0.368 N 
HETATM   10  H20 UNL     1      25.980   3.212  50.493  1.00  0.00     0.161 HD
ENDROOT
BRANCH   1  11
HETATM   11  N1  UNL     1      20.776   2.533  52.809  1.00  0.00    -0.339 N 
HETATM   12  H7  UNL     1      20.794   2.456  53.826  1.00  0.00     0.167 HD
BRANCH  11  13
HETATM   13  C7  UNL     1      19.814   1.840  52.031  1.00  0.00     0.039 A 
HETATM   14  C2  UNL     1      19.523   0.509  52.217  1.00  0.00    -0.034 A 
HETATM   15  C1  UNL     1      20.212  -0.284  53.278  1.00  0.00     0.050 C 
HETATM   16  C3  UNL     1      18.599  -0.171  51.463  1.00  0.00     0.032 A 
HETATM   17  C4  UNL     1      17.889   0.468  50.441  1.00  0.00     0.034 A 
HETATM   18 CL1  UNL     1      16.740  -0.443  49.521  1.00  0.00    -0.084 Cl
HETATM   19  C5  UNL     1      18.150   1.822  50.215  1.00  0.00     0.026 A 
HETATM   20  C6  UNL     1      19.093   2.429  51.018  1.00  0.00     0.032 A 
ENDBRANCH  11  13
ENDBRANCH   1  11
BRANCH   3  21
HETATM   21  N3  UNL     1      22.328   6.907  51.328  1.00  0.00    -0.231 N 
HETATM   22  H8  UNL     1      21.461   7.329  51.695  1.00  0.00     0.174 HD
HETATM   23  H9  UNL     1      23.078   7.458  50.811  1.00  0.00     0.174 HD
ENDBRANCH   3  21
BRANCH   8  24
HETATM   24  C14 UNL     1      26.025   1.280  52.352  1.00  0.00     0.054 C 
HETATM   25  C15 UNL     1      27.109   2.251  52.337  1.00  0.00    -0.004 C 
HETATM   26  C16 UNL     1      28.148   2.193  53.091  1.00  0.00    -0.033 C 
HETATM   27  C17 UNL     1      28.395   1.340  54.021  1.00  0.00    -0.011 C 
HETATM   28  C18 UNL     1      27.678   0.075  54.410  1.00  0.00     0.054 C 
HETATM   29  C19 UNL     1      27.359  -0.645  53.140  1.00  0.00    -0.026 C 
HETATM   30  C20 UNL     1      26.600  -0.090  52.193  1.00  0.00    -0.020 C 
ENDBRANCH   8  24
TORSDOF 4
ENDMDL
MODEL 5
REMARK VINA RESULT:      -8.4      1.544      2.165
REMARK  4 active torsions:
REMARK  status: ('A' for Active; 'I' for Inactive)
REMARK    1  A    between atoms: C7_8  and  N1_9 
REMARK    2  A    between atoms: N1_9  and  C8_10 
REMARK    3  A    between atoms: C9_12  and  N3_13 
REMARK    4  A    between atoms: C13_18  and  C14_19 
ROOT
HETATM    1  C8  UNL     1      23.682   4.870  48.973  1.00  0.00     0.157 A 
HETATM    2  N2  UNL     1      23.011   4.669  47.825  1.00  0.00    -0.045 NA
HETATM    3  C9  UNL     1      22.187   3.641  47.586  1.00  0.00     0.724 A 
HETATM    4  N4  UNL     1      21.987   2.712  48.547  1.00  0.00    -0.045 NA
HETATM    5  C10 UNL     1      22.649   2.876  49.730  1.00  0.00     0.153 A 
HETATM    6  C11 UNL     1      23.499   3.932  49.979  1.00  0.00     0.037 A 
HETATM    7  C12 UNL     1      24.052   3.800  51.353  1.00  0.00     0.072 A 
HETATM    8  C13 UNL     1      23.454   2.544  51.885  1.00  0.00     0.099 A 
HETATM    9  N5  UNL     1      22.551   2.019  50.854  1.00  0.00    -0.368 N 
HETATM   10  H20 UNL     1      22.002   1.171  51.047  1.00  0.00     0.161 HD
ENDROOT
BRANCH   1  11
HETATM   11  N1  UNL     1      24.522   5.990  49.221  1.00  0.00    -0.339 N 
HETATM   12  H7  UNL     1      24.068   6.754  49.722  1.00  0.00     0.167 HD
BRANCH  11  13
HETATM   13  C7  UNL     1      25.880   6.070  48.819  1.00  0.00     0.039 A 
HETATM   14  C2  UNL     1      26.427   7.203  48.263  1.00  0.00    -0.034 A 
HETATM   15  C1  UNL     1      25.604   8.431  48.063  1.00  0.00     0.050 C 
HETATM   16  C3  UNL     1      27.738   7.285  47.864  1.00  0.00     0.032 A 
HETATM   17  C4  UNL     1      28.606   6.197  48.004  1.00  0.00     0.034 A 
HETATM   18 CL1  UNL     1      30.248   6.361  47.478  1.00  0.00    -0.084 Cl
HETATM   19  C5  UNL     1      28.095   5.024  48.565  1.00  0.00     0.026 A 
HETATM   20  C6  UNL     1      26.767   5.026  48.939  1.00  0.00     0.032 A 
ENDBRANCH  11  13
ENDBRANCH   1  11
BRANCH   3  21
HETATM   21  N3  UNL     1      21.498   3.476  46.344  1.00  0.00    -0.231 N 
HETATM   22  H8  UNL     1      20.475   3.346  46.358  1.00  0.00     0.174 HD
HETATM   23  H9  UNL     1      22.077   3.494  45.451  1.00  0.00     0.174 HD
ENDBRANCH   3  21
BRANCH   8  24
HETATM   24  C14 UNL     1      24.441   1.426  52.134  1.00  0.00     0.054 C 
HETATM   25  C15 UNL     1      24.101   0.531  53.230  1.00  0.00    -0.004 C 
HETATM   26  C16 UNL     1      24.815  -0.471  53.599  1.00  0.00    -0.033 C 
HETATM   27  C17 UNL     1      25.894  -0.909  53.053  1.00  0.00    -0.011 C 
HETATM   28  C18 UNL     1      26.748  -0.326  51.959  1.00  0.00     0.054 C 
HETATM   29  C19 UNL     1      26.891   1.131  52.257  1.00  0.00    -0.026 C 
HETATM   30  C20 UNL     1      25.830   1.936  52.339  1.00  0.00    -0.020 C 
ENDBRANCH   8  24
TORSDOF 4
ENDMDL
MODEL 6
REMARK VINA RESULT:      -7.9      2.864      3.840
REMARK  4 active torsions:
REMARK  status: ('A' for Active; 'I' for Inactive)
REMARK    1  A    between atoms: C7_8  and  N1_9 
REMARK    2  A    between atoms: N1_9  and  C8_10 
REMARK    3  A    between atoms: C9_12  and  N3_13 
REMARK    4  A    between atoms: C13_18  and  C14_19 
ROOT
HETATM    1  C8  UNL     1      21.102   4.244  49.559  1.00  0.00     0.157 A 
HETATM    2  N2  UNL     1      20.530   4.005  48.365  1.00  0.00    -0.045 NA
HETATM    3  C9  UNL     1      19.625   3.049  48.125  1.00  0.00     0.724 A 
HETATM    4  N4  UNL     1      19.226   2.242  49.133  1.00  0.00    -0.045 NA
HETATM    5  C10 UNL     1      19.781   2.449  50.363  1.00  0.00     0.153 A 
HETATM    6  C11 UNL     1      20.715   3.431  50.614  1.00  0.00     0.037 A 
HETATM    7  C12 UNL     1      21.110   3.375  52.047  1.00  0.00     0.072 A 
HETATM    8  C13 UNL     1      20.325   2.244  52.613  1.00  0.00     0.099 A 
HETATM    9  N5  UNL     1      19.476   1.719  51.538  1.00  0.00    -0.368 N 
HETATM   10  H20 UNL     1      18.819   0.954  51.741  1.00  0.00     0.161 HD
ENDROOT
BRANCH   1  11
HETATM   11  N1  UNL     1      22.033   5.291  49.801  1.00  0.00    -0.339 N 
HETATM   12  H7  UNL     1      21.623   6.138  50.194  1.00  0.00     0.167 HD
BRANCH  11  13
HETATM   13  C7  UNL     1      23.423   5.197  49.531  1.00  0.00     0.039 A 
HETATM   14  C2  UNL     1      24.138   6.214  48.943  1.00  0.00    -0.034 A 
HETATM   15  C1  UNL     1      23.475   7.496  48.563  1.00  0.00     0.050 C 
HETATM   16  C3  UNL     1      25.481   6.128  48.672  1.00  0.00     0.032 A 
HETATM   17  C4  UNL     1      26.210   4.975  48.985  1.00  0.00     0.034 A 
HETATM   18 CL1  UNL     1      27.900   4.924  48.613  1.00  0.00    -0.084 Cl
HETATM   19  C5  UNL     1      25.525   3.915  49.585  1.00  0.00     0.026 A 
HETATM   20  C6  UNL     1      24.177   4.084  49.824  1.00  0.00     0.032 A 
ENDBRANCH  11  13
ENDBRANCH   1  11
BRANCH   3  21
HETATM   21  N3  UNL     1      19.049   2.838  46.833  1.00  0.00    -0.231 N 
HETATM   22  H8  UNL     1      19.593   2.322  46.125  1.00  0.00     0.174 HD
HETATM   23  H9  UNL     1      18.073   3.226  46.657  1.00  0.00     0.174 HD
ENDBRANCH   3  21
BRANCH   8  24
HETATM   24  C14 UNL     1      21.150   1.059  53.062  1.00  0.00     0.054 C 
HETATM   25  C15 UNL     1      20.779   0.498  54.353  1.00  0.00    -0.004 C 
HETATM   26  C16 UNL     1      21.365  -0.503  54.907  1.00  0.00    -0.033 C 
HETATM   27  C17 UNL     1      22.312  -1.225  54.420  1.00  0.00    -0.011 C 
HETATM   28  C18 UNL     1      23.141  -1.049  53.176  1.00  0.00     0.054 C 
HETATM   29  C19 UNL     1      23.529   0.393  53.120  1.00  0.00    -0.026 C 
HETATM   30  C20 UNL     1      22.613   1.362  53.068  1.00  0.00    -0.020 C 
ENDBRANCH   8  24
TORSDOF 4
ENDMDL
MODEL 7
REMARK VINA RESULT:      -7.9      2.930      4.091
REMARK  4 active torsions:
REMARK  status: ('A' for Active; 'I' for Inactive)
REMARK    1  A    between atoms: C7_8  and  N1_9 
REMARK    2  A    between atoms: N1_9  and  C8_10 
REMARK    3  A    between atoms: C9_12  and  N3_13 
REMARK    4  A    between atoms: C13_18  and  C14_19 
ROOT
HETATM    1  C8  UNL     1      22.320   4.398  49.768  1.00  0.00     0.157 A 
HETATM    2  N2  UNL     1      21.987   4.280  48.470  1.00  0.00    -0.045 NA
HETATM    3  C9  UNL     1      20.979   3.536  47.999  1.00  0.00     0.724 A 
HETATM    4  N4  UNL     1      20.212   2.835  48.862  1.00  0.00    -0.045 NA
HETATM    5  C10 UNL     1      20.513   2.924  50.191  1.00  0.00     0.153 A 
HETATM    6  C11 UNL     1      21.551   3.688  50.679  1.00  0.00     0.037 A 
HETATM    7  C12 UNL     1      21.602   3.554  52.159  1.00  0.00     0.072 A 
HETATM    8  C13 UNL     1      20.495   2.616  52.494  1.00  0.00     0.099 A 
HETATM    9  N5  UNL     1      19.814   2.278  51.240  1.00  0.00    -0.368 N 
HETATM   10  H20 UNL     1      18.984   1.670  51.263  1.00  0.00     0.161 HD
ENDROOT
BRANCH   1  11
HETATM   11  N1  UNL     1      23.371   5.225  50.250  1.00  0.00    -0.339 N 
HETATM   12  H7  UNL     1      23.106   5.837  51.022  1.00  0.00     0.167 HD
BRANCH  11  13
HETATM   13  C7  UNL     1      24.689   5.224  49.724  1.00  0.00     0.039 A 
HETATM   14  C2  UNL     1      25.578   4.199  49.947  1.00  0.00    -0.034 A 
HETATM   15  C1  UNL     1      25.188   3.010  50.760  1.00  0.00     0.050 C 
HETATM   16  C3  UNL     1      26.857   4.194  49.448  1.00  0.00     0.032 A 
HETATM   17  C4  UNL     1      27.335   5.254  48.671  1.00  0.00     0.034 A 
HETATM   18 CL1  UNL     1      28.959   5.193  48.075  1.00  0.00    -0.084 Cl
HETATM   19  C5  UNL     1      26.466   6.318  48.417  1.00  0.00     0.026 A 
HETATM   20  C6  UNL     1      25.198   6.244  48.954  1.00  0.00     0.032 A 
ENDBRANCH  11  13
ENDBRANCH   1  11
BRANCH   3  21
HETATM   21  N3  UNL     1      20.670   3.446  46.606  1.00  0.00    -0.231 N 
HETATM   22  H8  UNL     1      19.780   3.009  46.322  1.00  0.00     0.174 HD
HETATM   23  H9  UNL     1      21.378   3.840  45.916  1.00  0.00     0.174 HD
ENDBRANCH   3  21
BRANCH   8  24
HETATM   24  C14 UNL     1      20.940   1.285  53.059  1.00  0.00     0.054 C 
HETATM   25  C15 UNL     1      22.253   0.833  52.621  1.00  0.00    -0.004 C 
HETATM   26  C16 UNL     1      22.800  -0.271  52.984  1.00  0.00    -0.033 C 
HETATM   27  C17 UNL     1      22.347  -1.131  53.825  1.00  0.00    -0.011 C 
HETATM   28  C18 UNL     1      21.009  -1.227  54.508  1.00  0.00     0.054 C 
HETATM   29  C19 UNL     1      19.975  -0.953  53.466  1.00  0.00    -0.026 C 
HETATM   30  C20 UNL     1      19.944   0.202  52.798  1.00  0.00    -0.020 C 
ENDBRANCH   8  24
TORSDOF 4
ENDMDL
MODEL 8
REMARK VINA RESULT:      -7.9      2.266      3.227
REMARK  4 active torsions:
REMARK  status: ('A' for Active; 'I' for Inactive)
REMARK    1  A    between atoms: C7_8  and  N1_9 
REMARK    2  A    between atoms: N1_9  and  C8_10 
REMARK    3  A    between atoms: C9_12  and  N3_13 
REMARK    4  A    between atoms: C13_18  and  C14_19 
ROOT
HETATM    1  C8  UNL     1      23.160   4.083  51.096  1.00  0.00     0.157 A 
HETATM    2  N2  UNL     1      22.573   3.753  49.932  1.00  0.00    -0.045 NA
HETATM    3  C9  UNL     1      22.390   2.502  49.492  1.00  0.00     0.724 A 
HETATM    4  N4  UNL     1      22.811   1.463  50.246  1.00  0.00    -0.045 NA
HETATM    5  C10 UNL     1      23.414   1.752  51.437  1.00  0.00     0.153 A 
HETATM    6  C11 UNL     1      23.607   3.039  51.892  1.00  0.00     0.037 A 
HETATM    7  C12 UNL     1      24.294   2.993  53.211  1.00  0.00     0.072 A 
HETATM    8  C13 UNL     1      24.504   1.543  53.479  1.00  0.00     0.099 A 
HETATM    9  N5  UNL     1      23.903   0.801  52.365  1.00  0.00    -0.368 N 
HETATM   10  H20 UNL     1      23.905  -0.228  52.385  1.00  0.00     0.161 HD
ENDROOT
BRANCH   1  11
HETATM   11  N1  UNL     1      23.310   5.418  51.562  1.00  0.00    -0.339 N 
HETATM   12  H7  UNL     1      23.727   5.497  52.490  1.00  0.00     0.167 HD
BRANCH  11  13
HETATM   13  C7  UNL     1      22.924   6.566  50.824  1.00  0.00     0.039 A 
HETATM   14  C2  UNL     1      23.830   7.389  50.197  1.00  0.00    -0.034 A 
HETATM   15  C1  UNL     1      25.293   7.100  50.254  1.00  0.00     0.050 C 
HETATM   16  C3  UNL     1      23.465   8.506  49.487  1.00  0.00     0.032 A 
HETATM   17  C4  UNL     1      22.121   8.876  49.362  1.00  0.00     0.034 A 
HETATM   18 CL1  UNL     1      21.724  10.298  48.459  1.00  0.00    -0.084 Cl
HETATM   19  C5  UNL     1      21.164   8.070  49.983  1.00  0.00     0.026 A 
HETATM   20  C6  UNL     1      21.615   6.966  50.675  1.00  0.00     0.032 A 
ENDBRANCH  11  13
ENDBRANCH   1  11
BRANCH   3  21
HETATM   21  N3  UNL     1      21.758   2.207  48.244  1.00  0.00    -0.231 N 
HETATM   22  H8  UNL     1      20.903   2.724  47.986  1.00  0.00     0.174 HD
HETATM   23  H9  UNL     1      22.201   1.460  47.629  1.00  0.00     0.174 HD
ENDBRANCH   3  21
BRANCH   8  24
HETATM   24  C14 UNL     1      25.951   1.103  53.495  1.00  0.00     0.054 C 
HETATM   25  C15 UNL     1      26.921   2.154  53.220  1.00  0.00    -0.004 C 
HETATM   26  C16 UNL     1      28.193   1.977  53.183  1.00  0.00    -0.033 C 
HETATM   27  C17 UNL     1      28.843   0.897  53.439  1.00  0.00    -0.011 C 
HETATM   28  C18 UNL     1      28.357  -0.507  53.684  1.00  0.00     0.054 C 
HETATM   29  C19 UNL     1      27.308  -0.783  52.657  1.00  0.00    -0.026 C 
HETATM   30  C20 UNL     1      26.202  -0.042  52.569  1.00  0.00    -0.020 C 
ENDBRANCH   8  24
TORSDOF 4
ENDMDL
MODEL 9
REMARK VINA RESULT:      -7.8      3.366      7.161
REMARK  4 active torsions:
REMARK  status: ('A' for Active; 'I' for Inactive)
REMARK    1  A    between atoms: C7_8  and  N1_9 
REMARK    2  A    between atoms: N1_9  and  C8_10 
REMARK    3  A    between atoms: C9_12  and  N3_13 
REMARK    4  A    between atoms: C13_18  and  C14_19 
ROOT
HETATM    1  C8  UNL     1      22.395   1.618  51.613  1.00  0.00     0.157 A 
HETATM    2  N2  UNL     1      21.364   1.066  52.278  1.00  0.00    -0.045 NA
HETATM    3  C9  UNL     1      20.220   0.655  51.717  1.00  0.00     0.724 A 
HETATM    4  N4  UNL     1      20.049   0.787  50.383  1.00  0.00    -0.045 NA
HETATM    5  C10 UNL     1      21.071   1.342  49.668  1.00  0.00     0.153 A 
HETATM    6  C11 UNL     1      22.249   1.768  50.242  1.00  0.00     0.037 A 
HETATM    7  C12 UNL     1      23.134   2.325  49.184  1.00  0.00     0.072 A 
HETATM    8  C13 UNL     1      22.348   2.201  47.926  1.00  0.00     0.099 A 
HETATM    9  N5  UNL     1      21.080   1.544  48.266  1.00  0.00    -0.368 N 
HETATM   10  H20 UNL     1      20.408   1.325  47.518  1.00  0.00     0.161 HD
ENDROOT
BRANCH   1  11
HETATM   11  N1  UNL     1      23.618   2.012  52.223  1.00  0.00    -0.339 N 
HETATM   12  H7  UNL     1      23.649   2.989  52.514  1.00  0.00     0.167 HD
BRANCH  11  13
HETATM   13  C7  UNL     1      24.720   1.142  52.428  1.00  0.00     0.039 A 
HETATM   14  C2  UNL     1      25.960   1.369  51.876  1.00  0.00    -0.034 A 
HETATM   15  C1  UNL     1      26.212   2.571  51.029  1.00  0.00     0.050 C 
HETATM   16  C3  UNL     1      27.029   0.528  52.063  1.00  0.00     0.032 A 
HETATM   17  C4  UNL     1      26.912  -0.630  52.840  1.00  0.00     0.034 A 
HETATM   18 CL1  UNL     1      28.295  -1.653  53.034  1.00  0.00    -0.084 Cl
HETATM   19  C5  UNL     1      25.671  -0.901  53.421  1.00  0.00     0.026 A 
HETATM   20  C6  UNL     1      24.650  -0.005  53.184  1.00  0.00     0.032 A 
ENDBRANCH  11  13
ENDBRANCH   1  11
BRANCH   3  21
HETATM   21  N3  UNL     1      19.155   0.074  52.473  1.00  0.00    -0.231 N 
HETATM   22  H8  UNL     1      19.356  -0.745  53.066  1.00  0.00     0.174 HD
HETATM   23  H9  UNL     1      18.191   0.518  52.390  1.00  0.00     0.174 HD
ENDBRANCH   3  21
BRANCH   8  24
HETATM   24  C14 UNL     1      21.941   3.515  47.298  1.00  0.00     0.054 C 
HETATM   25  C15 UNL     1      22.003   3.553  45.844  1.00  0.00    -0.004 C 
HETATM   26  C16 UNL     1      21.705   4.579  45.130  1.00  0.00    -0.033 C 
HETATM   27  C17 UNL     1      21.244   5.709  45.536  1.00  0.00    -0.011 C 
HETATM   28  C18 UNL     1      21.071   6.258  46.927  1.00  0.00     0.054 C 
HETATM   29  C19 UNL     1      22.320   5.927  47.676  1.00  0.00    -0.026 C 
HETATM   30  C20 UNL     1      22.721   4.666  47.846  1.00  0.00    -0.020 C 
ENDBRANCH   8  24
TORSDOF 4
ENDMDL
