MODEL 1
REMARK VINA RESULT:      -7.6      0.000      0.000
REMARK  4 active torsions:
REMARK  status: ('A' for Active; 'I' for Inactive)
REMARK    1  A    between atoms: N1_2  and  C2_3 
REMARK    2  A    between atoms: C3_5  and  C4_6 
REMARK    3  A    between atoms: C6_8  and  N4_11 
REMARK    4  A    between atoms: N5_13  and  C9_14 
ROOT
HETATM    1  C2  UNL     1      24.738  -0.456  53.859  1.00  0.00     0.123 A 
HETATM    2  N2  UNL     1      25.782  -1.037  53.970  1.00  0.00    -0.166 NA
HETATM    3  C3  UNL     1      26.911  -0.050  53.537  1.00  0.00     0.306 C 
HETATM    4  N4  UNL     1      26.970  -0.329  55.111  1.00  0.00     0.022 N 
HETATM    5  C8  UNL     1      25.776   0.398  54.519  1.00  0.00     0.386 A 
HETATM    6  N5  UNL     1      26.069   1.028  53.194  1.00  0.00    -0.290 N 
HETATM    7  H9  UNL     1      26.283  -0.852  55.890  1.00  0.00     0.290 HD
ENDROOT
BRANCH   6   8
HETATM    8  C9  UNL     1      25.668   2.041  52.265  1.00  0.00     0.038 A 
HETATM    9  C10 UNL     1      26.565   2.071  51.190  1.00  0.00     0.029 A 
HETATM   10  C11 UNL     1      26.363   2.990  50.156  1.00  0.00     0.004 A 
HETATM   11  C12 UNL     1      25.271   3.825  50.261  1.00  0.00     0.019 A 
HETATM   12  C13 UNL     1      24.420   3.744  51.352  1.00  0.00     0.013 A 
HETATM   13 BR1  UNL     1      22.909   4.930  51.456  1.00  0.00    -0.051 Br
HETATM   14  C14 UNL     1      24.599   2.861  52.365  1.00  0.00     0.048 A 
ENDBRANCH   6   8
BRANCH   3  15
HETATM   15  C4  UNL     1      28.209  -0.650  53.878  1.00  0.00     0.137 A 
HETATM   16  C5  UNL     1      27.861  -1.818  52.798  1.00  0.00     0.072 A 
HETATM   17  C6  UNL     1      28.813  -1.114  53.148  1.00  0.00     0.189 A 
HETATM   18  C7  UNL     1      30.088  -0.354  53.658  1.00  0.00     0.157 A 
HETATM   19  N3  UNL     1      29.142   0.350  54.601  1.00  0.00    -0.403 N 
HETATM   20  H8  UNL     1      28.621   0.890  55.272  1.00  0.00     0.154 HD
ENDBRANCH   3  15
BRANCH   1  21
HETATM   21  N1  UNL     1      23.419  -0.246  53.535  1.00  0.00    -0.384 N 
HETATM   22  C1  UNL     1      22.637  -0.962  54.564  1.00  0.00     0.147 C 
HETATM   23  H4  UNL     1      23.295   0.351  52.678  1.00  0.00     0.160 HD
ENDBRANCH   1  21
TORSDOF 4
ENDMDL
MODEL 2
REMARK VINA RESULT:      -7.1      2.426      4.614
REMARK  4 active torsions:
REMARK  status: ('A' for Active; 'I' for Inactive)
REMARK    1  A    between atoms: N1_2  and  C2_3 
REMARK    2  A    between atoms: C3_5  and  C4_6 
REMARK    3  A    between atoms: C6_8  and  N4_11 
REMARK    4  A    between atoms: N5_13  and  C9_14 
ROOT
HETATM    1  C2  UNL     1      24.155   2.889  52.602  1.00  0.00     0.123 A 
HETATM    2  N2  UNL     1      25.231   2.446  52.894  1.00  0.00    -0.166 NA
HETATM    3  C3  UNL     1      25.109   0.890  52.892  1.00  0.00     0.306 C 
HETATM    4  N4  UNL     1      26.016   1.393  51.675  1.00  0.00     0.022 N 
HETATM    5  C8  UNL     1      24.542   1.748  51.711  1.00  0.00     0.386 A 
HETATM    6  N5  UNL     1      23.737   0.830  52.575  1.00  0.00    -0.290 N 
HETATM    7  H9  UNL     1      26.268   2.421  51.193  1.00  0.00     0.290 HD
ENDROOT
BRANCH   6   8
HETATM    8  C9  UNL     1      22.424   0.322  52.839  1.00  0.00     0.038 A 
HETATM    9  C10 UNL     1      22.439  -0.417  54.029  1.00  0.00     0.029 A 
HETATM   10  C11 UNL     1      21.256  -1.006  54.483  1.00  0.00     0.004 A 
HETATM   11  C12 UNL     1      20.125  -0.818  53.717  1.00  0.00     0.019 A 
HETATM   12  C13 UNL     1      20.176  -0.075  52.548  1.00  0.00     0.013 A 
HETATM   13 BR1  UNL     1      18.574   0.160  51.512  1.00  0.00    -0.051 Br
HETATM   14  C14 UNL     1      21.314   0.504  52.091  1.00  0.00     0.048 A 
ENDBRANCH   6   8
BRANCH   3  15
HETATM   15  C4  UNL     1      26.457   0.317  53.019  1.00  0.00     0.137 A 
HETATM   16  C5  UNL     1      26.384   0.705  54.599  1.00  0.00     0.072 A 
HETATM   17  C6  UNL     1      26.749  -0.226  53.876  1.00  0.00     0.189 A 
HETATM   18  C7  UNL     1      27.366  -1.368  52.993  1.00  0.00     0.157 A 
HETATM   19  N3  UNL     1      26.823  -0.589  51.820  1.00  0.00    -0.403 N 
HETATM   20  H8  UNL     1      26.509  -0.170  50.959  1.00  0.00     0.154 HD
ENDBRANCH   3  15
BRANCH   1  21
HETATM   21  N1  UNL     1      23.054   3.709  52.651  1.00  0.00    -0.384 N 
HETATM   22  C1  UNL     1      23.486   4.993  52.063  1.00  0.00     0.147 C 
HETATM   23  H4  UNL     1      22.209   3.241  53.068  1.00  0.00     0.160 HD
ENDBRANCH   1  21
TORSDOF 4
ENDMDL
MODEL 3
REMARK VINA RESULT:      -6.9      1.565      1.865
REMARK  4 active torsions:
REMARK  status: ('A' for Active; 'I' for Inactive)
REMARK    1  A    between atoms: N1_2  and  C2_3 
REMARK    2  A    between atoms: C3_5  and  C4_6 
REMARK    3  A    between atoms: C6_8  and  N4_11 
REMARK    4  A    between atoms: N5_13  and  C9_14 
ROOT
HETATM    1  C2  UNL     1      23.563   0.604  52.352  1.00  0.00     0.123 A 
HETATM    2  N2  UNL     1      24.411  -0.116  52.802  1.00  0.00    -0.166 NA
HETATM    3  C3  UNL     1      25.738   0.704  52.852  1.00  0.00     0.306 C 
HETATM    4  N4  UNL     1      25.185   0.422  54.326  1.00  0.00     0.022 N 
HETATM    5  C8  UNL     1      24.393   1.307  53.382  1.00  0.00     0.386 A 
HETATM    6  N5  UNL     1      25.225   1.888  52.283  1.00  0.00    -0.290 N 
HETATM    7  H9  UNL     1      24.201  -0.000  54.780  1.00  0.00     0.290 HD
ENDROOT
BRANCH   6   8
HETATM    8  C9  UNL     1      25.323   2.946  51.323  1.00  0.00     0.038 A 
HETATM    9  C10 UNL     1      26.432   2.726  50.497  1.00  0.00     0.029 A 
HETATM   10  C11 UNL     1      26.719   3.640  49.479  1.00  0.00     0.004 A 
HETATM   11  C12 UNL     1      25.875   4.722  49.349  1.00  0.00     0.019 A 
HETATM   12  C13 UNL     1      24.792   4.882  50.200  1.00  0.00     0.013 A 
HETATM   13 BR1  UNL     1      23.642   6.408  49.981  1.00  0.00    -0.051 Br
HETATM   14  C14 UNL     1      24.497   4.007  51.193  1.00  0.00     0.048 A 
ENDBRANCH   6   8
BRANCH   3  15
HETATM   15  C4  UNL     1      26.734  -0.070  53.607  1.00  0.00     0.137 A 
HETATM   16  C5  UNL     1      26.813  -1.067  52.321  1.00  0.00     0.072 A 
HETATM   17  C6  UNL     1      27.565  -0.515  53.131  1.00  0.00     0.189 A 
HETATM   18  C7  UNL     1      28.543   0.038  54.227  1.00  0.00     0.157 A 
HETATM   19  N3  UNL     1      27.326   0.735  54.788  1.00  0.00    -0.403 N 
HETATM   20  H8  UNL     1      26.600   1.252  55.255  1.00  0.00     0.154 HD
ENDBRANCH   3  15
BRANCH   1  21
HETATM   21  N1  UNL     1      22.490   0.994  51.587  1.00  0.00    -0.384 N 
HETATM   22  C1  UNL     1      21.587   1.718  52.505  1.00  0.00     0.147 C 
HETATM   23  H4  UNL     1      22.574   0.703  50.580  1.00  0.00     0.160 HD
ENDBRANCH   1  21
TORSDOF 4
ENDMDL
MODEL 4
REMARK VINA RESULT:      -6.9      2.423      5.542
REMARK  4 active torsions:
REMARK  status: ('A' for Active; 'I' for Inactive)
REMARK    1  A    between atoms: N1_2  and  C2_3 
REMARK    2  A    between atoms: C3_5  and  C4_6 
REMARK    3  A    between atoms: C6_8  and  N4_11 
REMARK    4  A    between atoms: N5_13  and  C9_14 
ROOT
HETATM    1  C2  UNL     1      25.569   0.380  52.551  1.00  0.00     0.123 A 
HETATM    2  N2  UNL     1      25.610   1.433  51.978  1.00  0.00    -0.166 NA
HETATM    3  C3  UNL     1      24.274   2.181  52.282  1.00  0.00     0.306 C 
HETATM    4  N4  UNL     1      25.507   2.901  53.001  1.00  0.00     0.022 N 
HETATM    5  C8  UNL     1      25.101   1.502  53.426  1.00  0.00     0.386 A 
HETATM    6  N5  UNL     1      23.689   1.165  53.066  1.00  0.00    -0.290 N 
HETATM    7  H9  UNL     1      26.627   2.648  53.186  1.00  0.00     0.290 HD
ENDROOT
BRANCH   6   8
HETATM    8  C9  UNL     1      22.574   0.319  53.368  1.00  0.00     0.038 A 
HETATM    9  C10 UNL     1      22.947  -0.616  54.342  1.00  0.00     0.029 A 
HETATM   10  C11 UNL     1      22.007  -1.547  54.793  1.00  0.00     0.004 A 
HETATM   11  C12 UNL     1      20.746  -1.486  54.240  1.00  0.00     0.019 A 
HETATM   12  C13 UNL     1      20.440  -0.536  53.278  1.00  0.00     0.013 A 
HETATM   13 BR1  UNL     1      18.667  -0.489  52.535  1.00  0.00    -0.051 Br
HETATM   14  C14 UNL     1      21.337   0.376  52.828  1.00  0.00     0.048 A 
ENDBRANCH   6   8
BRANCH   3  15
HETATM   15  C4  UNL     1      24.390   3.560  51.787  1.00  0.00     0.137 A 
HETATM   16  C5  UNL     1      24.276   2.943  50.284  1.00  0.00     0.072 A 
HETATM   17  C6  UNL     1      23.846   3.893  50.945  1.00  0.00     0.189 A 
HETATM   18  C7  UNL     1      23.398   5.196  51.697  1.00  0.00     0.157 A 
HETATM   19  N3  UNL     1      24.104   4.603  52.893  1.00  0.00    -0.403 N 
HETATM   20  H8  UNL     1      24.533   4.318  53.758  1.00  0.00     0.154 HD
ENDBRANCH   3  15
BRANCH   1  21
HETATM   21  N1  UNL     1      25.715  -0.971  52.756  1.00  0.00    -0.384 N 
HETATM   22  C1  UNL     1      27.170  -1.208  52.835  1.00  0.00     0.147 C 
HETATM   23  H4  UNL     1      24.796  -1.481  52.813  1.00  0.00     0.160 HD
ENDBRANCH   1  21
TORSDOF 4
ENDMDL
MODEL 5
REMARK VINA RESULT:      -6.7      3.054      5.959
REMARK  4 active torsions:
REMARK  status: ('A' for Active; 'I' for Inactive)
REMARK    1  A    between atoms: N1_2  and  C2_3 
REMARK    2  A    between atoms: C3_5  and  C4_6 
REMARK    3  A    between atoms: C6_8  and  N4_11 
REMARK    4  A    between atoms: N5_13  and  C9_14 
ROOT
HETATM    1  C2  UNL     1      24.626   3.613  51.063  1.00  0.00     0.123 A 
HETATM    2  N2  UNL     1      23.516   3.224  50.823  1.00  0.00    -0.166 NA
HETATM    3  C3  UNL     1      23.264   1.963  51.708  1.00  0.00     0.306 C 
HETATM    4  N4  UNL     1      22.369   3.193  52.199  1.00  0.00     0.022 N 
HETATM    5  C8  UNL     1      23.879   3.269  52.315  1.00  0.00     0.386 A 
HETATM    6  N5  UNL     1      24.537   1.925  52.313  1.00  0.00    -0.290 N 
HETATM    7  H9  UNL     1      22.315   4.331  51.963  1.00  0.00     0.290 HD
ENDROOT
BRANCH   6   8
HETATM    8  C9  UNL     1      25.713   1.198  52.683  1.00  0.00     0.038 A 
HETATM    9  C10 UNL     1      25.579  -0.140  52.290  1.00  0.00     0.029 A 
HETATM   10  C11 UNL     1      26.618  -1.038  52.551  1.00  0.00     0.004 A 
HETATM   11  C12 UNL     1      27.732  -0.541  53.191  1.00  0.00     0.019 A 
HETATM   12  C13 UNL     1      27.804   0.795  53.555  1.00  0.00     0.013 A 
HETATM   13 BR1  UNL     1      29.379   1.442  54.448  1.00  0.00    -0.051 Br
HETATM   14  C14 UNL     1      26.808   1.681  53.311  1.00  0.00     0.048 A 
ENDBRANCH   6   8
BRANCH   3  15
HETATM   15  C4  UNL     1      21.843   1.602  51.609  1.00  0.00     0.137 A 
HETATM   16  C5  UNL     1      22.129   1.239  50.047  1.00  0.00     0.072 A 
HETATM   17  C6  UNL     1      21.519   0.787  51.021  1.00  0.00     0.189 A 
HETATM   18  C7  UNL     1      20.606   0.257  52.183  1.00  0.00     0.157 A 
HETATM   19  N3  UNL     1      21.197   1.382  52.997  1.00  0.00    -0.403 N 
HETATM   20  H8  UNL     1      21.517   2.085  53.644  1.00  0.00     0.154 HD
ENDBRANCH   3  15
BRANCH   1  21
HETATM   21  N1  UNL     1      25.889   4.101  50.828  1.00  0.00    -0.384 N 
HETATM   22  C1  UNL     1      26.388   3.365  49.649  1.00  0.00     0.147 C 
HETATM   23  H4  UNL     1      26.175   4.850  51.509  1.00  0.00     0.160 HD
ENDBRANCH   1  21
TORSDOF 4
ENDMDL
MODEL 6
REMARK VINA RESULT:      -6.7      2.983      4.395
REMARK  4 active torsions:
REMARK  status: ('A' for Active; 'I' for Inactive)
REMARK    1  A    between atoms: N1_2  and  C2_3 
REMARK    2  A    between atoms: C3_5  and  C4_6 
REMARK    3  A    between atoms: C6_8  and  N4_11 
REMARK    4  A    between atoms: N5_13  and  C9_14 
ROOT
HETATM    1  C2  UNL     1      23.829   3.707  52.657  1.00  0.00     0.123 A 
HETATM    2  N2  UNL     1      24.449   2.845  53.216  1.00  0.00    -0.166 NA
HETATM    3  C3  UNL     1      24.696   1.704  52.181  1.00  0.00     0.306 C 
HETATM    4  N4  UNL     1      26.061   2.455  52.537  1.00  0.00     0.022 N 
HETATM    5  C8  UNL     1      24.958   3.203  51.811  1.00  0.00     0.386 A 
HETATM    6  N5  UNL     1      23.998   2.296  51.109  1.00  0.00    -0.290 N 
HETATM    7  H9  UNL     1      26.354   3.420  53.116  1.00  0.00     0.290 HD
ENDROOT
BRANCH   6   8
HETATM    8  C9  UNL     1      23.027   2.206  50.060  1.00  0.00     0.038 A 
HETATM    9  C10 UNL     1      22.063   1.247  50.397  1.00  0.00     0.029 A 
HETATM   10  C11 UNL     1      21.010   0.995  49.512  1.00  0.00     0.004 A 
HETATM   11  C12 UNL     1      20.986   1.721  48.341  1.00  0.00     0.019 A 
HETATM   12  C13 UNL     1      21.971   2.657  48.066  1.00  0.00     0.013 A 
HETATM   13 BR1  UNL     1      21.896   3.645  46.418  1.00  0.00    -0.051 Br
HETATM   14  C14 UNL     1      23.000   2.916  48.911  1.00  0.00     0.048 A 
ENDBRANCH   6   8
BRANCH   3  15
HETATM   15  C4  UNL     1      25.643   0.743  52.764  1.00  0.00     0.137 A 
HETATM   16  C5  UNL     1      24.395   0.168  53.639  1.00  0.00     0.072 A 
HETATM   17  C6  UNL     1      25.359  -0.249  52.988  1.00  0.00     0.189 A 
HETATM   18  C7  UNL     1      26.651  -0.819  52.303  1.00  0.00     0.157 A 
HETATM   19  N3  UNL     1      26.936   0.614  51.924  1.00  0.00    -0.403 N 
HETATM   20  H8  UNL     1      27.236   1.522  51.607  1.00  0.00     0.154 HD
ENDBRANCH   3  15
BRANCH   1  21
HETATM   21  N1  UNL     1      22.874   4.675  52.464  1.00  0.00    -0.384 N 
HETATM   22  C1  UNL     1      23.510   5.699  51.612  1.00  0.00     0.147 C 
HETATM   23  H4  UNL     1      21.962   4.457  52.943  1.00  0.00     0.160 HD
ENDBRANCH   1  21
TORSDOF 4
ENDMDL
MODEL 7
REMARK VINA RESULT:      -6.7      2.897      5.450
REMARK  4 active torsions:
REMARK  status: ('A' for Active; 'I' for Inactive)
REMARK    1  A    between atoms: N1_2  and  C2_3 
REMARK    2  A    between atoms: C3_5  and  C4_6 
REMARK    3  A    between atoms: C6_8  and  N4_11 
REMARK    4  A    between atoms: N5_13  and  C9_14 
ROOT
HETATM    1  C2  UNL     1      23.363   0.926  52.956  1.00  0.00     0.123 A 
HETATM    2  N2  UNL     1      22.999   2.004  52.576  1.00  0.00    -0.166 NA
HETATM    3  C3  UNL     1      24.222   2.697  51.899  1.00  0.00     0.306 C 
HETATM    4  N4  UNL     1      23.115   2.309  50.814  1.00  0.00     0.022 N 
HETATM    5  C8  UNL     1      23.846   1.214  51.567  1.00  0.00     0.386 A 
HETATM    6  N5  UNL     1      25.153   1.665  52.139  1.00  0.00    -0.290 N 
HETATM    7  H9  UNL     1      22.140   1.675  50.808  1.00  0.00     0.290 HD
ENDROOT
BRANCH   6   8
HETATM    8  C9  UNL     1      26.434   1.235  52.614  1.00  0.00     0.038 A 
HETATM    9  C10 UNL     1      27.152   2.341  53.088  1.00  0.00     0.029 A 
HETATM   10  C11 UNL     1      28.437   2.152  53.605  1.00  0.00     0.004 A 
HETATM   11  C12 UNL     1      28.926   0.863  53.617  1.00  0.00     0.019 A 
HETATM   12  C13 UNL     1      28.165  -0.189  53.132  1.00  0.00     0.013 A 
HETATM   13 BR1  UNL     1      28.890  -1.969  53.168  1.00  0.00    -0.051 Br
HETATM   14  C14 UNL     1      26.917  -0.026  52.627  1.00  0.00     0.048 A 
ENDBRANCH   6   8
BRANCH   3  15
HETATM   15  C4  UNL     1      23.753   3.916  51.225  1.00  0.00     0.137 A 
HETATM   16  C5  UNL     1      23.483   4.535  52.707  1.00  0.00     0.072 A 
HETATM   17  C6  UNL     1      23.950   4.876  51.616  1.00  0.00     0.189 A 
HETATM   18  C7  UNL     1      24.410   5.401  50.210  1.00  0.00     0.157 A 
HETATM   19  N3  UNL     1      24.209   3.978  49.748  1.00  0.00    -0.403 N 
HETATM   20  H8  UNL     1      24.120   3.072  49.318  1.00  0.00     0.154 HD
ENDBRANCH   3  15
BRANCH   1  21
HETATM   21  N1  UNL     1      23.505  -0.155  53.793  1.00  0.00    -0.384 N 
HETATM   22  C1  UNL     1      22.456  -1.113  53.387  1.00  0.00     0.147 C 
HETATM   23  H4  UNL     1      24.293  -0.044  54.480  1.00  0.00     0.160 HD
ENDBRANCH   1  21
TORSDOF 4
ENDMDL
MODEL 8
REMARK VINA RESULT:      -6.6      8.836     11.348
REMARK  4 active torsions:
REMARK  status: ('A' for Active; 'I' for Inactive)
REMARK    1  A    between atoms: N1_2  and  C2_3 
REMARK    2  A    between atoms: C3_5  and  C4_6 
REMARK    3  A    between atoms: C6_8  and  N4_11 
REMARK    4  A    between atoms: N5_13  and  C9_14 
ROOT
HETATM    1  C2  UNL     1      33.509   7.651  48.777  1.00  0.00     0.123 A 
HETATM    2  N2  UNL     1      32.350   7.956  48.811  1.00  0.00    -0.166 NA
HETATM    3  C3  UNL     1      31.549   6.822  48.098  1.00  0.00     0.306 C 
HETATM    4  N4  UNL     1      31.254   6.827  49.669  1.00  0.00     0.022 N 
HETATM    5  C8  UNL     1      32.645   6.491  49.166  1.00  0.00     0.386 A 
HETATM    6  N5  UNL     1      32.660   6.030  47.743  1.00  0.00    -0.290 N 
HETATM    7  H9  UNL     1      31.703   7.362  50.599  1.00  0.00     0.290 HD
ENDROOT
BRANCH   6   8
HETATM    8  C9  UNL     1      33.395   5.293  46.759  1.00  0.00     0.038 A 
HETATM    9  C10 UNL     1      34.220   4.358  47.396  1.00  0.00     0.029 A 
HETATM   10  C11 UNL     1      35.031   3.522  46.622  1.00  0.00     0.004 A 
HETATM   11  C12 UNL     1      34.966   3.673  45.254  1.00  0.00     0.019 A 
HETATM   12  C13 UNL     1      34.127   4.619  44.685  1.00  0.00     0.013 A 
HETATM   13 BR1  UNL     1      34.070   4.794  42.771  1.00  0.00    -0.051 Br
HETATM   14  C14 UNL     1      33.334   5.439  45.417  1.00  0.00     0.048 A 
ENDBRANCH   6   8
BRANCH   3  15
HETATM   15  C4  UNL     1      30.115   7.052  48.323  1.00  0.00     0.137 A 
HETATM   16  C5  UNL     1      30.212   8.233  47.205  1.00  0.00     0.072 A 
HETATM   17  C6  UNL     1      29.464   7.306  47.532  1.00  0.00     0.189 A 
HETATM   18  C7  UNL     1      28.410   6.242  48.002  1.00  0.00     0.157 A 
HETATM   19  N3  UNL     1      29.438   5.860  49.039  1.00  0.00    -0.403 N 
HETATM   20  H8  UNL     1      30.035   5.508  49.770  1.00  0.00     0.154 HD
ENDBRANCH   3  15
BRANCH   1  21
HETATM   21  N1  UNL     1      34.867   7.797  48.620  1.00  0.00    -0.384 N 
HETATM   22  C1  UNL     1      35.041   8.659  47.433  1.00  0.00     0.147 C 
HETATM   23  H4  UNL     1      35.424   7.291  49.355  1.00  0.00     0.160 HD
ENDBRANCH   1  21
TORSDOF 4
ENDMDL
MODEL 9
REMARK VINA RESULT:      -6.6      7.764      9.723
REMARK  4 active torsions:
REMARK  status: ('A' for Active; 'I' for Inactive)
REMARK    1  A    between atoms: N1_2  and  C2_3 
REMARK    2  A    between atoms: C3_5  and  C4_6 
REMARK    3  A    between atoms: C6_8  and  N4_11 
REMARK    4  A    between atoms: N5_13  and  C9_14 
ROOT
HETATM    1  C2  UNL     1      31.895   7.638  48.951  1.00  0.00     0.123 A 
HETATM    2  N2  UNL     1      32.690   6.971  48.349  1.00  0.00    -0.166 NA
HETATM    3  C3  UNL     1      31.903   6.182  47.257  1.00  0.00     0.306 C 
HETATM    4  N4  UNL     1      32.836   7.298  46.593  1.00  0.00     0.022 N 
HETATM    5  C8  UNL     1      31.672   7.716  47.472  1.00  0.00     0.386 A 
HETATM    6  N5  UNL     1      30.620   6.660  47.596  1.00  0.00    -0.290 N 
HETATM    7  H9  UNL     1      33.471   8.191  46.981  1.00  0.00     0.290 HD
ENDROOT
BRANCH   6   8
HETATM    8  C9  UNL     1      29.244   6.410  47.902  1.00  0.00     0.038 A 
HETATM    9  C10 UNL     1      28.472   7.515  47.520  1.00  0.00     0.029 A 
HETATM   10  C11 UNL     1      27.089   7.487  47.723  1.00  0.00     0.004 A 
HETATM   11  C12 UNL     1      26.561   6.352  48.299  1.00  0.00     0.019 A 
HETATM   12  C13 UNL     1      27.380   5.291  48.655  1.00  0.00     0.013 A 
HETATM   13 BR1  UNL     1      26.598   3.727  49.455  1.00  0.00    -0.051 Br
HETATM   14  C14 UNL     1      28.722   5.298  48.465  1.00  0.00     0.048 A 
ENDBRANCH   6   8
BRANCH   3  15
HETATM   15  C4  UNL     1      32.871   5.536  46.359  1.00  0.00     0.137 A 
HETATM   16  C5  UNL     1      33.111   4.441  47.541  1.00  0.00     0.072 A 
HETATM   17  C6  UNL     1      32.969   4.486  46.315  1.00  0.00     0.189 A 
HETATM   18  C7  UNL     1      32.948   4.508  44.745  1.00  0.00     0.157 A 
HETATM   19  N3  UNL     1      32.700   5.990  44.891  1.00  0.00    -0.403 N 
HETATM   20  H8  UNL     1      32.528   6.982  44.851  1.00  0.00     0.154 HD
ENDBRANCH   3  15
BRANCH   1  21
HETATM   21  N1  UNL     1      31.269   8.223  50.026  1.00  0.00    -0.384 N 
HETATM   22  C1  UNL     1      30.815   9.545  49.551  1.00  0.00     0.147 C 
HETATM   23  H4  UNL     1      31.261   7.611  50.881  1.00  0.00     0.160 HD
ENDBRANCH   1  21
TORSDOF 4
ENDMDL
