MODEL 1
REMARK VINA RESULT:      -8.6      0.000      0.000
REMARK  5 active torsions:
REMARK  status: ('A' for Active; 'I' for Inactive)
REMARK    1  A    between atoms: C3_5  and  N3_6 
REMARK    2  A    between atoms: N3_6  and  C4_7 
REMARK    3  A    between atoms: C7_10  and  C8_11 
REMARK    4  A    between atoms: C8_11  and  C9_12 
REMARK    5  A    between atoms: C17_21  and  N5_22 
ROOT
HETATM    1  C1  UNL     1      20.608  -1.283  54.186  1.00  0.00     0.136 C 
HETATM    2  N1  UNL     1      20.467  -0.127  53.618  1.00  0.00    -0.253 NA
HETATM    3  C2  UNL     1      21.561   0.805  53.578  1.00  0.00     0.235 C 
HETATM    4  N2  UNL     1      22.386   0.181  52.844  1.00  0.00    -0.222 NA
HETATM    5  C3  UNL     1      23.656   0.548  52.418  1.00  0.00     0.154 C 
HETATM    6  C16 UNL     1      24.819   0.134  52.898  1.00  0.00     0.090 C 
HETATM    7  C17 UNL     1      26.328   0.096  52.941  1.00  0.00     0.293 C 
HETATM    8  C22 UNL     1      26.001  -1.377  53.184  1.00  0.00     0.167 C 
HETATM    9  N6  UNL     1      24.917  -0.798  54.001  1.00  0.00    -0.359 N 
HETATM   10  C23 UNL     1      24.129  -0.813  55.198  1.00  0.00     0.273 C 
HETATM   11  N7  UNL     1      23.062  -1.751  55.244  1.00  0.00    -0.281 NA
HETATM   12  C24 UNL     1      21.888  -1.625  54.781  1.00  0.00     0.131 C 
ENDROOT
BRANCH   5  13
HETATM   13  N3  UNL     1      23.778   1.455  51.360  1.00  0.00    -0.339 N 
HETATM   14  H3  UNL     1      23.860   1.311  50.351  1.00  0.00     0.167 HD
BRANCH  13  15
HETATM   15  C4  UNL     1      23.819   2.872  51.442  1.00  0.00     0.033 A 
HETATM   16  C5  UNL     1      23.566   3.649  52.531  1.00  0.00     0.030 A 
HETATM   17  C6  UNL     1      23.660   5.032  52.414  1.00  0.00     0.010 A 
HETATM   18  C7  UNL     1      23.999   5.676  51.247  1.00  0.00    -0.052 A 
HETATM   19  C14 UNL     1      24.257   4.885  50.136  1.00  0.00     0.010 A 
HETATM   20  C15 UNL     1      24.162   3.516  50.259  1.00  0.00     0.030 A 
BRANCH  18  21
HETATM   21  C8  UNL     1      24.070   7.147  51.233  1.00  0.00     0.097 C 
BRANCH  21  22
HETATM   22  C9  UNL     1      22.968   7.710  50.394  1.00  0.00     0.038 A 
HETATM   23  C10 UNL     1      21.657   7.396  50.713  1.00  0.00     0.027 A 
HETATM   24  C11 UNL     1      20.584   7.877  49.985  1.00  0.00     0.003 A 
HETATM   25  C12 UNL     1      20.911   8.688  48.922  1.00  0.00     0.019 A 
HETATM   26  C13 UNL     1      22.226   9.023  48.576  1.00  0.00     0.117 A 
HETATM   27  N4  UNL     1      23.196   8.503  49.347  1.00  0.00    -0.265 NA
ENDBRANCH  21  22
ENDBRANCH  18  21
ENDBRANCH  13  15
ENDBRANCH   5  13
BRANCH   7  28
HETATM   28  N5  UNL     1      26.793   0.807  54.084  1.00  0.00     0.100 N 
HETATM   29  C18 UNL     1      28.044   0.391  54.627  1.00  0.00     0.273 C 
HETATM   30  C19 UNL     1      29.029   0.973  53.633  1.00  0.00     0.032 C 
HETATM   31  C20 UNL     1      28.490   2.384  53.509  1.00  0.00     0.032 C 
HETATM   32  C21 UNL     1      27.008   2.198  53.743  1.00  0.00     0.273 C 
ENDBRANCH   7  28
TORSDOF 5
ENDMDL
MODEL 2
REMARK VINA RESULT:      -8.5      2.341      8.647
REMARK  5 active torsions:
REMARK  status: ('A' for Active; 'I' for Inactive)
REMARK    1  A    between atoms: C3_5  and  N3_6 
REMARK    2  A    between atoms: N3_6  and  C4_7 
REMARK    3  A    between atoms: C7_10  and  C8_11 
REMARK    4  A    between atoms: C8_11  and  C9_12 
REMARK    5  A    between atoms: C17_21  and  N5_22 
ROOT
HETATM    1  C1  UNL     1      24.565   8.402  49.434  1.00  0.00     0.136 C 
HETATM    2  N1  UNL     1      25.274   7.419  49.894  1.00  0.00    -0.253 NA
HETATM    3  C2  UNL     1      24.648   6.341  50.610  1.00  0.00     0.235 C 
HETATM    4  N2  UNL     1      23.931   5.826  49.698  1.00  0.00    -0.222 NA
HETATM    5  C3  UNL     1      23.073   4.736  49.748  1.00  0.00     0.154 C 
HETATM    6  C16 UNL     1      21.751   4.752  49.828  1.00  0.00     0.090 C 
HETATM    7  C17 UNL     1      20.392   4.097  49.909  1.00  0.00     0.293 C 
HETATM    8  C22 UNL     1      20.088   5.265  48.973  1.00  0.00     0.167 C 
HETATM    9  N6  UNL     1      20.991   5.982  49.892  1.00  0.00    -0.359 N 
HETATM   10  C23 UNL     1      21.307   7.158  50.649  1.00  0.00     0.273 C 
HETATM   11  N7  UNL     1      21.904   8.232  49.933  1.00  0.00    -0.281 NA
HETATM   12  C24 UNL     1      23.130   8.399  49.652  1.00  0.00     0.131 C 
ENDROOT
BRANCH   5  13
HETATM   13  N3  UNL     1      23.616   3.447  49.708  1.00  0.00    -0.339 N 
HETATM   14  H3  UNL     1      23.792   2.810  48.926  1.00  0.00     0.167 HD
BRANCH  13  15
HETATM   15  C4  UNL     1      24.077   2.672  50.804  1.00  0.00     0.033 A 
HETATM   16  C5  UNL     1      25.182   2.891  51.569  1.00  0.00     0.030 A 
HETATM   17  C6  UNL     1      25.471   2.015  52.610  1.00  0.00     0.010 A 
HETATM   18  C7  UNL     1      24.697   0.921  52.921  1.00  0.00    -0.052 A 
HETATM   19  C14 UNL     1      23.570   0.696  52.142  1.00  0.00     0.010 A 
HETATM   20  C15 UNL     1      23.290   1.569  51.113  1.00  0.00     0.030 A 
BRANCH  18  21
HETATM   21  C8  UNL     1      25.094   0.057  54.046  1.00  0.00     0.097 C 
BRANCH  21  22
HETATM   22  C9  UNL     1      26.576  -0.141  54.048  1.00  0.00     0.038 A 
HETATM   23  C10 UNL     1      27.135  -1.017  53.132  1.00  0.00     0.027 A 
HETATM   24  C11 UNL     1      28.496  -1.253  53.071  1.00  0.00     0.003 A 
HETATM   25  C12 UNL     1      29.255  -0.556  53.984  1.00  0.00     0.019 A 
HETATM   26  C13 UNL     1      28.718   0.337  54.920  1.00  0.00     0.117 A 
HETATM   27  N4  UNL     1      27.384   0.494  54.896  1.00  0.00    -0.265 NA
ENDBRANCH  21  22
ENDBRANCH  18  21
ENDBRANCH  13  15
ENDBRANCH   5  13
BRANCH   7  28
HETATM   28  N5  UNL     1      19.873   4.231  51.228  1.00  0.00     0.100 N 
HETATM   29  C18 UNL     1      18.543   3.765  51.439  1.00  0.00     0.273 C 
HETATM   30  C19 UNL     1      18.734   2.263  51.466  1.00  0.00     0.032 C 
HETATM   31  C20 UNL     1      19.918   2.155  52.405  1.00  0.00     0.032 C 
HETATM   32  C21 UNL     1      20.666   3.443  52.151  1.00  0.00     0.273 C 
ENDBRANCH   7  28
TORSDOF 5
ENDMDL
MODEL 3
REMARK VINA RESULT:      -8.2      2.780      8.483
REMARK  5 active torsions:
REMARK  status: ('A' for Active; 'I' for Inactive)
REMARK    1  A    between atoms: C3_5  and  N3_6 
REMARK    2  A    between atoms: N3_6  and  C4_7 
REMARK    3  A    between atoms: C7_10  and  C8_11 
REMARK    4  A    between atoms: C8_11  and  C9_12 
REMARK    5  A    between atoms: C17_21  and  N5_22 
ROOT
HETATM    1  C1  UNL     1      22.234   6.750  49.633  1.00  0.00     0.136 C 
HETATM    2  N1  UNL     1      23.152   6.042  50.212  1.00  0.00    -0.253 NA
HETATM    3  C2  UNL     1      22.800   4.877  50.978  1.00  0.00     0.235 C 
HETATM    4  N2  UNL     1      22.330   4.122  50.073  1.00  0.00    -0.222 NA
HETATM    5  C3  UNL     1      21.811   2.837  50.163  1.00  0.00     0.154 C 
HETATM    6  C16 UNL     1      20.536   2.480  50.167  1.00  0.00     0.090 C 
HETATM    7  C17 UNL     1      19.413   1.471  50.224  1.00  0.00     0.293 C 
HETATM    8  C22 UNL     1      18.868   2.443  49.178  1.00  0.00     0.167 C 
HETATM    9  N6  UNL     1      19.459   3.444  50.085  1.00  0.00    -0.359 N 
HETATM   10  C23 UNL     1      19.371   4.707  50.758  1.00  0.00     0.273 C 
HETATM   11  N7  UNL     1      19.698   5.859  49.992  1.00  0.00    -0.281 NA
HETATM   12  C24 UNL     1      20.845   6.350  49.768  1.00  0.00     0.131 C 
ENDROOT
BRANCH   5  13
HETATM   13  N3  UNL     1      22.695   1.758  50.261  1.00  0.00    -0.339 N 
HETATM   14  H3  UNL     1      22.954   1.031  49.588  1.00  0.00     0.167 HD
BRANCH  13  15
HETATM   15  C4  UNL     1      23.488   1.393  51.380  1.00  0.00     0.033 A 
HETATM   16  C5  UNL     1      23.116   0.638  52.451  1.00  0.00     0.030 A 
HETATM   17  C6  UNL     1      24.043   0.384  53.457  1.00  0.00     0.010 A 
HETATM   18  C7  UNL     1      25.334   0.857  53.439  1.00  0.00    -0.052 A 
HETATM   19  C14 UNL     1      25.715   1.627  52.349  1.00  0.00     0.010 A 
HETATM   20  C15 UNL     1      24.792   1.874  51.356  1.00  0.00     0.030 A 
BRANCH  18  21
HETATM   21  C8  UNL     1      26.235   0.528  54.558  1.00  0.00     0.097 C 
BRANCH  21  22
HETATM   22  C9  UNL     1      27.387  -0.290  54.070  1.00  0.00     0.038 A 
HETATM   23  C10 UNL     1      28.673   0.190  54.256  1.00  0.00     0.027 A 
HETATM   24  C11 UNL     1      29.790  -0.508  53.833  1.00  0.00     0.003 A 
HETATM   25  C12 UNL     1      29.532  -1.710  53.215  1.00  0.00     0.019 A 
HETATM   26  C13 UNL     1      28.244  -2.221  53.014  1.00  0.00     0.117 A 
HETATM   27  N4  UNL     1      27.227  -1.465  53.462  1.00  0.00    -0.265 NA
ENDBRANCH  21  22
ENDBRANCH  18  21
ENDBRANCH  13  15
ENDBRANCH   5  13
BRANCH   7  28
HETATM   28  N5  UNL     1      18.776   1.534  51.496  1.00  0.00     0.100 N 
HETATM   29  C18 UNL     1      17.472   0.967  51.582  1.00  0.00     0.273 C 
HETATM   30  C19 UNL     1      17.772  -0.518  51.599  1.00  0.00     0.032 C 
HETATM   31  C20 UNL     1      18.878  -0.560  52.635  1.00  0.00     0.032 C 
HETATM   32  C21 UNL     1      19.545   0.785  52.468  1.00  0.00     0.273 C 
ENDBRANCH   7  28
TORSDOF 5
ENDMDL
MODEL 4
REMARK VINA RESULT:      -8.1      2.310      8.410
REMARK  5 active torsions:
REMARK  status: ('A' for Active; 'I' for Inactive)
REMARK    1  A    between atoms: C3_5  and  N3_6 
REMARK    2  A    between atoms: N3_6  and  C4_7 
REMARK    3  A    between atoms: C7_10  and  C8_11 
REMARK    4  A    between atoms: C8_11  and  C9_12 
REMARK    5  A    between atoms: C17_21  and  N5_22 
ROOT
HETATM    1  C1  UNL     1      23.126   7.987  48.663  1.00  0.00     0.136 C 
HETATM    2  N1  UNL     1      23.551   8.012  49.887  1.00  0.00    -0.253 NA
HETATM    3  C2  UNL     1      23.053   7.069  50.852  1.00  0.00     0.235 C 
HETATM    4  N2  UNL     1      23.494   5.978  50.376  1.00  0.00    -0.222 NA
HETATM    5  C3  UNL     1      23.357   4.679  50.848  1.00  0.00     0.154 C 
HETATM    6  C16 UNL     1      22.531   3.744  50.406  1.00  0.00     0.090 C 
HETATM    7  C17 UNL     1      21.925   2.360  50.414  1.00  0.00     0.293 C 
HETATM    8  C22 UNL     1      22.016   2.621  48.911  1.00  0.00     0.167 C 
HETATM    9  N6  UNL     1      21.603   3.976  49.319  1.00  0.00    -0.359 N 
HETATM   10  C23 UNL     1      20.806   5.146  49.094  1.00  0.00     0.273 C 
HETATM   11  N7  UNL     1      21.289   6.066  48.123  1.00  0.00    -0.281 NA
HETATM   12  C24 UNL     1      22.140   6.993  48.279  1.00  0.00     0.131 C 
ENDROOT
BRANCH   5  13
HETATM   13  N3  UNL     1      24.163   4.258  51.911  1.00  0.00    -0.339 N 
HETATM   14  H3  UNL     1      24.612   4.779  52.668  1.00  0.00     0.167 HD
BRANCH  13  15
HETATM   15  C4  UNL     1      24.574   2.932  52.207  1.00  0.00     0.033 A 
HETATM   16  C5  UNL     1      24.112   2.121  53.199  1.00  0.00     0.030 A 
HETATM   17  C6  UNL     1      24.640   0.841  53.330  1.00  0.00     0.010 A 
HETATM   18  C7  UNL     1      25.619   0.334  52.508  1.00  0.00    -0.052 A 
HETATM   19  C14 UNL     1      26.092   1.159  51.497  1.00  0.00     0.010 A 
HETATM   20  C15 UNL     1      25.563   2.425  51.372  1.00  0.00     0.030 A 
BRANCH  18  21
HETATM   21  C8  UNL     1      26.109  -1.037  52.736  1.00  0.00     0.097 C 
BRANCH  21  22
HETATM   22  C9  UNL     1      27.560  -1.013  53.098  1.00  0.00     0.038 A 
HETATM   23  C10 UNL     1      28.142   0.194  53.447  1.00  0.00     0.027 A 
HETATM   24  C11 UNL     1      29.477   0.298  53.793  1.00  0.00     0.003 A 
HETATM   25  C12 UNL     1      30.184  -0.883  53.765  1.00  0.00     0.019 A 
HETATM   26  C13 UNL     1      29.623  -2.117  53.417  1.00  0.00     0.117 A 
HETATM   27  N4  UNL     1      28.318  -2.109  53.097  1.00  0.00    -0.265 NA
ENDBRANCH  21  22
ENDBRANCH  18  21
ENDBRANCH  13  15
ENDBRANCH   5  13
BRANCH   7  28
HETATM   28  N5  UNL     1      20.610   2.416  50.956  1.00  0.00     0.100 N 
HETATM   29  C18 UNL     1      19.810   1.245  50.809  1.00  0.00     0.273 C 
HETATM   30  C19 UNL     1      20.403   0.323  51.854  1.00  0.00     0.032 C 
HETATM   31  C20 UNL     1      20.469   1.262  53.041  1.00  0.00     0.032 C 
HETATM   32  C21 UNL     1      20.678   2.610  52.391  1.00  0.00     0.273 C 
ENDBRANCH   7  28
TORSDOF 5
ENDMDL
MODEL 5
REMARK VINA RESULT:      -8.1      2.563      4.875
REMARK  5 active torsions:
REMARK  status: ('A' for Active; 'I' for Inactive)
REMARK    1  A    between atoms: C3_5  and  N3_6 
REMARK    2  A    between atoms: N3_6  and  C4_7 
REMARK    3  A    between atoms: C7_10  and  C8_11 
REMARK    4  A    between atoms: C8_11  and  C9_12 
REMARK    5  A    between atoms: C17_21  and  N5_22 
ROOT
HETATM    1  C1  UNL     1      28.286   0.657  54.576  1.00  0.00     0.136 C 
HETATM    2  N1  UNL     1      28.303   1.819  54.002  1.00  0.00    -0.253 NA
HETATM    3  C2  UNL     1      27.307   2.165  53.025  1.00  0.00     0.235 C 
HETATM    4  N2  UNL     1      26.257   2.169  53.738  1.00  0.00    -0.222 NA
HETATM    5  C3  UNL     1      24.940   2.433  53.384  1.00  0.00     0.154 C 
HETATM    6  C16 UNL     1      23.970   1.556  53.175  1.00  0.00     0.090 C 
HETATM    7  C17 UNL     1      22.553   1.162  52.827  1.00  0.00     0.293 C 
HETATM    8  C22 UNL     1      22.859   0.165  53.944  1.00  0.00     0.167 C 
HETATM    9  N6  UNL     1      24.176   0.128  53.283  1.00  0.00    -0.359 N 
HETATM   10  C23 UNL     1      25.304  -0.624  52.814  1.00  0.00     0.273 C 
HETATM   11  N7  UNL     1      26.276  -0.985  53.787  1.00  0.00    -0.281 NA
HETATM   12  C24 UNL     1      27.246  -0.291  54.218  1.00  0.00     0.131 C 
ENDROOT
BRANCH   5  13
HETATM   13  N3  UNL     1      24.538   3.763  53.219  1.00  0.00    -0.339 N 
HETATM   14  H3  UNL     1      24.485   4.541  53.881  1.00  0.00     0.167 HD
BRANCH  13  15
HETATM   15  C4  UNL     1      24.083   4.383  52.026  1.00  0.00     0.033 A 
HETATM   16  C5  UNL     1      24.730   4.461  50.831  1.00  0.00     0.030 A 
HETATM   17  C6  UNL     1      24.116   5.114  49.768  1.00  0.00     0.010 A 
HETATM   18  C7  UNL     1      22.874   5.698  49.849  1.00  0.00    -0.052 A 
HETATM   19  C14 UNL     1      22.212   5.620  51.066  1.00  0.00     0.010 A 
HETATM   20  C15 UNL     1      22.826   4.971  52.115  1.00  0.00     0.030 A 
BRANCH  18  21
HETATM   21  C8  UNL     1      22.315   6.366  48.660  1.00  0.00     0.097 C 
BRANCH  21  22
HETATM   22  C9  UNL     1      21.546   5.387  47.831  1.00  0.00     0.038 A 
HETATM   23  C10 UNL     1      22.158   4.823  46.724  1.00  0.00     0.027 A 
HETATM   24  C11 UNL     1      21.514   3.910  45.909  1.00  0.00     0.003 A 
HETATM   25  C12 UNL     1      20.223   3.604  46.275  1.00  0.00     0.019 A 
HETATM   26  C13 UNL     1      19.579   4.158  47.388  1.00  0.00     0.117 A 
HETATM   27  N4  UNL     1      20.293   5.035  48.115  1.00  0.00    -0.265 NA
ENDBRANCH  21  22
ENDBRANCH  18  21
ENDBRANCH  13  15
ENDBRANCH   5  13
BRANCH   7  28
HETATM   28  N5  UNL     1      22.518   0.608  51.516  1.00  0.00     0.100 N 
HETATM   29  C18 UNL     1      21.275   0.052  51.094  1.00  0.00     0.273 C 
HETATM   30  C19 UNL     1      20.460   1.293  50.793  1.00  0.00     0.032 C 
HETATM   31  C20 UNL     1      21.456   2.081  49.967  1.00  0.00     0.032 C 
HETATM   32  C21 UNL     1      22.785   1.643  50.538  1.00  0.00     0.273 C 
ENDBRANCH   7  28
TORSDOF 5
ENDMDL
MODEL 6
REMARK VINA RESULT:      -8.0      2.945      7.671
REMARK  5 active torsions:
REMARK  status: ('A' for Active; 'I' for Inactive)
REMARK    1  A    between atoms: C3_5  and  N3_6 
REMARK    2  A    between atoms: N3_6  and  C4_7 
REMARK    3  A    between atoms: C7_10  and  C8_11 
REMARK    4  A    between atoms: C8_11  and  C9_12 
REMARK    5  A    between atoms: C17_21  and  N5_22 
ROOT
HETATM    1  C1  UNL     1      20.807  -0.900  54.169  1.00  0.00     0.136 C 
HETATM    2  N1  UNL     1      22.018  -0.712  53.748  1.00  0.00    -0.253 NA
HETATM    3  C2  UNL     1      22.259  -0.149  52.447  1.00  0.00     0.235 C 
HETATM    4  N2  UNL     1      21.782   1.018  52.594  1.00  0.00    -0.222 NA
HETATM    5  C3  UNL     1      21.706   2.071  51.692  1.00  0.00     0.154 C 
HETATM    6  C16 UNL     1      20.649   2.468  51.002  1.00  0.00     0.090 C 
HETATM    7  C17 UNL     1      19.934   3.362  50.016  1.00  0.00     0.293 C 
HETATM    8  C22 UNL     1      18.849   3.187  51.077  1.00  0.00     0.167 C 
HETATM    9  N6  UNL     1      19.365   1.806  51.097  1.00  0.00    -0.359 N 
HETATM   10  C23 UNL     1      19.119   0.395  51.150  1.00  0.00     0.273 C 
HETATM   11  N7  UNL     1      18.858  -0.156  52.435  1.00  0.00    -0.281 NA
HETATM   12  C24 UNL     1      19.696  -0.532  53.310  1.00  0.00     0.131 C 
ENDROOT
BRANCH   5  13
HETATM   13  N3  UNL     1      22.852   2.837  51.451  1.00  0.00    -0.339 N 
HETATM   14  H3  UNL     1      23.007   3.657  50.859  1.00  0.00     0.167 HD
BRANCH  13  15
HETATM   15  C4  UNL     1      24.147   2.645  52.000  1.00  0.00     0.033 A 
HETATM   16  C5  UNL     1      24.509   2.700  53.312  1.00  0.00     0.030 A 
HETATM   17  C6  UNL     1      25.838   2.481  53.659  1.00  0.00     0.010 A 
HETATM   18  C7  UNL     1      26.828   2.208  52.744  1.00  0.00    -0.052 A 
HETATM   19  C14 UNL     1      26.461   2.152  51.406  1.00  0.00     0.010 A 
HETATM   20  C15 UNL     1      25.143   2.369  51.070  1.00  0.00     0.030 A 
BRANCH  18  21
HETATM   21  C8  UNL     1      28.206   1.992  53.219  1.00  0.00     0.097 C 
BRANCH  21  22
HETATM   22  C9  UNL     1      28.517   0.530  53.254  1.00  0.00     0.038 A 
HETATM   23  C10 UNL     1      29.793   0.126  53.612  1.00  0.00     0.027 A 
HETATM   24  C11 UNL     1      30.158  -1.207  53.668  1.00  0.00     0.003 A 
HETATM   25  C12 UNL     1      29.164  -2.102  53.342  1.00  0.00     0.019 A 
HETATM   26  C13 UNL     1      27.866  -1.723  52.978  1.00  0.00     0.117 A 
HETATM   27  N4  UNL     1      27.614  -0.403  52.954  1.00  0.00    -0.265 NA
ENDBRANCH  21  22
ENDBRANCH  18  21
ENDBRANCH  13  15
ENDBRANCH   5  13
BRANCH   7  28
HETATM   28  N5  UNL     1      19.709   2.652  48.802  1.00  0.00     0.100 N 
HETATM   29  C18 UNL     1      18.824   3.260  47.864  1.00  0.00     0.273 C 
HETATM   30  C19 UNL     1      19.688   4.359  47.280  1.00  0.00     0.032 C 
HETATM   31  C20 UNL     1      20.959   3.584  46.994  1.00  0.00     0.032 C 
HETATM   32  C21 UNL     1      20.954   2.523  48.070  1.00  0.00     0.273 C 
ENDBRANCH   7  28
TORSDOF 5
ENDMDL
MODEL 7
REMARK VINA RESULT:      -8.0      6.063      9.605
REMARK  5 active torsions:
REMARK  status: ('A' for Active; 'I' for Inactive)
REMARK    1  A    between atoms: C3_5  and  N3_6 
REMARK    2  A    between atoms: N3_6  and  C4_7 
REMARK    3  A    between atoms: C7_10  and  C8_11 
REMARK    4  A    between atoms: C8_11  and  C9_12 
REMARK    5  A    between atoms: C17_21  and  N5_22 
ROOT
HETATM    1  C1  UNL     1      29.829  10.498  47.639  1.00  0.00     0.136 C 
HETATM    2  N1  UNL     1      28.915   9.778  47.068  1.00  0.00    -0.253 NA
HETATM    3  C2  UNL     1      29.216   8.451  46.602  1.00  0.00     0.235 C 
HETATM    4  N2  UNL     1      29.461   7.858  47.697  1.00  0.00    -0.222 NA
HETATM    5  C3  UNL     1      29.820   6.538  47.935  1.00  0.00     0.154 C 
HETATM    6  C16 UNL     1      31.028   6.066  48.200  1.00  0.00     0.090 C 
HETATM    7  C17 UNL     1      32.011   4.962  48.513  1.00  0.00     0.293 C 
HETATM    8  C22 UNL     1      32.530   6.071  49.428  1.00  0.00     0.167 C 
HETATM    9  N6  UNL     1      32.198   6.916  48.266  1.00  0.00    -0.359 N 
HETATM   10  C23 UNL     1      32.535   7.998  47.387  1.00  0.00     0.273 C 
HETATM   11  N7  UNL     1      32.257   9.310  47.860  1.00  0.00    -0.281 NA
HETATM   12  C24 UNL     1      31.161   9.946  47.803  1.00  0.00     0.131 C 
ENDROOT
BRANCH   5  13
HETATM   13  N3  UNL     1      28.828   5.553  47.907  1.00  0.00    -0.339 N 
HETATM   14  H3  UNL     1      28.771   4.662  47.406  1.00  0.00     0.167 HD
BRANCH  13  15
HETATM   15  C4  UNL     1      27.592   5.555  48.605  1.00  0.00     0.033 A 
HETATM   16  C5  UNL     1      26.803   6.627  48.894  1.00  0.00     0.030 A 
HETATM   17  C6  UNL     1      25.616   6.427  49.592  1.00  0.00     0.010 A 
HETATM   18  C7  UNL     1      25.182   5.194  50.016  1.00  0.00    -0.052 A 
HETATM   19  C14 UNL     1      25.984   4.100  49.723  1.00  0.00     0.010 A 
HETATM   20  C15 UNL     1      27.158   4.305  49.031  1.00  0.00     0.030 A 
BRANCH  18  21
HETATM   21  C8  UNL     1      23.907   5.094  50.749  1.00  0.00     0.097 C 
BRANCH  21  22
HETATM   22  C9  UNL     1      23.691   3.692  51.222  1.00  0.00     0.038 A 
HETATM   23  C10 UNL     1      24.154   3.332  52.477  1.00  0.00     0.027 A 
HETATM   24  C11 UNL     1      23.993   2.055  52.985  1.00  0.00     0.003 A 
HETATM   25  C12 UNL     1      23.341   1.171  52.156  1.00  0.00     0.019 A 
HETATM   26  C13 UNL     1      22.861   1.508  50.884  1.00  0.00     0.117 A 
HETATM   27  N4  UNL     1      23.069   2.774  50.484  1.00  0.00    -0.265 NA
ENDBRANCH  21  22
ENDBRANCH  18  21
ENDBRANCH  13  15
ENDBRANCH   5  13
BRANCH   7  28
HETATM   28  N5  UNL     1      32.817   4.699  47.369  1.00  0.00     0.100 N 
HETATM   29  C18 UNL     1      34.056   4.035  47.603  1.00  0.00     0.273 C 
HETATM   30  C19 UNL     1      33.610   2.608  47.848  1.00  0.00     0.032 C 
HETATM   31  C20 UNL     1      32.656   2.418  46.686  1.00  0.00     0.032 C 
HETATM   32  C21 UNL     1      32.113   3.811  46.466  1.00  0.00     0.273 C 
ENDBRANCH   7  28
TORSDOF 5
ENDMDL
MODEL 8
REMARK VINA RESULT:      -8.0      3.849      6.780
REMARK  5 active torsions:
REMARK  status: ('A' for Active; 'I' for Inactive)
REMARK    1  A    between atoms: C3_5  and  N3_6 
REMARK    2  A    between atoms: N3_6  and  C4_7 
REMARK    3  A    between atoms: C7_10  and  C8_11 
REMARK    4  A    between atoms: C8_11  and  C9_12 
REMARK    5  A    between atoms: C17_21  and  N5_22 
ROOT
HETATM    1  C1  UNL     1      22.679   0.079  53.008  1.00  0.00     0.136 C 
HETATM    2  N1  UNL     1      23.875   0.541  52.819  1.00  0.00    -0.253 NA
HETATM    3  C2  UNL     1      24.148   1.435  51.726  1.00  0.00     0.235 C 
HETATM    4  N2  UNL     1      23.457   2.446  52.059  1.00  0.00    -0.222 NA
HETATM    5  C3  UNL     1      23.291   3.664  51.414  1.00  0.00     0.154 C 
HETATM    6  C16 UNL     1      22.259   4.056  50.684  1.00  0.00     0.090 C 
HETATM    7  C17 UNL     1      21.504   5.047  49.829  1.00  0.00     0.293 C 
HETATM    8  C22 UNL     1      20.362   4.460  50.656  1.00  0.00     0.167 C 
HETATM    9  N6  UNL     1      21.111   3.208  50.441  1.00  0.00    -0.359 N 
HETATM   10  C23 UNL     1      21.117   1.806  50.142  1.00  0.00     0.273 C 
HETATM   11  N7  UNL     1      20.824   0.925  51.219  1.00  0.00    -0.281 NA
HETATM   12  C24 UNL     1      21.618   0.477  52.101  1.00  0.00     0.131 C 
ENDROOT
BRANCH   5  13
HETATM   13  N3  UNL     1      24.301   4.627  51.518  1.00  0.00    -0.339 N 
HETATM   14  H3  UNL     1      24.541   5.278  52.270  1.00  0.00     0.167 HD
BRANCH  13  15
HETATM   15  C4  UNL     1      25.289   4.947  50.550  1.00  0.00     0.033 A 
HETATM   16  C5  UNL     1      26.129   4.090  49.907  1.00  0.00     0.030 A 
HETATM   17  C6  UNL     1      27.036   4.597  48.981  1.00  0.00     0.010 A 
HETATM   18  C7  UNL     1      27.139   5.932  48.669  1.00  0.00    -0.052 A 
HETATM   19  C14 UNL     1      26.283   6.807  49.324  1.00  0.00     0.010 A 
HETATM   20  C15 UNL     1      25.387   6.298  50.239  1.00  0.00     0.030 A 
BRANCH  18  21
HETATM   21  C8  UNL     1      28.135   6.362  47.673  1.00  0.00     0.097 C 
BRANCH  21  22
HETATM   22  C9  UNL     1      29.432   6.686  48.344  1.00  0.00     0.038 A 
HETATM   23  C10 UNL     1      29.734   8.012  48.608  1.00  0.00     0.027 A 
HETATM   24  C11 UNL     1      30.912   8.392  49.225  1.00  0.00     0.003 A 
HETATM   25  C12 UNL     1      31.760   7.360  49.558  1.00  0.00     0.019 A 
HETATM   26  C13 UNL     1      31.480   6.012  49.306  1.00  0.00     0.117 A 
HETATM   27  N4  UNL     1      30.309   5.749  48.701  1.00  0.00    -0.265 NA
ENDBRANCH  21  22
ENDBRANCH  18  21
ENDBRANCH  13  15
ENDBRANCH   5  13
BRANCH   7  28
HETATM   28  N5  UNL     1      21.540   4.631  48.468  1.00  0.00     0.100 N 
HETATM   29  C18 UNL     1      20.660   5.306  47.572  1.00  0.00     0.273 C 
HETATM   30  C19 UNL     1      21.365   6.633  47.378  1.00  0.00     0.032 C 
HETATM   31  C20 UNL     1      22.778   6.156  47.113  1.00  0.00     0.032 C 
HETATM   32  C21 UNL     1      22.855   4.876  47.912  1.00  0.00     0.273 C 
ENDBRANCH   7  28
TORSDOF 5
ENDMDL
MODEL 9
REMARK VINA RESULT:      -8.0      4.848      9.829
REMARK  5 active torsions:
REMARK  status: ('A' for Active; 'I' for Inactive)
REMARK    1  A    between atoms: C3_5  and  N3_6 
REMARK    2  A    between atoms: N3_6  and  C4_7 
REMARK    3  A    between atoms: C7_10  and  C8_11 
REMARK    4  A    between atoms: C8_11  and  C9_12 
REMARK    5  A    between atoms: C17_21  and  N5_22 
ROOT
HETATM    1  C1  UNL     1      26.470  13.019  48.166  1.00  0.00     0.136 C 
HETATM    2  N1  UNL     1      25.616  12.087  48.453  1.00  0.00    -0.253 NA
HETATM    3  C2  UNL     1      25.967  10.701  48.292  1.00  0.00     0.235 C 
HETATM    4  N2  UNL     1      26.885  10.580  49.160  1.00  0.00    -0.222 NA
HETATM    5  C3  UNL     1      27.644   9.470  49.505  1.00  0.00     0.154 C 
HETATM    6  C16 UNL     1      28.890   9.201  49.147  1.00  0.00     0.090 C 
HETATM    7  C17 UNL     1      30.141   8.354  49.132  1.00  0.00     0.293 C 
HETATM    8  C22 UNL     1      30.748   9.753  49.228  1.00  0.00     0.167 C 
HETATM    9  N6  UNL     1      29.658  10.077  48.288  1.00  0.00    -0.359 N 
HETATM   10  C23 UNL     1      29.199  10.764  47.116  1.00  0.00     0.273 C 
HETATM   11  N7  UNL     1      28.875  12.139  47.273  1.00  0.00    -0.281 NA
HETATM   12  C24 UNL     1      27.785  12.645  47.680  1.00  0.00     0.131 C 
ENDROOT
BRANCH   5  13
HETATM   13  N3  UNL     1      27.075   8.493  50.329  1.00  0.00    -0.339 N 
HETATM   14  H3  UNL     1      27.208   8.283  51.322  1.00  0.00     0.167 HD
BRANCH  13  15
HETATM   15  C4  UNL     1      26.124   7.505  49.962  1.00  0.00     0.033 A 
HETATM   16  C5  UNL     1      26.177   6.655  48.899  1.00  0.00     0.030 A 
HETATM   17  C6  UNL     1      25.142   5.747  48.705  1.00  0.00     0.010 A 
HETATM   18  C7  UNL     1      24.048   5.652  49.532  1.00  0.00    -0.052 A 
HETATM   19  C14 UNL     1      23.991   6.517  50.616  1.00  0.00     0.010 A 
HETATM   20  C15 UNL     1      25.021   7.414  50.803  1.00  0.00     0.030 A 
BRANCH  18  21
HETATM   21  C8  UNL     1      23.006   4.653  49.234  1.00  0.00     0.097 C 
BRANCH  21  22
HETATM   22  C9  UNL     1      22.941   3.633  50.325  1.00  0.00     0.038 A 
HETATM   23  C10 UNL     1      23.986   2.735  50.464  1.00  0.00     0.027 A 
HETATM   24  C11 UNL     1      23.999   1.763  51.448  1.00  0.00     0.003 A 
HETATM   25  C12 UNL     1      22.900   1.752  52.277  1.00  0.00     0.019 A 
HETATM   26  C13 UNL     1      21.830   2.647  52.161  1.00  0.00     0.117 A 
HETATM   27  N4  UNL     1      21.915   3.552  51.171  1.00  0.00    -0.265 NA
ENDBRANCH  21  22
ENDBRANCH  18  21
ENDBRANCH  13  15
ENDBRANCH   5  13
BRANCH   7  28
HETATM   28  N5  UNL     1      30.277   7.724  47.862  1.00  0.00     0.100 N 
HETATM   29  C18 UNL     1      31.543   7.134  47.578  1.00  0.00     0.273 C 
HETATM   30  C19 UNL     1      31.498   5.869  48.409  1.00  0.00     0.032 C 
HETATM   31  C20 UNL     1      30.123   5.349  48.039  1.00  0.00     0.032 C 
HETATM   32  C21 UNL     1      29.349   6.616  47.762  1.00  0.00     0.273 C 
ENDBRANCH   7  28
TORSDOF 5
ENDMDL
