MODEL 1
REMARK VINA RESULT:      -8.0      0.000      0.000
REMARK  3 active torsions:
REMARK  status: ('A' for Active; 'I' for Inactive)
REMARK    1  A    between atoms: C2_2  and  C3_3 
REMARK       I    between atoms: C3_3  and  N1_5 
REMARK    2  A    between atoms: N1_5  and  C4_6 
REMARK    3  A    between atoms: C5_7  and  C6_8 
ROOT
HETATM    1  C6  UNL     1      25.490  -0.125  53.342  1.00  0.00     0.033 C 
HETATM    2  C7  UNL     1      24.247  -0.303  53.750  1.00  0.00     0.058 C 
HETATM    3  C8  UNL     1      23.114   0.108  52.932  1.00  0.00     0.043 C 
HETATM    4  C9  UNL     1      21.821  -0.256  52.991  1.00  0.00    -0.006 C 
HETATM    5  C10 UNL     1      21.456   0.609  51.856  1.00  0.00     0.070 C 
HETATM    6  C11 UNL     1      20.012   0.886  51.750  1.00  0.00    -0.022 C 
HETATM    7  C12 UNL     1      18.766   0.520  51.997  1.00  0.00    -0.002 C 
HETATM    8  C13 UNL     1      18.282  -0.678  52.685  1.00  0.00     0.017 C 
HETATM    9  C14 UNL     1      18.748  -1.624  53.484  1.00  0.00     0.090 C 
HETATM   10  N2  UNL     1      20.041  -1.852  54.033  1.00  0.00    -0.350 N 
HETATM   11  C15 UNL     1      21.308  -1.206  53.971  1.00  0.00     0.135 C 
HETATM   12  N3  UNL     1      21.828  -1.719  55.025  1.00  0.00    -0.224 NA
HETATM   13  C16 UNL     1      23.120  -1.522  55.598  1.00  0.00     0.235 C 
HETATM   14  N4  UNL     1      24.122  -0.924  55.044  1.00  0.00    -0.242 NA
HETATM   15  H15 UNL     1      20.078  -2.705  54.635  1.00  0.00     0.166 HD
ENDROOT
BRANCH   1  16
HETATM   16  C5  UNL     1      25.903   0.472  52.089  1.00  0.00     0.019 C 
HETATM   17  C4  UNL     1      26.259   1.755  51.969  1.00  0.00     0.091 C 
BRANCH  17  18
HETATM   18  N1  UNL     1      26.663   2.365  50.769  1.00  0.00    -0.334 N 
HETATM   19  C3  UNL     1      25.893   3.491  50.444  1.00  0.00     0.241 C 
HETATM   20  O1  UNL     1      24.983   3.759  51.272  1.00  0.00    -0.269 OA
HETATM   21  H4  UNL     1      27.443   2.083  50.118  1.00  0.00     0.168 HD
BRANCH  19  22
HETATM   22  C2  UNL     1      26.071   4.323  49.272  1.00  0.00     0.048 C 
HETATM   23  C1  UNL     1      27.321   4.500  48.890  1.00  0.00     0.037 C 
ENDBRANCH  19  22
ENDBRANCH  17  18
ENDBRANCH   1  16
TORSDOF 3
ENDMDL
MODEL 2
REMARK VINA RESULT:      -7.8      1.966      6.589
REMARK  3 active torsions:
REMARK  status: ('A' for Active; 'I' for Inactive)
REMARK    1  A    between atoms: C2_2  and  C3_3 
REMARK       I    between atoms: C3_3  and  N1_5 
REMARK    2  A    between atoms: N1_5  and  C4_6 
REMARK    3  A    between atoms: C5_7  and  C6_8 
ROOT
HETATM    1  C6  UNL     1      23.793  -1.087  54.870  1.00  0.00     0.033 C 
HETATM    2  C7  UNL     1      24.527  -0.492  53.947  1.00  0.00     0.058 C 
HETATM    3  C8  UNL     1      23.920   0.339  52.917  1.00  0.00     0.043 C 
HETATM    4  C9  UNL     1      24.469   1.268  52.113  1.00  0.00    -0.006 C 
HETATM    5  C10 UNL     1      23.184   1.554  51.453  1.00  0.00     0.070 C 
HETATM    6  C11 UNL     1      23.312   2.260  50.166  1.00  0.00    -0.022 C 
HETATM    7  C12 UNL     1      24.007   3.060  49.376  1.00  0.00    -0.002 C 
HETATM    8  C13 UNL     1      25.297   3.705  49.629  1.00  0.00     0.017 C 
HETATM    9  C14 UNL     1      26.319   3.593  50.462  1.00  0.00     0.090 C 
HETATM   10  N2  UNL     1      26.571   2.703  51.543  1.00  0.00    -0.350 N 
HETATM   11  C15 UNL     1      25.884   1.617  52.156  1.00  0.00     0.135 C 
HETATM   12  N3  UNL     1      26.888   1.069  52.736  1.00  0.00    -0.224 NA
HETATM   13  C16 UNL     1      26.948  -0.098  53.556  1.00  0.00     0.235 C 
HETATM   14  N4  UNL     1      25.942  -0.738  54.054  1.00  0.00    -0.242 NA
HETATM   15  H15 UNL     1      27.489   2.884  52.009  1.00  0.00     0.166 HD
ENDROOT
BRANCH   1  16
HETATM   16  C5  UNL     1      22.352  -1.013  54.999  1.00  0.00     0.019 C 
HETATM   17  C4  UNL     1      21.508  -1.626  54.164  1.00  0.00     0.091 C 
BRANCH  17  18
HETATM   18  N1  UNL     1      20.107  -1.573  54.260  1.00  0.00    -0.334 N 
HETATM   19  C3  UNL     1      19.517  -0.839  53.221  1.00  0.00     0.241 C 
HETATM   20  O1  UNL     1      20.332  -0.360  52.390  1.00  0.00    -0.269 OA
HETATM   21  H4  UNL     1      19.481  -2.003  54.991  1.00  0.00     0.168 HD
BRANCH  19  22
HETATM   22  C2  UNL     1      18.096  -0.610  53.053  1.00  0.00     0.048 C 
HETATM   23  C1  UNL     1      17.341  -1.691  53.097  1.00  0.00     0.037 C 
ENDBRANCH  19  22
ENDBRANCH  17  18
ENDBRANCH   1  16
TORSDOF 3
ENDMDL
MODEL 3
REMARK VINA RESULT:      -7.6      3.167      5.336
REMARK  3 active torsions:
REMARK  status: ('A' for Active; 'I' for Inactive)
REMARK    1  A    between atoms: C2_2  and  C3_3 
REMARK       I    between atoms: C3_3  and  N1_5 
REMARK    2  A    between atoms: N1_5  and  C4_6 
REMARK    3  A    between atoms: C5_7  and  C6_8 
ROOT
HETATM    1  C6  UNL     1      23.293  -0.186  53.580  1.00  0.00     0.033 C 
HETATM    2  C7  UNL     1      22.712   0.810  52.936  1.00  0.00     0.058 C 
HETATM    3  C8  UNL     1      23.430   1.585  51.934  1.00  0.00     0.043 C 
HETATM    4  C9  UNL     1      22.967   2.389  50.960  1.00  0.00    -0.006 C 
HETATM    5  C10 UNL     1      24.324   2.712  50.488  1.00  0.00     0.070 C 
HETATM    6  C11 UNL     1      24.397   3.913  49.638  1.00  0.00    -0.022 C 
HETATM    7  C12 UNL     1      23.803   4.749  48.804  1.00  0.00    -0.002 C 
HETATM    8  C13 UNL     1      22.427   4.725  48.305  1.00  0.00     0.017 C 
HETATM    9  C14 UNL     1      21.270   4.158  48.605  1.00  0.00     0.090 C 
HETATM   10  N2  UNL     1      20.892   3.261  49.642  1.00  0.00    -0.350 N 
HETATM   11  C15 UNL     1      21.546   2.627  50.736  1.00  0.00     0.135 C 
HETATM   12  N3  UNL     1      20.507   2.347  51.434  1.00  0.00    -0.224 NA
HETATM   13  C16 UNL     1      20.401   1.689  52.697  1.00  0.00     0.235 C 
HETATM   14  N4  UNL     1      21.341   1.049  53.309  1.00  0.00    -0.242 NA
HETATM   15  H15 UNL     1      19.882   2.995  49.597  1.00  0.00     0.166 HD
ENDROOT
BRANCH   1  16
HETATM   16  C5  UNL     1      24.656  -0.641  53.404  1.00  0.00     0.019 C 
HETATM   17  C4  UNL     1      25.628  -0.409  54.293  1.00  0.00     0.091 C 
BRANCH  17  18
HETATM   18  N1  UNL     1      26.960  -0.834  54.152  1.00  0.00    -0.334 N 
HETATM   19  C3  UNL     1      27.885   0.208  54.316  1.00  0.00     0.241 C 
HETATM   20  O1  UNL     1      27.370   1.331  54.559  1.00  0.00    -0.269 OA
HETATM   21  H4  UNL     1      27.323  -1.802  53.947  1.00  0.00     0.168 HD
BRANCH  19  22
HETATM   22  C2  UNL     1      29.325   0.076  54.228  1.00  0.00     0.048 C 
HETATM   23  C1  UNL     1      29.756  -0.974  53.555  1.00  0.00     0.037 C 
ENDBRANCH  19  22
ENDBRANCH  17  18
ENDBRANCH   1  16
TORSDOF 3
ENDMDL
MODEL 4
REMARK VINA RESULT:      -7.5      2.529      5.482
REMARK  3 active torsions:
REMARK  status: ('A' for Active; 'I' for Inactive)
REMARK    1  A    between atoms: C2_2  and  C3_3 
REMARK       I    between atoms: C3_3  and  N1_5 
REMARK    2  A    between atoms: N1_5  and  C4_6 
REMARK    3  A    between atoms: C5_7  and  C6_8 
ROOT
HETATM    1  C6  UNL     1      20.811   0.069  53.539  1.00  0.00     0.033 C 
HETATM    2  C7  UNL     1      22.035  -0.336  53.822  1.00  0.00     0.058 C 
HETATM    3  C8  UNL     1      23.191   0.191  53.111  1.00  0.00     0.043 C 
HETATM    4  C9  UNL     1      24.496   0.175  53.437  1.00  0.00    -0.006 C 
HETATM    5  C10 UNL     1      24.883   0.887  52.208  1.00  0.00     0.070 C 
HETATM    6  C11 UNL     1      26.314   0.780  51.875  1.00  0.00    -0.022 C 
HETATM    7  C12 UNL     1      27.560   0.593  52.274  1.00  0.00    -0.002 C 
HETATM    8  C13 UNL     1      28.064   0.353  53.627  1.00  0.00     0.017 C 
HETATM    9  C14 UNL     1      27.600  -0.011  54.812  1.00  0.00     0.090 C 
HETATM   10  N2  UNL     1      26.290  -0.344  55.258  1.00  0.00    -0.350 N 
HETATM   11  C15 UNL     1      24.998  -0.428  54.667  1.00  0.00     0.135 C 
HETATM   12  N3  UNL     1      24.444  -1.182  55.543  1.00  0.00    -0.224 NA
HETATM   13  C16 UNL     1      23.112  -1.692  55.603  1.00  0.00     0.235 C 
HETATM   14  N4  UNL     1      22.115  -1.322  54.869  1.00  0.00    -0.242 NA
HETATM   15  H15 UNL     1      26.261  -0.590  56.273  1.00  0.00     0.166 HD
ENDROOT
BRANCH   1  16
HETATM   16  C5  UNL     1      20.441   1.046  52.536  1.00  0.00     0.019 C 
HETATM   17  C4  UNL     1      20.340   2.355  52.788  1.00  0.00     0.091 C 
BRANCH  17  18
HETATM   18  N1  UNL     1      19.983   3.328  51.839  1.00  0.00    -0.334 N 
HETATM   19  C3  UNL     1      21.003   4.261  51.604  1.00  0.00     0.241 C 
HETATM   20  O1  UNL     1      22.051   4.070  52.275  1.00  0.00    -0.269 OA
HETATM   21  H4  UNL     1      19.077   3.429  51.311  1.00  0.00     0.168 HD
BRANCH  19  22
HETATM   22  C2  UNL     1      20.928   5.377  50.683  1.00  0.00     0.048 C 
HETATM   23  C1  UNL     1      21.686   6.413  50.988  1.00  0.00     0.037 C 
ENDBRANCH  19  22
ENDBRANCH  17  18
ENDBRANCH   1  16
TORSDOF 3
ENDMDL
MODEL 5
REMARK VINA RESULT:      -7.5      2.473      4.152
REMARK  3 active torsions:
REMARK  status: ('A' for Active; 'I' for Inactive)
REMARK    1  A    between atoms: C2_2  and  C3_3 
REMARK       I    between atoms: C3_3  and  N1_5 
REMARK    2  A    between atoms: N1_5  and  C4_6 
REMARK    3  A    between atoms: C5_7  and  C6_8 
ROOT
HETATM    1  C6  UNL     1      24.119   2.895  50.064  1.00  0.00     0.033 C 
HETATM    2  C7  UNL     1      23.119   2.048  50.223  1.00  0.00     0.058 C 
HETATM    3  C8  UNL     1      22.943   1.309  51.466  1.00  0.00     0.043 C 
HETATM    4  C9  UNL     1      21.864   0.673  51.955  1.00  0.00    -0.006 C 
HETATM    5  C10 UNL     1      22.579   0.251  53.171  1.00  0.00     0.070 C 
HETATM    6  C11 UNL     1      21.929  -0.852  53.901  1.00  0.00    -0.022 C 
HETATM    7  C12 UNL     1      20.828  -1.520  54.198  1.00  0.00    -0.002 C 
HETATM    8  C13 UNL     1      19.459  -1.286  53.736  1.00  0.00     0.017 C 
HETATM    9  C14 UNL     1      18.832  -0.627  52.775  1.00  0.00     0.090 C 
HETATM   10  N2  UNL     1      19.312   0.190  51.714  1.00  0.00    -0.350 N 
HETATM   11  C15 UNL     1      20.587   0.622  51.252  1.00  0.00     0.135 C 
HETATM   12  N3  UNL     1      20.251   0.941  50.056  1.00  0.00    -0.224 NA
HETATM   13  C16 UNL     1      21.042   1.467  48.991  1.00  0.00     0.235 C 
HETATM   14  N4  UNL     1      22.246   1.926  49.084  1.00  0.00    -0.242 NA
HETATM   15  H15 UNL     1      18.542   0.571  51.119  1.00  0.00     0.166 HD
ENDROOT
BRANCH   1  16
HETATM   16  C5  UNL     1      25.141   3.209  51.040  1.00  0.00     0.019 C 
HETATM   17  C4  UNL     1      26.301   2.551  51.126  1.00  0.00     0.091 C 
BRANCH  17  18
HETATM   18  N1  UNL     1      27.312   2.829  52.062  1.00  0.00    -0.334 N 
HETATM   19  C3  UNL     1      27.697   1.699  52.800  1.00  0.00     0.241 C 
HETATM   20  O1  UNL     1      27.080   0.643  52.500  1.00  0.00    -0.269 OA
HETATM   21  H4  UNL     1      27.789   3.747  52.262  1.00  0.00     0.168 HD
BRANCH  19  22
HETATM   22  C2  UNL     1      28.712   1.674  53.833  1.00  0.00     0.048 C 
HETATM   23  C1  UNL     1      28.983   0.483  54.330  1.00  0.00     0.037 C 
ENDBRANCH  19  22
ENDBRANCH  17  18
ENDBRANCH   1  16
TORSDOF 3
ENDMDL
MODEL 6
REMARK VINA RESULT:      -7.5      3.408      5.973
REMARK  3 active torsions:
REMARK  status: ('A' for Active; 'I' for Inactive)
REMARK    1  A    between atoms: C2_2  and  C3_3 
REMARK       I    between atoms: C3_3  and  N1_5 
REMARK    2  A    between atoms: N1_5  and  C4_6 
REMARK    3  A    between atoms: C5_7  and  C6_8 
ROOT
HETATM    1  C6  UNL     1      25.136   5.114  49.003  1.00  0.00     0.033 C 
HETATM    2  C7  UNL     1      24.819   3.934  49.505  1.00  0.00     0.058 C 
HETATM    3  C8  UNL     1      25.694   3.252  50.448  1.00  0.00     0.043 C 
HETATM    4  C9  UNL     1      25.436   2.248  51.305  1.00  0.00    -0.006 C 
HETATM    5  C10 UNL     1      26.822   2.226  51.802  1.00  0.00     0.070 C 
HETATM    6  C11 UNL     1      27.186   0.990  52.517  1.00  0.00    -0.022 C 
HETATM    7  C12 UNL     1      26.813  -0.063  53.224  1.00  0.00    -0.002 C 
HETATM    8  C13 UNL     1      25.468  -0.446  53.658  1.00  0.00     0.017 C 
HETATM    9  C14 UNL     1      24.210  -0.159  53.368  1.00  0.00     0.090 C 
HETATM   10  N2  UNL     1      23.632   0.730  52.419  1.00  0.00    -0.350 N 
HETATM   11  C15 UNL     1      24.121   1.633  51.434  1.00  0.00     0.135 C 
HETATM   12  N3  UNL     1      23.057   1.722  50.723  1.00  0.00    -0.224 NA
HETATM   13  C16 UNL     1      22.807   2.478  49.537  1.00  0.00     0.235 C 
HETATM   14  N4  UNL     1      23.562   3.402  49.044  1.00  0.00    -0.242 NA
HETATM   15  H15 UNL     1      22.587   0.724  52.446  1.00  0.00     0.166 HD
ENDROOT
BRANCH   1  16
HETATM   16  C5  UNL     1      26.333   5.874  49.291  1.00  0.00     0.019 C 
HETATM   17  C4  UNL     1      27.426   5.844  48.522  1.00  0.00     0.091 C 
BRANCH  17  18
HETATM   18  N1  UNL     1      28.604   6.568  48.774  1.00  0.00    -0.334 N 
HETATM   19  C3  UNL     1      29.763   5.865  48.415  1.00  0.00     0.241 C 
HETATM   20  O1  UNL     1      29.553   4.721  47.933  1.00  0.00    -0.269 OA
HETATM   21  H4  UNL     1      28.707   7.534  49.184  1.00  0.00     0.168 HD
BRANCH  19  22
HETATM   22  C2  UNL     1      31.120   6.351  48.557  1.00  0.00     0.048 C 
HETATM   23  C1  UNL     1      31.723   6.021  49.683  1.00  0.00     0.037 C 
ENDBRANCH  19  22
ENDBRANCH  17  18
ENDBRANCH   1  16
TORSDOF 3
ENDMDL
MODEL 7
REMARK VINA RESULT:      -7.3      4.512      8.450
REMARK  3 active torsions:
REMARK  status: ('A' for Active; 'I' for Inactive)
REMARK    1  A    between atoms: C2_2  and  C3_3 
REMARK       I    between atoms: C3_3  and  N1_5 
REMARK    2  A    between atoms: N1_5  and  C4_6 
REMARK    3  A    between atoms: C5_7  and  C6_8 
ROOT
HETATM    1  C6  UNL     1      24.372   2.865  51.348  1.00  0.00     0.033 C 
HETATM    2  C7  UNL     1      24.640   4.059  50.852  1.00  0.00     0.058 C 
HETATM    3  C8  UNL     1      25.840   4.300  50.064  1.00  0.00     0.043 C 
HETATM    4  C9  UNL     1      26.140   5.302  49.218  1.00  0.00    -0.006 C 
HETATM    5  C10 UNL     1      27.468   4.741  48.917  1.00  0.00     0.070 C 
HETATM    6  C11 UNL     1      28.403   5.702  48.305  1.00  0.00    -0.022 C 
HETATM    7  C12 UNL     1      28.597   6.799  47.594  1.00  0.00    -0.002 C 
HETATM    8  C13 UNL     1      27.603   7.693  46.996  1.00  0.00     0.017 C 
HETATM    9  C14 UNL     1      26.311   7.955  47.100  1.00  0.00     0.090 C 
HETATM   10  N2  UNL     1      25.293   7.404  47.927  1.00  0.00    -0.350 N 
HETATM   11  C15 UNL     1      25.225   6.401  48.935  1.00  0.00     0.135 C 
HETATM   12  N3  UNL     1      24.130   6.773  49.490  1.00  0.00    -0.224 NA
HETATM   13  C16 UNL     1      23.429   6.213  50.601  1.00  0.00     0.235 C 
HETATM   14  N4  UNL     1      23.661   5.071  51.157  1.00  0.00    -0.242 NA
HETATM   15  H15 UNL     1      24.357   7.838  47.758  1.00  0.00     0.166 HD
ENDROOT
BRANCH   1  16
HETATM   16  C5  UNL     1      25.179   1.673  51.197  1.00  0.00     0.019 C 
HETATM   17  C4  UNL     1      26.108   1.298  52.082  1.00  0.00     0.091 C 
BRANCH  17  18
HETATM   18  N1  UNL     1      26.910   0.149  51.964  1.00  0.00    -0.334 N 
HETATM   19  C3  UNL     1      27.681  -0.096  53.110  1.00  0.00     0.241 C 
HETATM   20  O1  UNL     1      27.525   0.742  54.036  1.00  0.00    -0.269 OA
HETATM   21  H4  UNL     1      26.991  -0.515  51.150  1.00  0.00     0.168 HD
BRANCH  19  22
HETATM   22  C2  UNL     1      28.600  -1.202  53.284  1.00  0.00     0.048 C 
HETATM   23  C1  UNL     1      29.847  -0.863  53.552  1.00  0.00     0.037 C 
ENDBRANCH  19  22
ENDBRANCH  17  18
ENDBRANCH   1  16
TORSDOF 3
ENDMDL
MODEL 8
REMARK VINA RESULT:      -7.2      3.316      5.994
REMARK  3 active torsions:
REMARK  status: ('A' for Active; 'I' for Inactive)
REMARK    1  A    between atoms: C2_2  and  C3_3 
REMARK       I    between atoms: C3_3  and  N1_5 
REMARK    2  A    between atoms: N1_5  and  C4_6 
REMARK    3  A    between atoms: C5_7  and  C6_8 
ROOT
HETATM    1  C6  UNL     1      25.091   5.096  48.970  1.00  0.00     0.033 C 
HETATM    2  C7  UNL     1      24.617   3.993  49.520  1.00  0.00     0.058 C 
HETATM    3  C8  UNL     1      25.475   3.101  50.288  1.00  0.00     0.043 C 
HETATM    4  C9  UNL     1      25.159   2.142  51.176  1.00  0.00    -0.006 C 
HETATM    5  C10 UNL     1      26.572   1.803  51.415  1.00  0.00     0.070 C 
HETATM    6  C11 UNL     1      26.777   0.489  52.051  1.00  0.00    -0.022 C 
HETATM    7  C12 UNL     1      26.313  -0.486  52.812  1.00  0.00    -0.002 C 
HETATM    8  C13 UNL     1      25.015  -0.590  53.481  1.00  0.00     0.017 C 
HETATM    9  C14 UNL     1      23.818  -0.028  53.423  1.00  0.00     0.090 C 
HETATM   10  N2  UNL     1      23.291   1.002  52.595  1.00  0.00    -0.350 N 
HETATM   11  C15 UNL     1      23.784   1.819  51.539  1.00  0.00     0.135 C 
HETATM   12  N3  UNL     1      22.657   2.162  51.031  1.00  0.00    -0.224 NA
HETATM   13  C16 UNL     1      22.374   3.001  49.911  1.00  0.00     0.235 C 
HETATM   14  N4  UNL     1      23.214   3.762  49.292  1.00  0.00    -0.242 NA
HETATM   15  H15 UNL     1      22.292   1.219  52.810  1.00  0.00     0.166 HD
ENDROOT
BRANCH   1  16
HETATM   16  C5  UNL     1      26.457   5.571  49.039  1.00  0.00     0.019 C 
HETATM   17  C4  UNL     1      26.790   6.863  48.968  1.00  0.00     0.091 C 
BRANCH  17  18
HETATM   18  N1  UNL     1      28.105   7.356  49.029  1.00  0.00    -0.334 N 
HETATM   19  C3  UNL     1      28.160   8.731  49.298  1.00  0.00     0.241 C 
HETATM   20  O1  UNL     1      27.036   9.282  49.438  1.00  0.00    -0.269 OA
HETATM   21  H4  UNL     1      29.011   6.832  48.901  1.00  0.00     0.168 HD
BRANCH  19  22
HETATM   22  C2  UNL     1      29.370   9.518  49.420  1.00  0.00     0.048 C 
HETATM   23  C1  UNL     1      30.493   8.868  49.180  1.00  0.00     0.037 C 
ENDBRANCH  19  22
ENDBRANCH  17  18
ENDBRANCH   1  16
TORSDOF 3
ENDMDL
MODEL 9
REMARK VINA RESULT:      -7.2      1.970      3.289
REMARK  3 active torsions:
REMARK  status: ('A' for Active; 'I' for Inactive)
REMARK    1  A    between atoms: C2_2  and  C3_3 
REMARK       I    between atoms: C3_3  and  N1_5 
REMARK    2  A    between atoms: N1_5  and  C4_6 
REMARK    3  A    between atoms: C5_7  and  C6_8 
ROOT
HETATM    1  C6  UNL     1      26.833   2.355  51.377  1.00  0.00     0.033 C 
HETATM    2  C7  UNL     1      26.174   1.767  52.358  1.00  0.00     0.058 C 
HETATM    3  C8  UNL     1      24.722   1.656  52.335  1.00  0.00     0.043 C 
HETATM    4  C9  UNL     1      23.900   0.847  53.026  1.00  0.00    -0.006 C 
HETATM    5  C10 UNL     1      22.698   1.412  52.390  1.00  0.00     0.070 C 
HETATM    6  C11 UNL     1      21.444   1.125  53.109  1.00  0.00    -0.022 C 
HETATM    7  C12 UNL     1      20.763   0.347  53.933  1.00  0.00    -0.002 C 
HETATM    8  C13 UNL     1      21.194  -0.880  54.605  1.00  0.00     0.017 C 
HETATM    9  C14 UNL     1      22.319  -1.511  54.896  1.00  0.00     0.090 C 
HETATM   10  N2  UNL     1      23.682  -1.196  54.633  1.00  0.00    -0.350 N 
HETATM   11  C15 UNL     1      24.381  -0.135  53.991  1.00  0.00     0.135 C 
HETATM   12  N3  UNL     1      25.532  -0.325  54.524  1.00  0.00    -0.224 NA
HETATM   13  C16 UNL     1      26.756   0.386  54.339  1.00  0.00     0.235 C 
HETATM   14  N4  UNL     1      27.003   1.261  53.422  1.00  0.00    -0.242 NA
HETATM   15  H15 UNL     1      24.341  -1.918  55.002  1.00  0.00     0.166 HD
ENDROOT
BRANCH   1  16
HETATM   16  C5  UNL     1      26.255   2.950  50.190  1.00  0.00     0.019 C 
HETATM   17  C4  UNL     1      26.062   4.265  50.047  1.00  0.00     0.091 C 
BRANCH  17  18
HETATM   18  N1  UNL     1      25.502   4.873  48.910  1.00  0.00    -0.334 N 
HETATM   19  C3  UNL     1      25.410   6.268  49.029  1.00  0.00     0.241 C 
HETATM   20  O1  UNL     1      25.840   6.730  50.117  1.00  0.00    -0.269 OA
HETATM   21  H4  UNL     1      25.159   4.419  48.023  1.00  0.00     0.168 HD
BRANCH  19  22
HETATM   22  C2  UNL     1      24.877   7.164  48.023  1.00  0.00     0.048 C 
HETATM   23  C1  UNL     1      25.778   7.788  47.289  1.00  0.00     0.037 C 
ENDBRANCH  19  22
ENDBRANCH  17  18
ENDBRANCH   1  16
TORSDOF 3
ENDMDL
