MODEL 1
REMARK VINA RESULT:      -8.4      0.000      0.000
REMARK  2 active torsions:
REMARK  status: ('A' for Active; 'I' for Inactive)
REMARK    1  A    between atoms: C13_17  and  C14_18 
REMARK    2  A    between atoms: C19_23  and  O2_24 
ROOT
HETATM    1  C1  UNL     1      24.563   3.971  49.378  1.00  0.00     0.312 C 
HETATM    2  N1  UNL     1      23.291   3.762  50.098  1.00  0.00     0.104 N 
HETATM    3  C2  UNL     1      23.678   3.527  51.457  1.00  0.00     0.383 C 
HETATM    4  N2  UNL     1      24.461   4.458  52.215  1.00  0.00    -0.213 NA
HETATM    5  N3  UNL     1      24.648   3.770  53.509  1.00  0.00    -0.317 N 
HETATM    6  C3  UNL     1      24.480   2.330  53.365  1.00  0.00     0.077 A 
HETATM    7  C4  UNL     1      23.169   2.017  53.263  1.00  0.00     0.040 A 
HETATM    8  C5  UNL     1      23.186   0.762  52.762  1.00  0.00    -0.055 A 
HETATM    9  C6  UNL     1      24.176  -0.127  52.412  1.00  0.00     0.017 A 
HETATM   10  C7  UNL     1      25.479   0.358  52.599  1.00  0.00    -0.020 A 
HETATM   11  C8  UNL     1      25.626   1.660  53.102  1.00  0.00     0.102 A 
HETATM   12  O1  UNL     1      26.949   2.034  53.242  1.00  0.00    -0.348 OA
HETATM   13  C9  UNL     1      27.727   0.827  53.164  1.00  0.00     0.180 C 
HETATM   14  C10 UNL     1      26.853  -0.149  52.405  1.00  0.00     0.068 C 
HETATM   15  C11 UNL     1      21.852   0.380  52.217  1.00  0.00     0.040 C 
HETATM   16  C12 UNL     1      21.706   0.560  50.769  1.00  0.00     0.021 C 
HETATM   17  C13 UNL     1      21.581   1.818  49.980  1.00  0.00     0.024 C 
HETATM   18  C20 UNL     1      21.159   1.171  48.572  1.00  0.00     0.043 C 
HETATM   19  C21 UNL     1      20.455   2.209  47.852  1.00  0.00    -0.029 C 
HETATM   20  C22 UNL     1      21.280   3.199  47.540  1.00  0.00    -0.028 C 
HETATM   21  C23 UNL     1      22.642   2.958  48.008  1.00  0.00     0.063 C 
HETATM   22  C24 UNL     1      22.748   2.558  49.499  1.00  0.00     0.240 C 
HETATM   23  H6  UNL     1      23.903   5.294  52.496  1.00  0.00     0.148 HD
HETATM   24  H7  UNL     1      24.838   3.632  54.517  1.00  0.00     0.181 HD
ENDROOT
BRANCH  17  25
HETATM   25  C14 UNL     1      20.384   2.618  50.303  1.00  0.00    -0.014 A 
HETATM   26  C15 UNL     1      20.222   3.979  50.399  1.00  0.00     0.011 A 
HETATM   27  C16 UNL     1      19.069   4.676  50.646  1.00  0.00     0.001 A 
HETATM   28  C17 UNL     1      17.895   3.992  50.827  1.00  0.00     0.003 A 
HETATM   29  C18 UNL     1      17.948   2.594  50.749  1.00  0.00     0.037 A 
HETATM   30  C19 UNL     1      19.155   1.965  50.497  1.00  0.00     0.072 A 
BRANCH  30  31
HETATM   31  O2  UNL     1      18.924   0.621  50.473  1.00  0.00    -0.360 OA
HETATM   32  H22 UNL     1      19.681  -0.036  50.244  1.00  0.00     0.217 HD
ENDBRANCH  30  31
ENDBRANCH  17  25
TORSDOF 2
ENDMDL
MODEL 2
REMARK VINA RESULT:      -8.2      2.927      4.268
REMARK  2 active torsions:
REMARK  status: ('A' for Active; 'I' for Inactive)
REMARK    1  A    between atoms: C13_17  and  C14_18 
REMARK    2  A    between atoms: C19_23  and  O2_24 
ROOT
HETATM    1  C1  UNL     1      21.604   7.328  48.236  1.00  0.00     0.312 C 
HETATM    2  N1  UNL     1      21.517   6.197  49.182  1.00  0.00     0.104 N 
HETATM    3  C2  UNL     1      22.605   6.401  50.091  1.00  0.00     0.383 C 
HETATM    4  N2  UNL     1      22.764   7.600  50.858  1.00  0.00    -0.213 NA
HETATM    5  N3  UNL     1      24.028   7.372  51.588  1.00  0.00    -0.317 N 
HETATM    6  C3  UNL     1      24.851   6.379  50.911  1.00  0.00     0.077 A 
HETATM    7  C4  UNL     1      24.369   5.136  51.135  1.00  0.00     0.040 A 
HETATM    8  C5  UNL     1      24.962   4.393  50.175  1.00  0.00    -0.055 A 
HETATM    9  C6  UNL     1      25.862   4.653  49.167  1.00  0.00     0.017 A 
HETATM   10  C7  UNL     1      26.269   5.994  49.090  1.00  0.00    -0.020 A 
HETATM   11  C8  UNL     1      25.725   6.897  50.017  1.00  0.00     0.102 A 
HETATM   12  O1  UNL     1      26.192   8.186  49.845  1.00  0.00    -0.348 OA
HETATM   13  C9  UNL     1      27.353   8.094  49.003  1.00  0.00     0.180 C 
HETATM   14  C10 UNL     1      27.181   6.793  48.246  1.00  0.00     0.068 C 
HETATM   15  C11 UNL     1      24.275   3.081  50.006  1.00  0.00     0.040 C 
HETATM   16  C12 UNL     1      23.294   3.037  48.917  1.00  0.00     0.021 C 
HETATM   17  C13 UNL     1      21.944   3.665  48.833  1.00  0.00     0.024 C 
HETATM   18  C20 UNL     1      21.415   2.909  47.520  1.00  0.00     0.043 C 
HETATM   19  C21 UNL     1      19.972   2.943  47.595  1.00  0.00    -0.029 C 
HETATM   20  C22 UNL     1      19.529   4.187  47.476  1.00  0.00    -0.028 C 
HETATM   21  C23 UNL     1      20.613   5.150  47.305  1.00  0.00     0.063 C 
HETATM   22  C24 UNL     1      21.748   5.032  48.350  1.00  0.00     0.240 C 
HETATM   23  H6  UNL     1      22.072   7.655  51.639  1.00  0.00     0.148 HD
HETATM   24  H7  UNL     1      24.763   7.467  52.311  1.00  0.00     0.181 HD
ENDROOT
BRANCH  17  25
HETATM   25  C14 UNL     1      20.990   3.185  49.851  1.00  0.00    -0.014 A 
HETATM   26  C15 UNL     1      20.075   3.875  50.609  1.00  0.00     0.011 A 
HETATM   27  C16 UNL     1      19.166   3.370  51.501  1.00  0.00     0.001 A 
HETATM   28  C17 UNL     1      19.109   2.016  51.709  1.00  0.00     0.003 A 
HETATM   29  C18 UNL     1      20.002   1.217  50.983  1.00  0.00     0.037 A 
HETATM   30  C19 UNL     1      20.890   1.806  50.100  1.00  0.00     0.072 A 
BRANCH  30  31
HETATM   31  O2  UNL     1      21.633   0.811  49.535  1.00  0.00    -0.360 OA
HETATM   32  H22 UNL     1      22.465   0.444  50.013  1.00  0.00     0.217 HD
ENDBRANCH  30  31
ENDBRANCH  17  25
TORSDOF 2
ENDMDL
MODEL 3
REMARK VINA RESULT:      -8.0      2.936      3.854
REMARK  2 active torsions:
REMARK  status: ('A' for Active; 'I' for Inactive)
REMARK    1  A    between atoms: C13_17  and  C14_18 
REMARK    2  A    between atoms: C19_23  and  O2_24 
ROOT
HETATM    1  C1  UNL     1      25.621   6.468  50.074  1.00  0.00     0.312 C 
HETATM    2  N1  UNL     1      24.154   6.631  50.120  1.00  0.00     0.104 N 
HETATM    3  C2  UNL     1      23.754   5.964  51.323  1.00  0.00     0.383 C 
HETATM    4  N2  UNL     1      24.272   6.309  52.613  1.00  0.00    -0.213 NA
HETATM    5  N3  UNL     1      23.621   5.334  53.513  1.00  0.00    -0.317 N 
HETATM    6  C3  UNL     1      23.187   4.153  52.778  1.00  0.00     0.077 A 
HETATM    7  C4  UNL     1      22.064   4.422  52.076  1.00  0.00     0.040 A 
HETATM    8  C5  UNL     1      22.005   3.411  51.182  1.00  0.00    -0.055 A 
HETATM    9  C6  UNL     1      22.779   2.303  50.921  1.00  0.00     0.017 A 
HETATM   10  C7  UNL     1      23.898   2.172  51.757  1.00  0.00    -0.020 A 
HETATM   11  C8  UNL     1      24.104   3.158  52.734  1.00  0.00     0.102 A 
HETATM   12  O1  UNL     1      25.234   2.930  53.495  1.00  0.00    -0.348 OA
HETATM   13  C9  UNL     1      25.617   1.564  53.263  1.00  0.00     0.180 C 
HETATM   14  C10 UNL     1      25.011   1.214  51.920  1.00  0.00     0.068 C 
HETATM   15  C11 UNL     1      21.062   3.726  50.071  1.00  0.00     0.040 C 
HETATM   16  C12 UNL     1      21.694   4.268  48.864  1.00  0.00     0.021 C 
HETATM   17  C13 UNL     1      22.293   5.612  48.631  1.00  0.00     0.024 C 
HETATM   18  C20 UNL     1      22.465   5.520  47.038  1.00  0.00     0.043 C 
HETATM   19  C21 UNL     1      22.492   6.885  46.561  1.00  0.00    -0.029 C 
HETATM   20  C22 UNL     1      23.584   7.505  46.987  1.00  0.00    -0.028 C 
HETATM   21  C23 UNL     1      24.431   6.642  47.805  1.00  0.00     0.063 C 
HETATM   22  C24 UNL     1      23.689   5.911  48.950  1.00  0.00     0.240 C 
HETATM   23  H6  UNL     1      23.880   7.213  52.958  1.00  0.00     0.148 HD
HETATM   24  H7  UNL     1      23.252   4.911  54.382  1.00  0.00     0.181 HD
ENDROOT
BRANCH  17  25
HETATM   25  C14 UNL     1      21.337   6.730  48.757  1.00  0.00    -0.014 A 
HETATM   26  C15 UNL     1      21.485   7.966  49.340  1.00  0.00     0.011 A 
HETATM   27  C16 UNL     1      20.580   8.994  49.377  1.00  0.00     0.001 A 
HETATM   28  C17 UNL     1      19.358   8.837  48.775  1.00  0.00     0.003 A 
HETATM   29  C18 UNL     1      19.104   7.610  48.148  1.00  0.00     0.037 A 
HETATM   30  C19 UNL     1      20.072   6.620  48.156  1.00  0.00     0.072 A 
BRANCH  30  31
HETATM   31  O2  UNL     1      19.570   5.545  47.485  1.00  0.00    -0.360 OA
HETATM   32  H22 UNL     1      18.565   5.480  47.277  1.00  0.00     0.217 HD
ENDBRANCH  30  31
ENDBRANCH  17  25
TORSDOF 2
ENDMDL
MODEL 4
REMARK VINA RESULT:      -7.8      9.867     12.706
REMARK  2 active torsions:
REMARK  status: ('A' for Active; 'I' for Inactive)
REMARK    1  A    between atoms: C13_17  and  C14_18 
REMARK    2  A    between atoms: C19_23  and  O2_24 
ROOT
HETATM    1  C1  UNL     1      33.446  10.035  47.101  1.00  0.00     0.312 C 
HETATM    2  N1  UNL     1      33.139   8.654  46.678  1.00  0.00     0.104 N 
HETATM    3  C2  UNL     1      31.822   8.732  46.119  1.00  0.00     0.383 C 
HETATM    4  N2  UNL     1      31.488   9.606  45.034  1.00  0.00    -0.213 NA
HETATM    5  N3  UNL     1      30.040   9.379  44.848  1.00  0.00    -0.317 N 
HETATM    6  C3  UNL     1      29.435   8.845  46.061  1.00  0.00     0.077 A 
HETATM    7  C4  UNL     1      29.734   7.534  46.199  1.00  0.00     0.040 A 
HETATM    8  C5  UNL     1      29.456   7.285  47.497  1.00  0.00    -0.055 A 
HETATM    9  C6  UNL     1      28.968   8.034  48.543  1.00  0.00     0.017 A 
HETATM   10  C7  UNL     1      28.695   9.371  48.217  1.00  0.00    -0.020 A 
HETATM   11  C8  UNL     1      28.948   9.788  46.901  1.00  0.00     0.102 A 
HETATM   12  O1  UNL     1      28.647  11.120  46.694  1.00  0.00    -0.348 OA
HETATM   13  C9  UNL     1      27.836  11.536  47.806  1.00  0.00     0.180 C 
HETATM   14  C10 UNL     1      28.173  10.563  48.917  1.00  0.00     0.068 C 
HETATM   15  C11 UNL     1      30.076   6.006  47.947  1.00  0.00     0.040 C 
HETATM   16  C12 UNL     1      31.363   6.157  48.634  1.00  0.00     0.021 C 
HETATM   17  C13 UNL     1      32.698   6.517  48.076  1.00  0.00     0.024 C 
HETATM   18  C20 UNL     1      33.592   6.170  49.363  1.00  0.00     0.043 C 
HETATM   19  C21 UNL     1      34.924   5.911  48.864  1.00  0.00    -0.029 C 
HETATM   20  C22 UNL     1      35.457   7.017  48.365  1.00  0.00    -0.028 C 
HETATM   21  C23 UNL     1      34.557   8.162  48.461  1.00  0.00     0.063 C 
HETATM   22  C24 UNL     1      33.130   7.906  47.920  1.00  0.00     0.240 C 
HETATM   23  H6  UNL     1      31.877   9.263  44.127  1.00  0.00     0.148 HD
HETATM   24  H7  UNL     1      29.112   9.355  44.391  1.00  0.00     0.181 HD
ENDROOT
BRANCH  17  25
HETATM   25  C14 UNL     1      33.221   5.552  47.089  1.00  0.00    -0.014 A 
HETATM   26  C15 UNL     1      33.845   5.762  45.884  1.00  0.00     0.011 A 
HETATM   27  C16 UNL     1      34.367   4.826  45.029  1.00  0.00     0.001 A 
HETATM   28  C17 UNL     1      34.291   3.498  45.360  1.00  0.00     0.003 A 
HETATM   29  C18 UNL     1      33.671   3.172  46.573  1.00  0.00     0.037 A 
HETATM   30  C19 UNL     1      33.169   4.179  47.380  1.00  0.00     0.072 A 
BRANCH  30  31
HETATM   31  O2  UNL     1      32.626   3.591  48.485  1.00  0.00    -0.360 OA
HETATM   32  H22 UNL     1      32.418   2.584  48.493  1.00  0.00     0.217 HD
ENDBRANCH  30  31
ENDBRANCH  17  25
TORSDOF 2
ENDMDL
MODEL 5
REMARK VINA RESULT:      -7.7     10.313     11.772
REMARK  2 active torsions:
REMARK  status: ('A' for Active; 'I' for Inactive)
REMARK    1  A    between atoms: C13_17  and  C14_18 
REMARK    2  A    between atoms: C19_23  and  O2_24 
ROOT
HETATM    1  C1  UNL     1      33.817   8.220  44.845  1.00  0.00     0.312 C 
HETATM    2  N1  UNL     1      33.084   8.696  46.035  1.00  0.00     0.104 N 
HETATM    3  C2  UNL     1      33.556   7.870  47.105  1.00  0.00     0.383 C 
HETATM    4  N2  UNL     1      34.941   7.769  47.458  1.00  0.00    -0.213 NA
HETATM    5  N3  UNL     1      34.942   6.781  48.557  1.00  0.00    -0.317 N 
HETATM    6  C3  UNL     1      33.752   5.941  48.505  1.00  0.00     0.077 A 
HETATM    7  C4  UNL     1      32.677   6.619  48.966  1.00  0.00     0.040 A 
HETATM    8  C5  UNL     1      31.632   5.892  48.513  1.00  0.00    -0.055 A 
HETATM    9  C6  UNL     1      31.503   4.732  47.783  1.00  0.00     0.017 A 
HETATM   10  C7  UNL     1      32.723   4.154  47.401  1.00  0.00    -0.020 A 
HETATM   11  C8  UNL     1      33.905   4.804  47.788  1.00  0.00     0.102 A 
HETATM   12  O1  UNL     1      35.043   4.149  47.355  1.00  0.00    -0.348 OA
HETATM   13  C9  UNL     1      34.632   2.828  46.964  1.00  0.00     0.180 C 
HETATM   14  C10 UNL     1      33.156   2.958  46.650  1.00  0.00     0.068 C 
HETATM   15  C11 UNL     1      30.363   6.670  48.583  1.00  0.00     0.040 C 
HETATM   16  C12 UNL     1      29.975   7.327  47.329  1.00  0.00     0.021 C 
HETATM   17  C13 UNL     1      30.575   8.515  46.659  1.00  0.00     0.024 C 
HETATM   18  C20 UNL     1      29.429   8.771  45.565  1.00  0.00     0.043 C 
HETATM   19  C21 UNL     1      29.529  10.166  45.202  1.00  0.00    -0.029 C 
HETATM   20  C22 UNL     1      30.668  10.401  44.565  1.00  0.00    -0.028 C 
HETATM   21  C23 UNL     1      31.482   9.198  44.418  1.00  0.00     0.063 C 
HETATM   22  C24 UNL     1      31.698   8.403  45.727  1.00  0.00     0.240 C 
HETATM   23  H6  UNL     1      35.281   8.629  47.943  1.00  0.00     0.148 HD
HETATM   24  H7  UNL     1      35.257   6.258  49.392  1.00  0.00     0.181 HD
ENDROOT
BRANCH  17  25
HETATM   25  C14 UNL     1      30.502   9.757  47.452  1.00  0.00    -0.014 A 
HETATM   26  C15 UNL     1      31.433  10.751  47.638  1.00  0.00     0.011 A 
HETATM   27  C16 UNL     1      31.293  11.918  48.341  1.00  0.00     0.001 A 
HETATM   28  C17 UNL     1      30.099  12.192  48.957  1.00  0.00     0.003 A 
HETATM   29  C18 UNL     1      29.078  11.242  48.831  1.00  0.00     0.037 A 
HETATM   30  C19 UNL     1      29.301  10.085  48.103  1.00  0.00     0.072 A 
BRANCH  30  31
HETATM   31  O2  UNL     1      28.156   9.345  48.141  1.00  0.00    -0.360 OA
HETATM   32  H22 UNL     1      27.763   8.945  47.279  1.00  0.00     0.217 HD
ENDBRANCH  30  31
ENDBRANCH  17  25
TORSDOF 2
ENDMDL
MODEL 6
REMARK VINA RESULT:      -7.7      3.239      5.856
REMARK  2 active torsions:
REMARK  status: ('A' for Active; 'I' for Inactive)
REMARK    1  A    between atoms: C13_17  and  C14_18 
REMARK    2  A    between atoms: C19_23  and  O2_24 
ROOT
HETATM    1  C1  UNL     1      19.742   5.093  50.276  1.00  0.00     0.312 C 
HETATM    2  N1  UNL     1      20.814   5.237  49.271  1.00  0.00     0.104 N 
HETATM    3  C2  UNL     1      21.215   3.894  48.975  1.00  0.00     0.383 C 
HETATM    4  N2  UNL     1      20.303   2.896  48.501  1.00  0.00    -0.213 NA
HETATM    5  N3  UNL     1      21.146   1.687  48.394  1.00  0.00    -0.317 N 
HETATM    6  C3  UNL     1      22.319   1.791  49.252  1.00  0.00     0.077 A 
HETATM    7  C4  UNL     1      23.236   2.614  48.697  1.00  0.00     0.040 A 
HETATM    8  C5  UNL     1      24.054   2.912  49.731  1.00  0.00    -0.055 A 
HETATM    9  C6  UNL     1      24.109   2.551  51.058  1.00  0.00     0.017 A 
HETATM   10  C7  UNL     1      23.087   1.676  51.459  1.00  0.00    -0.020 A 
HETATM   11  C8  UNL     1      22.146   1.284  50.495  1.00  0.00     0.102 A 
HETATM   12  O1  UNL     1      21.186   0.428  51.001  1.00  0.00    -0.348 OA
HETATM   13  C9  UNL     1      21.689  -0.056  52.258  1.00  0.00     0.180 C 
HETATM   14  C10 UNL     1      22.686   0.993  52.706  1.00  0.00     0.068 C 
HETATM   15  C11 UNL     1      24.899   4.102  49.425  1.00  0.00     0.040 C 
HETATM   16  C12 UNL     1      24.383   5.372  49.947  1.00  0.00     0.021 C 
HETATM   17  C13 UNL     1      23.218   6.180  49.487  1.00  0.00     0.024 C 
HETATM   18  C20 UNL     1      23.511   7.515  50.330  1.00  0.00     0.043 C 
HETATM   19  C21 UNL     1      22.851   8.587  49.620  1.00  0.00    -0.029 C 
HETATM   20  C22 UNL     1      21.534   8.435  49.667  1.00  0.00    -0.028 C 
HETATM   21  C23 UNL     1      21.138   7.243  50.412  1.00  0.00     0.063 C 
HETATM   22  C24 UNL     1      21.861   5.945  49.981  1.00  0.00     0.240 C 
HETATM   23  H6  UNL     1      20.035   3.059  47.504  1.00  0.00     0.148 HD
HETATM   24  H7  UNL     1      21.467   0.751  48.093  1.00  0.00     0.181 HD
ENDROOT
BRANCH  17  25
HETATM   25  C14 UNL     1      23.336   6.678  48.103  1.00  0.00    -0.014 A 
HETATM   26  C15 UNL     1      22.407   6.722  47.091  1.00  0.00     0.011 A 
HETATM   27  C16 UNL     1      22.552   7.251  45.836  1.00  0.00     0.001 A 
HETATM   28  C17 UNL     1      23.745   7.826  45.482  1.00  0.00     0.003 A 
HETATM   29  C18 UNL     1      24.764   7.834  46.444  1.00  0.00     0.037 A 
HETATM   30  C19 UNL     1      24.537   7.277  47.690  1.00  0.00     0.072 A 
BRANCH  30  31
HETATM   31  O2  UNL     1      25.680   7.419  48.421  1.00  0.00    -0.360 OA
HETATM   32  H22 UNL     1      26.410   6.696  48.397  1.00  0.00     0.217 HD
ENDBRANCH  30  31
ENDBRANCH  17  25
TORSDOF 2
ENDMDL
MODEL 7
REMARK VINA RESULT:      -7.4      2.249      6.254
REMARK  2 active torsions:
REMARK  status: ('A' for Active; 'I' for Inactive)
REMARK    1  A    between atoms: C13_17  and  C14_18 
REMARK    2  A    between atoms: C19_23  and  O2_24 
ROOT
HETATM    1  C1  UNL     1      20.187   5.590  49.922  1.00  0.00     0.312 C 
HETATM    2  N1  UNL     1      21.401   4.764  49.771  1.00  0.00     0.104 N 
HETATM    3  C2  UNL     1      20.930   3.527  49.224  1.00  0.00     0.383 C 
HETATM    4  N2  UNL     1      20.193   3.448  47.998  1.00  0.00    -0.213 NA
HETATM    5  N3  UNL     1      19.887   2.007  47.877  1.00  0.00    -0.317 N 
HETATM    6  C3  UNL     1      19.940   1.350  49.177  1.00  0.00     0.077 A 
HETATM    7  C4  UNL     1      21.224   1.159  49.554  1.00  0.00     0.040 A 
HETATM    8  C5  UNL     1      21.126   0.916  50.880  1.00  0.00    -0.055 A 
HETATM    9  C6  UNL     1      20.082   0.825  51.773  1.00  0.00     0.017 A 
HETATM   10  C7  UNL     1      18.817   1.036  51.204  1.00  0.00    -0.020 A 
HETATM   11  C8  UNL     1      18.756   1.315  49.830  1.00  0.00     0.102 A 
HETATM   12  O1  UNL     1      17.464   1.508  49.380  1.00  0.00    -0.348 OA
HETATM   13  C9  UNL     1      16.592   1.000  50.404  1.00  0.00     0.180 C 
HETATM   14  C10 UNL     1      17.417   1.047  51.674  1.00  0.00     0.068 C 
HETATM   15  C11 UNL     1      22.447   1.059  51.554  1.00  0.00     0.040 C 
HETATM   16  C12 UNL     1      22.677   2.364  52.184  1.00  0.00     0.021 C 
HETATM   17  C13 UNL     1      22.945   3.686  51.551  1.00  0.00     0.024 C 
HETATM   18  C20 UNL     1      23.379   4.494  52.869  1.00  0.00     0.043 C 
HETATM   19  C21 UNL     1      24.201   5.592  52.411  1.00  0.00    -0.029 C 
HETATM   20  C22 UNL     1      23.478   6.451  51.706  1.00  0.00    -0.028 C 
HETATM   21  C23 UNL     1      22.080   6.044  51.597  1.00  0.00     0.063 C 
HETATM   22  C24 UNL     1      21.869   4.584  51.131  1.00  0.00     0.240 C 
HETATM   23  H6  UNL     1      20.805   3.608  47.167  1.00  0.00     0.148 HD
HETATM   24  H7  UNL     1      19.638   1.101  47.445  1.00  0.00     0.181 HD
ENDROOT
BRANCH  17  25
HETATM   25  C14 UNL     1      24.188   3.735  50.758  1.00  0.00    -0.014 A 
HETATM   26  C15 UNL     1      24.470   4.394  49.585  1.00  0.00     0.011 A 
HETATM   27  C16 UNL     1      25.664   4.454  48.917  1.00  0.00     0.001 A 
HETATM   28  C17 UNL     1      26.755   3.801  49.430  1.00  0.00     0.003 A 
HETATM   29  C18 UNL     1      26.577   3.096  50.628  1.00  0.00     0.037 A 
HETATM   30  C19 UNL     1      25.336   3.084  51.240  1.00  0.00     0.072 A 
BRANCH  30  31
HETATM   31  O2  UNL     1      25.441   2.335  52.374  1.00  0.00    -0.360 OA
HETATM   32  H22 UNL     1      26.350   1.954  52.668  1.00  0.00     0.217 HD
ENDBRANCH  30  31
ENDBRANCH  17  25
TORSDOF 2
ENDMDL
MODEL 8
REMARK VINA RESULT:      -7.2      3.841      7.465
REMARK  2 active torsions:
REMARK  status: ('A' for Active; 'I' for Inactive)
REMARK    1  A    between atoms: C13_17  and  C14_18 
REMARK    2  A    between atoms: C19_23  and  O2_24 
ROOT
HETATM    1  C1  UNL     1      21.132   7.738  48.073  1.00  0.00     0.312 C 
HETATM    2  N1  UNL     1      22.327   6.882  47.935  1.00  0.00     0.104 N 
HETATM    3  C2  UNL     1      22.013   5.995  46.855  1.00  0.00     0.383 C 
HETATM    4  N2  UNL     1      21.654   6.457  45.547  1.00  0.00    -0.213 NA
HETATM    5  N3  UNL     1      21.375   5.208  44.809  1.00  0.00    -0.317 N 
HETATM    6  C3  UNL     1      21.046   4.122  45.725  1.00  0.00     0.077 A 
HETATM    7  C4  UNL     1      22.166   3.652  46.317  1.00  0.00     0.040 A 
HETATM    8  C5  UNL     1      21.691   2.958  47.375  1.00  0.00    -0.055 A 
HETATM    9  C6  UNL     1      20.435   2.677  47.864  1.00  0.00     0.017 A 
HETATM   10  C7  UNL     1      19.388   3.233  47.114  1.00  0.00    -0.020 A 
HETATM   11  C8  UNL     1      19.724   3.997  45.986  1.00  0.00     0.102 A 
HETATM   12  O1  UNL     1      18.617   4.496  45.328  1.00  0.00    -0.348 OA
HETATM   13  C9  UNL     1      17.482   3.761  45.817  1.00  0.00     0.180 C 
HETATM   14  C10 UNL     1      17.912   3.243  47.174  1.00  0.00     0.068 C 
HETATM   15  C11 UNL     1      22.768   2.684  48.369  1.00  0.00     0.040 C 
HETATM   16  C12 UNL     1      22.828   3.633  49.486  1.00  0.00     0.021 C 
HETATM   17  C13 UNL     1      23.285   5.051  49.500  1.00  0.00     0.024 C 
HETATM   18  C20 UNL     1      23.337   5.266  51.090  1.00  0.00     0.043 C 
HETATM   19  C21 UNL     1      24.271   6.346  51.316  1.00  0.00    -0.029 C 
HETATM   20  C22 UNL     1      23.791   7.484  50.833  1.00  0.00    -0.028 C 
HETATM   21  C23 UNL     1      22.476   7.319  50.220  1.00  0.00     0.063 C 
HETATM   22  C24 UNL     1      22.385   6.164  49.194  1.00  0.00     0.240 C 
HETATM   23  H6  UNL     1      22.480   6.831  45.029  1.00  0.00     0.148 HD
HETATM   24  H7  UNL     1      21.245   4.558  44.015  1.00  0.00     0.181 HD
ENDROOT
BRANCH  17  25
HETATM   25  C14 UNL     1      24.703   5.234  49.135  1.00  0.00    -0.014 A 
HETATM   26  C15 UNL     1      25.324   6.260  48.466  1.00  0.00     0.011 A 
HETATM   27  C16 UNL     1      26.661   6.408  48.203  1.00  0.00     0.001 A 
HETATM   28  C17 UNL     1      27.542   5.451  48.636  1.00  0.00     0.003 A 
HETATM   29  C18 UNL     1      27.010   4.358  49.332  1.00  0.00     0.037 A 
HETATM   30  C19 UNL     1      25.646   4.282  49.556  1.00  0.00     0.072 A 
BRANCH  30  31
HETATM   31  O2  UNL     1      25.403   3.132  50.247  1.00  0.00    -0.360 OA
HETATM   32  H22 UNL     1      25.933   2.275  50.040  1.00  0.00     0.217 HD
ENDBRANCH  30  31
ENDBRANCH  17  25
TORSDOF 2
ENDMDL
MODEL 9
REMARK VINA RESULT:      -7.2     11.333     14.404
REMARK  2 active torsions:
REMARK  status: ('A' for Active; 'I' for Inactive)
REMARK    1  A    between atoms: C13_17  and  C14_18 
REMARK    2  A    between atoms: C19_23  and  O2_24 
ROOT
HETATM    1  C1  UNL     1      31.302   8.900  44.323  1.00  0.00     0.312 C 
HETATM    2  N1  UNL     1      32.511   8.292  44.914  1.00  0.00     0.104 N 
HETATM    3  C2  UNL     1      33.379   8.058  43.798  1.00  0.00     0.383 C 
HETATM    4  N2  UNL     1      33.803   9.100  42.911  1.00  0.00    -0.213 NA
HETATM    5  N3  UNL     1      34.623   8.384  41.912  1.00  0.00    -0.317 N 
HETATM    6  C3  UNL     1      34.273   6.970  41.866  1.00  0.00     0.077 A 
HETATM    7  C4  UNL     1      34.801   6.320  42.927  1.00  0.00     0.040 A 
HETATM    8  C5  UNL     1      34.102   5.164  42.964  1.00  0.00    -0.055 A 
HETATM    9  C6  UNL     1      33.102   4.612  42.197  1.00  0.00     0.017 A 
HETATM   10  C7  UNL     1      32.686   5.418  41.126  1.00  0.00    -0.020 A 
HETATM   11  C8  UNL     1      33.312   6.664  40.963  1.00  0.00     0.102 A 
HETATM   12  O1  UNL     1      32.823   7.371  39.882  1.00  0.00    -0.348 OA
HETATM   13  C9  UNL     1      32.088   6.435  39.077  1.00  0.00     0.180 C 
HETATM   14  C10 UNL     1      31.700   5.324  40.030  1.00  0.00     0.068 C 
HETATM   15  C11 UNL     1      34.261   4.479  44.279  1.00  0.00     0.040 C 
HETATM   16  C12 UNL     1      33.181   4.734  45.238  1.00  0.00     0.021 C 
HETATM   17  C13 UNL     1      32.873   5.971  46.010  1.00  0.00     0.024 C 
HETATM   18  C20 UNL     1      31.788   5.355  47.019  1.00  0.00     0.043 C 
HETATM   19  C21 UNL     1      31.788   6.217  48.180  1.00  0.00    -0.029 C 
HETATM   20  C22 UNL     1      31.321   7.417  47.867  1.00  0.00    -0.028 C 
HETATM   21  C23 UNL     1      30.946   7.520  46.459  1.00  0.00     0.063 C 
HETATM   22  C24 UNL     1      32.033   7.040  45.468  1.00  0.00     0.240 C 
HETATM   23  H6  UNL     1      34.510   9.726  43.358  1.00  0.00     0.148 HD
HETATM   24  H7  UNL     1      35.325   8.219  41.170  1.00  0.00     0.181 HD
ENDROOT
BRANCH  17  25
HETATM   25  C14 UNL     1      33.939   6.383  46.943  1.00  0.00    -0.014 A 
HETATM   26  C15 UNL     1      34.440   7.631  47.227  1.00  0.00     0.011 A 
HETATM   27  C16 UNL     1      35.394   7.966  48.151  1.00  0.00     0.001 A 
HETATM   28  C17 UNL     1      35.958   6.983  48.922  1.00  0.00     0.003 A 
HETATM   29  C18 UNL     1      35.517   5.670  48.713  1.00  0.00     0.037 A 
HETATM   30  C19 UNL     1      34.548   5.415  47.758  1.00  0.00     0.072 A 
BRANCH  30  31
HETATM   31  O2  UNL     1      34.307   4.072  47.762  1.00  0.00    -0.360 OA
HETATM   32  H22 UNL     1      33.348   3.713  47.672  1.00  0.00     0.217 HD
ENDBRANCH  30  31
ENDBRANCH  17  25
TORSDOF 2
ENDMDL
