MODEL 1
REMARK VINA RESULT:      -7.3      0.000      0.000
REMARK  6 active torsions:
REMARK  status: ('A' for Active; 'I' for Inactive)
REMARK    1  A    between atoms: C3_3  and  C4_5 
REMARK    2  A    between atoms: C5_6  and  N1_7 
REMARK    3  A    between atoms: N1_7  and  S1_8 
REMARK    4  A    between atoms: S1_8  and  N2_11 
REMARK       I    between atoms: N2_11  and  C6_12 
REMARK    5  A    between atoms: C6_12  and  C7_14 
REMARK    6  A    between atoms: C7_14  and  C8_15 
ROOT
HETATM    1  N2  UNL     1      27.850   1.848  53.021  1.00  0.00    -0.237 N 
HETATM    2  C6  UNL     1      27.020   1.576  51.908  1.00  0.00     0.236 C 
HETATM    3  O3  UNL     1      26.696   0.429  51.497  1.00  0.00    -0.272 OA
HETATM    4  H8  UNL     1      28.047   2.866  53.257  1.00  0.00     0.183 HD
ENDROOT
BRANCH   1   5
HETATM    5  S1  UNL     1      28.611   0.731  54.076  1.00  0.00     0.325 S 
HETATM    6  O1  UNL     1      29.042   1.443  55.321  1.00  0.00    -0.182 OA
HETATM    7  O2  UNL     1      29.770   0.060  53.362  1.00  0.00    -0.182 OA
BRANCH   5   8
HETATM    8  N1  UNL     1      27.546  -0.537  54.554  1.00  0.00    -0.278 N 
HETATM    9  H7  UNL     1      27.589  -1.585  54.553  1.00  0.00     0.179 HD
BRANCH   8  10
HETATM   10  C5  UNL     1      26.346   0.040  55.055  1.00  0.00     0.103 C 
HETATM   11  C4  UNL     1      25.330  -0.461  54.373  1.00  0.00     0.041 C 
BRANCH  11  12
HETATM   12  C3  UNL     1      23.937  -0.618  54.031  1.00  0.00     0.031 C 
HETATM   13  C2  UNL     1      22.706  -0.699  53.582  1.00  0.00    -0.007 C 
HETATM   14  C1  UNL     1      21.709  -1.281  54.537  1.00  0.00     0.038 C 
HETATM   15 CL1  UNL     1      23.537  -1.312  55.593  1.00  0.00    -0.085 Cl
ENDBRANCH  11  12
ENDBRANCH   8  10
ENDBRANCH   5   8
ENDBRANCH   1   5
BRANCH   2  16
HETATM   16  C7  UNL     1      26.429   2.658  51.083  1.00  0.00     0.142 C 
BRANCH  16  17
HETATM   17  C8  UNL     1      24.958   2.723  51.324  1.00  0.00    -0.049 A 
HETATM   18  C9  UNL     1      24.098   2.665  50.231  1.00  0.00     0.011 A 
HETATM   19  C10 UNL     1      22.728   2.715  50.375  1.00  0.00     0.043 A 
HETATM   20  C11 UNL     1      22.175   2.828  51.649  1.00  0.00     0.116 A 
HETATM   21  F1  UNL     1      20.847   2.877  51.797  1.00  0.00    -0.206 F 
HETATM   22  C12 UNL     1      23.069   2.881  52.676  1.00  0.00     0.043 A 
HETATM   23  C13 UNL     1      24.444   2.837  52.620  1.00  0.00     0.011 A 
ENDBRANCH  16  17
ENDBRANCH   2  16
TORSDOF 6
ENDMDL
MODEL 2
REMARK VINA RESULT:      -7.1      2.858      3.423
REMARK  6 active torsions:
REMARK  status: ('A' for Active; 'I' for Inactive)
REMARK    1  A    between atoms: C3_3  and  C4_5 
REMARK    2  A    between atoms: C5_6  and  N1_7 
REMARK    3  A    between atoms: N1_7  and  S1_8 
REMARK    4  A    between atoms: S1_8  and  N2_11 
REMARK       I    between atoms: N2_11  and  C6_12 
REMARK    5  A    between atoms: C6_12  and  C7_14 
REMARK    6  A    between atoms: C7_14  and  C8_15 
ROOT
HETATM    1  N2  UNL     1      26.811   1.922  52.038  1.00  0.00    -0.237 N 
HETATM    2  C6  UNL     1      25.575   2.591  51.874  1.00  0.00     0.236 C 
HETATM    3  O3  UNL     1      24.843   3.021  52.806  1.00  0.00    -0.272 OA
HETATM    4  H8  UNL     1      27.327   1.609  51.162  1.00  0.00     0.183 HD
ENDROOT
BRANCH   1   5
HETATM    5  S1  UNL     1      27.619   1.530  53.498  1.00  0.00     0.325 S 
HETATM    6  O1  UNL     1      28.340   2.741  54.003  1.00  0.00    -0.182 OA
HETATM    7  O2  UNL     1      28.552   0.356  53.268  1.00  0.00    -0.182 OA
BRANCH   5   8
HETATM    8  N1  UNL     1      26.524   1.035  54.733  1.00  0.00    -0.278 N 
HETATM    9  H7  UNL     1      26.165   1.457  55.623  1.00  0.00     0.179 HD
BRANCH   8  10
HETATM   10  C5  UNL     1      26.028  -0.260  54.410  1.00  0.00     0.103 C 
HETATM   11  C4  UNL     1      24.734  -0.155  54.153  1.00  0.00     0.041 C 
BRANCH  11  12
HETATM   12  C3  UNL     1      23.431  -0.655  53.792  1.00  0.00     0.031 C 
HETATM   13  C2  UNL     1      22.272  -1.053  53.321  1.00  0.00    -0.007 C 
HETATM   14  C1  UNL     1      21.388  -1.763  54.301  1.00  0.00     0.038 C 
HETATM   15 CL1  UNL     1      23.124  -1.285  55.402  1.00  0.00    -0.085 Cl
ENDBRANCH  11  12
ENDBRANCH   8  10
ENDBRANCH   5   8
ENDBRANCH   1   5
BRANCH   2  16
HETATM   16  C7  UNL     1      24.998   2.862  50.534  1.00  0.00     0.142 C 
BRANCH  16  17
HETATM   17  C8  UNL     1      25.698   4.024  49.913  1.00  0.00    -0.049 A 
HETATM   18  C9  UNL     1      26.900   3.802  49.246  1.00  0.00     0.011 A 
HETATM   19  C10 UNL     1      27.602   4.824  48.645  1.00  0.00     0.043 A 
HETATM   20  C11 UNL     1      27.104   6.124  48.701  1.00  0.00     0.116 A 
HETATM   21  F1  UNL     1      27.780   7.122  48.120  1.00  0.00    -0.206 F 
HETATM   22  C12 UNL     1      25.926   6.276  49.368  1.00  0.00     0.043 A 
HETATM   23  C13 UNL     1      25.164   5.314  49.993  1.00  0.00     0.011 A 
ENDBRANCH  16  17
ENDBRANCH   2  16
TORSDOF 6
ENDMDL
MODEL 3
REMARK VINA RESULT:      -6.9      3.687      5.425
REMARK  6 active torsions:
REMARK  status: ('A' for Active; 'I' for Inactive)
REMARK    1  A    between atoms: C3_3  and  C4_5 
REMARK    2  A    between atoms: C5_6  and  N1_7 
REMARK    3  A    between atoms: N1_7  and  S1_8 
REMARK    4  A    between atoms: S1_8  and  N2_11 
REMARK       I    between atoms: N2_11  and  C6_12 
REMARK    5  A    between atoms: C6_12  and  C7_14 
REMARK    6  A    between atoms: C7_14  and  C8_15 
ROOT
HETATM    1  N2  UNL     1      26.370   2.862  51.545  1.00  0.00    -0.237 N 
HETATM    2  C6  UNL     1      26.619   2.548  52.902  1.00  0.00     0.236 C 
HETATM    3  O3  UNL     1      25.752   2.507  53.817  1.00  0.00    -0.272 OA
HETATM    4  H8  UNL     1      27.197   2.863  50.876  1.00  0.00     0.183 HD
ENDROOT
BRANCH   1   5
HETATM    5  S1  UNL     1      24.875   3.257  50.804  1.00  0.00     0.325 S 
HETATM    6  O1  UNL     1      25.111   3.581  49.361  1.00  0.00    -0.182 OA
HETATM    7  O2  UNL     1      24.219   4.401  51.555  1.00  0.00    -0.182 OA
BRANCH   5   8
HETATM    8  N1  UNL     1      23.758   1.946  50.859  1.00  0.00    -0.278 N 
HETATM    9  H7  UNL     1      23.604   1.077  50.294  1.00  0.00     0.179 HD
BRANCH   8  10
HETATM   10  C5  UNL     1      22.863   2.155  51.945  1.00  0.00     0.103 C 
HETATM   11  C4  UNL     1      22.765   1.024  52.624  1.00  0.00     0.041 C 
BRANCH  11  12
HETATM   12  C3  UNL     1      22.277   0.176  53.683  1.00  0.00     0.031 C 
HETATM   13  C2  UNL     1      21.697  -0.525  54.630  1.00  0.00    -0.007 C 
HETATM   14  C1  UNL     1      22.568  -1.539  55.307  1.00  0.00     0.038 C 
HETATM   15 CL1  UNL     1      23.825  -0.631  53.875  1.00  0.00    -0.085 Cl
ENDBRANCH  11  12
ENDBRANCH   8  10
ENDBRANCH   5   8
ENDBRANCH   1   5
BRANCH   2  16
HETATM   16  C7  UNL     1      27.979   2.223  53.400  1.00  0.00     0.142 C 
BRANCH  16  17
HETATM   17  C8  UNL     1      28.201   0.750  53.322  1.00  0.00    -0.049 A 
HETATM   18  C9  UNL     1      29.441   0.240  53.697  1.00  0.00     0.011 A 
HETATM   19  C10 UNL     1      29.720  -1.109  53.655  1.00  0.00     0.043 A 
HETATM   20  C11 UNL     1      28.738  -1.999  53.226  1.00  0.00     0.116 A 
HETATM   21  F1  UNL     1      29.001  -3.310  53.183  1.00  0.00    -0.206 F 
HETATM   22  C12 UNL     1      27.548  -1.439  52.873  1.00  0.00     0.043 A 
HETATM   23  C13 UNL     1      27.188  -0.109  52.885  1.00  0.00     0.011 A 
ENDBRANCH  16  17
ENDBRANCH   2  16
TORSDOF 6
ENDMDL
MODEL 4
REMARK VINA RESULT:      -6.9      2.329      4.561
REMARK  6 active torsions:
REMARK  status: ('A' for Active; 'I' for Inactive)
REMARK    1  A    between atoms: C3_3  and  C4_5 
REMARK    2  A    between atoms: C5_6  and  N1_7 
REMARK    3  A    between atoms: N1_7  and  S1_8 
REMARK    4  A    between atoms: S1_8  and  N2_11 
REMARK       I    between atoms: N2_11  and  C6_12 
REMARK    5  A    between atoms: C6_12  and  C7_14 
REMARK    6  A    between atoms: C7_14  and  C8_15 
ROOT
HETATM    1  N2  UNL     1      26.769   0.921  54.569  1.00  0.00    -0.237 N 
HETATM    2  C6  UNL     1      26.179  -0.355  54.412  1.00  0.00     0.236 C 
HETATM    3  O3  UNL     1      26.523  -1.224  53.565  1.00  0.00    -0.272 OA
HETATM    4  H8  UNL     1      26.378   1.559  55.325  1.00  0.00     0.183 HD
ENDROOT
BRANCH   1   5
HETATM    5  S1  UNL     1      28.065   1.608  53.682  1.00  0.00     0.325 S 
HETATM    6  O1  UNL     1      28.889   0.509  53.085  1.00  0.00    -0.182 OA
HETATM    7  O2  UNL     1      28.878   2.517  54.584  1.00  0.00    -0.182 OA
BRANCH   5   8
HETATM    8  N1  UNL     1      27.510   2.596  52.383  1.00  0.00    -0.278 N 
HETATM    9  H7  UNL     1      27.632   3.600  52.108  1.00  0.00     0.179 HD
BRANCH   8  10
HETATM   10  C5  UNL     1      26.701   1.803  51.521  1.00  0.00     0.103 C 
HETATM   11  C4  UNL     1      25.641   2.516  51.178  1.00  0.00     0.041 C 
BRANCH  11  12
HETATM   12  C3  UNL     1      24.390   2.752  50.500  1.00  0.00     0.031 C 
HETATM   13  C2  UNL     1      23.189   2.865  49.982  1.00  0.00    -0.007 C 
HETATM   14  C1  UNL     1      23.070   3.819  48.833  1.00  0.00     0.038 C 
HETATM   15 CL1  UNL     1      25.105   3.906  49.386  1.00  0.00    -0.085 Cl
ENDBRANCH  11  12
ENDBRANCH   8  10
ENDBRANCH   5   8
ENDBRANCH   1   5
BRANCH   2  16
HETATM   16  C7  UNL     1      25.053  -0.814  55.263  1.00  0.00     0.142 C 
BRANCH  16  17
HETATM   17  C8  UNL     1      23.771  -0.676  54.513  1.00  0.00    -0.049 A 
HETATM   18  C9  UNL     1      22.632  -1.299  55.014  1.00  0.00     0.011 A 
HETATM   19  C10 UNL     1      21.412  -1.214  54.379  1.00  0.00     0.043 A 
HETATM   20  C11 UNL     1      21.303  -0.484  53.197  1.00  0.00     0.116 A 
HETATM   21  F1  UNL     1      20.122  -0.397  52.574  1.00  0.00    -0.206 F 
HETATM   22  C12 UNL     1      22.452   0.100  52.758  1.00  0.00     0.043 A 
HETATM   23  C13 UNL     1      23.706   0.065  53.329  1.00  0.00     0.011 A 
ENDBRANCH  16  17
ENDBRANCH   2  16
TORSDOF 6
ENDMDL
MODEL 5
REMARK VINA RESULT:      -6.9      4.933      7.513
REMARK  6 active torsions:
REMARK  status: ('A' for Active; 'I' for Inactive)
REMARK    1  A    between atoms: C3_3  and  C4_5 
REMARK    2  A    between atoms: C5_6  and  N1_7 
REMARK    3  A    between atoms: N1_7  and  S1_8 
REMARK    4  A    between atoms: S1_8  and  N2_11 
REMARK       I    between atoms: N2_11  and  C6_12 
REMARK    5  A    between atoms: C6_12  and  C7_14 
REMARK    6  A    between atoms: C7_14  and  C8_15 
ROOT
HETATM    1  N2  UNL     1      25.214   2.916  52.278  1.00  0.00    -0.237 N 
HETATM    2  C6  UNL     1      26.539   2.428  52.182  1.00  0.00     0.236 C 
HETATM    3  O3  UNL     1      27.123   2.096  51.115  1.00  0.00    -0.272 OA
HETATM    4  H8  UNL     1      24.843   3.157  53.246  1.00  0.00     0.183 HD
ENDROOT
BRANCH   1   5
HETATM    5  S1  UNL     1      24.086   3.179  51.015  1.00  0.00     0.325 S 
HETATM    6  O1  UNL     1      23.189   4.320  51.385  1.00  0.00    -0.182 OA
HETATM    7  O2  UNL     1      23.315   1.902  50.742  1.00  0.00    -0.182 OA
BRANCH   5   8
HETATM    8  N1  UNL     1      24.859   3.596  49.532  1.00  0.00    -0.278 N 
HETATM    9  H7  UNL     1      24.927   3.161  48.580  1.00  0.00     0.179 HD
BRANCH   8  10
HETATM   10  C5  UNL     1      25.553   4.827  49.710  1.00  0.00     0.103 C 
HETATM   11  C4  UNL     1      26.685   4.765  49.029  1.00  0.00     0.041 C 
BRANCH  11  12
HETATM   12  C3  UNL     1      27.944   5.272  48.541  1.00  0.00     0.031 C 
HETATM   13  C2  UNL     1      29.152   5.599  48.146  1.00  0.00    -0.007 C 
HETATM   14  C1  UNL     1      29.275   6.944  47.496  1.00  0.00     0.038 C 
HETATM   15 CL1  UNL     1      27.229   6.776  47.986  1.00  0.00    -0.085 Cl
ENDBRANCH  11  12
ENDBRANCH   8  10
ENDBRANCH   5   8
ENDBRANCH   1   5
BRANCH   2  16
HETATM   16  C7  UNL     1      27.403   2.252  53.376  1.00  0.00     0.142 C 
BRANCH  16  17
HETATM   17  C8  UNL     1      27.975   0.874  53.380  1.00  0.00    -0.049 A 
HETATM   18  C9  UNL     1      27.130  -0.201  53.121  1.00  0.00     0.011 A 
HETATM   19  C10 UNL     1      27.586  -1.502  53.104  1.00  0.00     0.043 A 
HETATM   20  C11 UNL     1      28.932  -1.760  53.352  1.00  0.00     0.116 A 
HETATM   21  F1  UNL     1      29.382  -3.020  53.338  1.00  0.00    -0.206 F 
HETATM   22  C12 UNL     1      29.706  -0.667  53.600  1.00  0.00     0.043 A 
HETATM   23  C13 UNL     1      29.333   0.658  53.635  1.00  0.00     0.011 A 
ENDBRANCH  16  17
ENDBRANCH   2  16
TORSDOF 6
ENDMDL
MODEL 6
REMARK VINA RESULT:      -6.8      2.047      2.724
REMARK  6 active torsions:
REMARK  status: ('A' for Active; 'I' for Inactive)
REMARK    1  A    between atoms: C3_3  and  C4_5 
REMARK    2  A    between atoms: C5_6  and  N1_7 
REMARK    3  A    between atoms: N1_7  and  S1_8 
REMARK    4  A    between atoms: S1_8  and  N2_11 
REMARK       I    between atoms: N2_11  and  C6_12 
REMARK    5  A    between atoms: C6_12  and  C7_14 
REMARK    6  A    between atoms: C7_14  and  C8_15 
ROOT
HETATM    1  N2  UNL     1      25.610   2.059  51.804  1.00  0.00    -0.237 N 
HETATM    2  C6  UNL     1      24.567   2.865  52.318  1.00  0.00     0.236 C 
HETATM    3  O3  UNL     1      24.434   3.213  53.523  1.00  0.00    -0.272 OA
HETATM    4  H8  UNL     1      25.599   1.838  50.763  1.00  0.00     0.183 HD
ENDROOT
BRANCH   1   5
HETATM    5  S1  UNL     1      26.929   1.363  52.649  1.00  0.00     0.325 S 
HETATM    6  O1  UNL     1      28.140   2.226  52.467  1.00  0.00    -0.182 OA
HETATM    7  O2  UNL     1      27.153  -0.058  52.168  1.00  0.00    -0.182 OA
BRANCH   5   8
HETATM    8  N1  UNL     1      26.628   1.253  54.342  1.00  0.00    -0.278 N 
HETATM    9  H7  UNL     1      26.646   1.925  55.147  1.00  0.00     0.179 HD
BRANCH   8  10
HETATM   10  C5  UNL     1      26.282  -0.092  54.657  1.00  0.00     0.103 C 
HETATM   11  C4  UNL     1      24.963  -0.184  54.680  1.00  0.00     0.041 C 
BRANCH  11  12
HETATM   12  C3  UNL     1      23.705  -0.872  54.841  1.00  0.00     0.031 C 
HETATM   13  C2  UNL     1      22.603  -1.521  55.136  1.00  0.00    -0.007 C 
HETATM   14  C1  UNL     1      21.625  -1.673  54.011  1.00  0.00     0.038 C 
HETATM   15 CL1  UNL     1      23.236  -0.599  53.172  1.00  0.00    -0.085 Cl
ENDBRANCH  11  12
ENDBRANCH   8  10
ENDBRANCH   5   8
ENDBRANCH   1   5
BRANCH   2  16
HETATM   16  C7  UNL     1      23.484   3.399  51.455  1.00  0.00     0.142 C 
BRANCH  16  17
HETATM   17  C8  UNL     1      22.370   2.409  51.382  1.00  0.00    -0.049 A 
HETATM   18  C9  UNL     1      21.388   2.433  52.369  1.00  0.00     0.011 A 
HETATM   19  C10 UNL     1      20.327   1.553  52.366  1.00  0.00     0.043 A 
HETATM   20  C11 UNL     1      20.224   0.607  51.349  1.00  0.00     0.116 A 
HETATM   21  F1  UNL     1      19.197  -0.251  51.339  1.00  0.00    -0.206 F 
HETATM   22  C12 UNL     1      21.215   0.634  50.415  1.00  0.00     0.043 A 
HETATM   23  C13 UNL     1      22.304   1.474  50.344  1.00  0.00     0.011 A 
ENDBRANCH  16  17
ENDBRANCH   2  16
TORSDOF 6
ENDMDL
MODEL 7
REMARK VINA RESULT:      -6.8      4.585      7.033
REMARK  6 active torsions:
REMARK  status: ('A' for Active; 'I' for Inactive)
REMARK    1  A    between atoms: C3_3  and  C4_5 
REMARK    2  A    between atoms: C5_6  and  N1_7 
REMARK    3  A    between atoms: N1_7  and  S1_8 
REMARK    4  A    between atoms: S1_8  and  N2_11 
REMARK       I    between atoms: N2_11  and  C6_12 
REMARK    5  A    between atoms: C6_12  and  C7_14 
REMARK    6  A    between atoms: C7_14  and  C8_15 
ROOT
HETATM    1  N2  UNL     1      24.012   1.741  53.077  1.00  0.00    -0.237 N 
HETATM    2  C6  UNL     1      23.614   0.388  53.187  1.00  0.00     0.236 C 
HETATM    3  O3  UNL     1      22.720  -0.173  52.497  1.00  0.00    -0.272 OA
HETATM    4  H8  UNL     1      24.780   2.087  53.727  1.00  0.00     0.183 HD
ENDROOT
BRANCH   1   5
HETATM    5  S1  UNL     1      23.409   2.941  52.011  1.00  0.00     0.325 S 
HETATM    6  O1  UNL     1      23.832   4.292  52.500  1.00  0.00    -0.182 OA
HETATM    7  O2  UNL     1      21.902   2.813  51.896  1.00  0.00    -0.182 OA
BRANCH   5   8
HETATM    8  N1  UNL     1      24.028   2.758  50.413  1.00  0.00    -0.278 N 
HETATM    9  H7  UNL     1      24.202   1.947  49.771  1.00  0.00     0.179 HD
BRANCH   8  10
HETATM   10  C5  UNL     1      24.367   4.044  49.905  1.00  0.00     0.103 C 
HETATM   11  C4  UNL     1      25.639   4.024  49.544  1.00  0.00     0.041 C 
BRANCH  11  12
HETATM   12  C3  UNL     1      26.854   4.590  49.012  1.00  0.00     0.031 C 
HETATM   13  C2  UNL     1      28.022   4.963  48.543  1.00  0.00    -0.007 C 
HETATM   14  C1  UNL     1      28.126   6.405  48.148  1.00  0.00     0.038 C 
HETATM   15 CL1  UNL     1      26.145   6.187  48.842  1.00  0.00    -0.085 Cl
ENDBRANCH  11  12
ENDBRANCH   8  10
ENDBRANCH   5   8
ENDBRANCH   1   5
BRANCH   2  16
HETATM   16  C7  UNL     1      24.233  -0.539  54.167  1.00  0.00     0.142 C 
BRANCH  16  17
HETATM   17  C8  UNL     1      25.719  -0.474  54.046  1.00  0.00    -0.049 A 
HETATM   18  C9  UNL     1      26.330  -1.105  52.966  1.00  0.00     0.011 A 
HETATM   19  C10 UNL     1      27.696  -1.085  52.784  1.00  0.00     0.043 A 
HETATM   20  C11 UNL     1      28.501  -0.416  53.705  1.00  0.00     0.116 A 
HETATM   21  F1  UNL     1      29.827  -0.392  53.536  1.00  0.00    -0.206 F 
HETATM   22  C12 UNL     1      27.844   0.179  54.738  1.00  0.00     0.043 A 
HETATM   23  C13 UNL     1      26.490   0.208  54.993  1.00  0.00     0.011 A 
ENDBRANCH  16  17
ENDBRANCH   2  16
TORSDOF 6
ENDMDL
MODEL 8
REMARK VINA RESULT:      -6.7      3.997      5.381
REMARK  6 active torsions:
REMARK  status: ('A' for Active; 'I' for Inactive)
REMARK    1  A    between atoms: C3_3  and  C4_5 
REMARK    2  A    between atoms: C5_6  and  N1_7 
REMARK    3  A    between atoms: N1_7  and  S1_8 
REMARK    4  A    between atoms: S1_8  and  N2_11 
REMARK       I    between atoms: N2_11  and  C6_12 
REMARK    5  A    between atoms: C6_12  and  C7_14 
REMARK    6  A    between atoms: C7_14  and  C8_15 
ROOT
HETATM    1  N2  UNL     1      23.532   3.029  50.411  1.00  0.00    -0.237 N 
HETATM    2  C6  UNL     1      22.564   2.689  51.385  1.00  0.00     0.236 C 
HETATM    3  O3  UNL     1      22.239   3.398  52.376  1.00  0.00    -0.272 OA
HETATM    4  H8  UNL     1      23.711   2.335  49.625  1.00  0.00     0.183 HD
ENDROOT
BRANCH   1   5
HETATM    5  S1  UNL     1      24.489   4.448  50.317  1.00  0.00     0.325 S 
HETATM    6  O1  UNL     1      24.025   5.426  51.352  1.00  0.00    -0.182 OA
HETATM    7  O2  UNL     1      24.423   5.017  48.912  1.00  0.00    -0.182 OA
BRANCH   5   8
HETATM    8  N1  UNL     1      26.154   4.128  50.625  1.00  0.00    -0.278 N 
HETATM    9  H7  UNL     1      26.989   4.709  50.882  1.00  0.00     0.179 HD
BRANCH   8  10
HETATM   10  C5  UNL     1      26.385   2.731  50.476  1.00  0.00     0.103 C 
HETATM   11  C4  UNL     1      26.746   2.245  51.653  1.00  0.00     0.041 C 
BRANCH  11  12
HETATM   12  C3  UNL     1      27.150   1.205  52.566  1.00  0.00     0.031 C 
HETATM   13  C2  UNL     1      27.584   0.189  53.276  1.00  0.00    -0.007 C 
HETATM   14  C1  UNL     1      27.248   0.232  54.736  1.00  0.00     0.038 C 
HETATM   15 CL1  UNL     1      26.401   1.996  53.943  1.00  0.00    -0.085 Cl
ENDBRANCH  11  12
ENDBRANCH   8  10
ENDBRANCH   5   8
ENDBRANCH   1   5
BRANCH   2  16
HETATM   16  C7  UNL     1      21.808   1.412  51.334  1.00  0.00     0.142 C 
BRANCH  16  17
HETATM   17  C8  UNL     1      22.111   0.604  52.551  1.00  0.00    -0.049 A 
HETATM   18  C9  UNL     1      23.420   0.181  52.764  1.00  0.00     0.011 A 
HETATM   19  C10 UNL     1      23.776  -0.566  53.866  1.00  0.00     0.043 A 
HETATM   20  C11 UNL     1      22.805  -0.915  54.802  1.00  0.00     0.116 A 
HETATM   21  F1  UNL     1      23.143  -1.640  55.874  1.00  0.00    -0.206 F 
HETATM   22  C12 UNL     1      21.545  -0.473  54.536  1.00  0.00     0.043 A 
HETATM   23  C13 UNL     1      21.105   0.274  53.465  1.00  0.00     0.011 A 
ENDBRANCH  16  17
ENDBRANCH   2  16
TORSDOF 6
ENDMDL
MODEL 9
REMARK VINA RESULT:      -6.3      4.924      7.311
REMARK  6 active torsions:
REMARK  status: ('A' for Active; 'I' for Inactive)
REMARK    1  A    between atoms: C3_3  and  C4_5 
REMARK    2  A    between atoms: C5_6  and  N1_7 
REMARK    3  A    between atoms: N1_7  and  S1_8 
REMARK    4  A    between atoms: S1_8  and  N2_11 
REMARK       I    between atoms: N2_11  and  C6_12 
REMARK    5  A    between atoms: C6_12  and  C7_14 
REMARK    6  A    between atoms: C7_14  and  C8_15 
ROOT
HETATM    1  N2  UNL     1      23.429   3.292  52.482  1.00  0.00    -0.237 N 
HETATM    2  C6  UNL     1      23.565   1.921  52.157  1.00  0.00     0.236 C 
HETATM    3  O3  UNL     1      23.493   1.431  50.997  1.00  0.00    -0.272 OA
HETATM    4  H8  UNL     1      23.510   3.569  53.506  1.00  0.00     0.183 HD
ENDROOT
BRANCH   1   5
HETATM    5  S1  UNL     1      23.140   4.610  51.425  1.00  0.00     0.325 S 
HETATM    6  O1  UNL     1      23.743   5.850  52.008  1.00  0.00    -0.182 OA
HETATM    7  O2  UNL     1      21.650   4.751  51.179  1.00  0.00    -0.182 OA
BRANCH   5   8
HETATM    8  N1  UNL     1      23.858   4.369  49.877  1.00  0.00    -0.278 N 
HETATM    9  H7  UNL     1      23.497   4.209  48.906  1.00  0.00     0.179 HD
BRANCH   8  10
HETATM   10  C5  UNL     1      25.274   4.402  50.022  1.00  0.00     0.103 C 
HETATM   11  C4  UNL     1      25.749   5.341  49.220  1.00  0.00     0.041 C 
BRANCH  11  12
HETATM   12  C3  UNL     1      26.788   6.139  48.617  1.00  0.00     0.031 C 
HETATM   13  C2  UNL     1      27.631   6.984  48.071  1.00  0.00    -0.007 C 
HETATM   14  C1  UNL     1      28.983   6.425  47.746  1.00  0.00     0.038 C 
HETATM   15 CL1  UNL     1      27.928   4.805  48.591  1.00  0.00    -0.085 Cl
ENDBRANCH  11  12
ENDBRANCH   8  10
ENDBRANCH   5   8
ENDBRANCH   1   5
BRANCH   2  16
HETATM   16  C7  UNL     1      23.816   0.886  53.191  1.00  0.00     0.142 C 
BRANCH  16  17
HETATM   17  C8  UNL     1      25.259   0.506  53.177  1.00  0.00    -0.049 A 
HETATM   18  C9  UNL     1      26.215   1.504  53.346  1.00  0.00     0.011 A 
HETATM   19  C10 UNL     1      27.566   1.230  53.348  1.00  0.00     0.043 A 
HETATM   20  C11 UNL     1      27.999  -0.083  53.178  1.00  0.00     0.116 A 
HETATM   21  F1  UNL     1      29.309  -0.357  53.179  1.00  0.00    -0.206 F 
HETATM   22  C12 UNL     1      27.016  -1.012  53.017  1.00  0.00     0.043 A 
HETATM   23  C13 UNL     1      25.652  -0.824  53.002  1.00  0.00     0.011 A 
ENDBRANCH  16  17
ENDBRANCH   2  16
TORSDOF 6
ENDMDL
