MODEL 1
REMARK VINA RESULT:      -7.4      0.000      0.000
REMARK  7 active torsions:
REMARK  status: ('A' for Active; 'I' for Inactive)
REMARK    1  A    between atoms: C2_2  and  C3_3 
REMARK    2  A    between atoms: C4_4  and  C5_5 
REMARK    3  A    between atoms: C5_5  and  N1_7 
REMARK    4  A    between atoms: N1_7  and  C7_8 
REMARK    5  A    between atoms: C15_18  and  C16_19 
REMARK    6  A    between atoms: C16_19  and  O1_20 
REMARK    7  A    between atoms: O1_20  and  C17_21 
ROOT
HETATM    1  C7  UNL     1      23.635  -0.203  53.453  1.00  0.00     0.134 A 
HETATM    2  N2  UNL     1      23.600  -0.973  54.556  1.00  0.00    -0.224 NA
HETATM    3  C8  UNL     1      24.644  -1.180  55.376  1.00  0.00     0.235 A 
HETATM    4  N3  UNL     1      25.811  -0.580  55.084  1.00  0.00    -0.241 NA
HETATM    5  C9  UNL     1      25.867   0.190  53.991  1.00  0.00     0.076 A 
HETATM    6  C10 UNL     1      24.833   0.439  53.115  1.00  0.00     0.020 A 
HETATM    7  C11 UNL     1      24.588   1.196  51.891  1.00  0.00     0.072 A 
HETATM    8  C12 UNL     1      25.765   2.010  51.534  1.00  0.00    -0.022 A 
HETATM    9  C13 UNL     1      27.019   2.272  51.859  1.00  0.00    -0.003 A 
HETATM   10  C14 UNL     1      27.674   1.599  52.972  1.00  0.00     0.011 A 
HETATM   11  C15 UNL     1      27.212   0.735  53.862  1.00  0.00    -0.005 A 
ENDROOT
BRANCH   1  12
HETATM   12  N1  UNL     1      22.390  -0.132  52.725  1.00  0.00    -0.367 N 
HETATM   13  H10 UNL     1      22.341  -0.628  51.808  1.00  0.00     0.161 HD
BRANCH  12  14
HETATM   14  C5  UNL     1      21.230   0.591  53.209  1.00  0.00     0.102 C 
HETATM   15  C6  UNL     1      21.131   1.991  52.613  1.00  0.00     0.036 C 
BRANCH  14  16
HETATM   16  C4  UNL     1      20.006  -0.145  52.801  1.00  0.00    -0.002 C 
HETATM   17  C3  UNL     1      19.230  -0.846  53.615  1.00  0.00    -0.003 C 
BRANCH  17  18
HETATM   18  C2  UNL     1      18.026  -1.569  53.216  1.00  0.00    -0.010 C 
HETATM   19  C1  UNL     1      17.795  -2.801  53.609  1.00  0.00     0.011 C 
ENDBRANCH  17  18
ENDBRANCH  14  16
ENDBRANCH  12  14
ENDBRANCH   1  12
BRANCH  11  20
HETATM   20  C16 UNL     1      28.193   0.254  54.868  1.00  0.00     0.209 C 
BRANCH  20  21
HETATM   21  O1  UNL     1      29.331  -0.185  54.146  1.00  0.00    -0.379 OA
BRANCH  21  22
HETATM   22  C17 UNL     1      29.450  -1.404  53.529  1.00  0.00     0.150 C 
HETATM   23  C18 UNL     1      28.946  -2.549  53.127  1.00  0.00     0.037 C 
ENDBRANCH  21  22
ENDBRANCH  20  21
ENDBRANCH  11  20
TORSDOF 7
ENDMDL
MODEL 2
REMARK VINA RESULT:      -7.1      2.058      3.152
REMARK  7 active torsions:
REMARK  status: ('A' for Active; 'I' for Inactive)
REMARK    1  A    between atoms: C2_2  and  C3_3 
REMARK    2  A    between atoms: C4_4  and  C5_5 
REMARK    3  A    between atoms: C5_5  and  N1_7 
REMARK    4  A    between atoms: N1_7  and  C7_8 
REMARK    5  A    between atoms: C15_18  and  C16_19 
REMARK    6  A    between atoms: C16_19  and  O1_20 
REMARK    7  A    between atoms: O1_20  and  C17_21 
ROOT
HETATM    1  C7  UNL     1      22.453   1.115  53.044  1.00  0.00     0.134 A 
HETATM    2  N2  UNL     1      22.164   0.099  53.878  1.00  0.00    -0.224 NA
HETATM    3  C8  UNL     1      23.046  -0.831  54.282  1.00  0.00     0.235 A 
HETATM    4  N3  UNL     1      24.309  -0.749  53.830  1.00  0.00    -0.241 NA
HETATM    5  C9  UNL     1      24.616   0.255  53.000  1.00  0.00     0.076 A 
HETATM    6  C10 UNL     1      23.758   1.235  52.551  1.00  0.00     0.020 A 
HETATM    7  C11 UNL     1      23.788   2.409  51.684  1.00  0.00     0.072 A 
HETATM    8  C12 UNL     1      25.160   2.686  51.223  1.00  0.00    -0.022 A 
HETATM    9  C13 UNL     1      26.400   2.228  51.230  1.00  0.00    -0.003 A 
HETATM   10  C14 UNL     1      26.749   0.981  51.898  1.00  0.00     0.011 A 
HETATM   11  C15 UNL     1      26.023   0.155  52.633  1.00  0.00    -0.005 A 
ENDROOT
BRANCH   1  12
HETATM   12  N1  UNL     1      21.342   1.989  52.747  1.00  0.00    -0.367 N 
HETATM   13  H10 UNL     1      21.379   2.960  53.128  1.00  0.00     0.161 HD
BRANCH  12  14
HETATM   14  C5  UNL     1      20.199   1.576  51.957  1.00  0.00     0.102 C 
HETATM   15  C6  UNL     1      19.229   2.724  51.699  1.00  0.00     0.036 C 
BRANCH  14  16
HETATM   16  C4  UNL     1      20.679   1.104  50.634  1.00  0.00    -0.002 C 
HETATM   17  C3  UNL     1      21.035   1.889  49.626  1.00  0.00    -0.003 C 
BRANCH  17  18
HETATM   18  C2  UNL     1      21.507   1.428  48.324  1.00  0.00    -0.010 C 
HETATM   19  C1  UNL     1      22.461   2.050  47.672  1.00  0.00     0.011 C 
ENDBRANCH  17  18
ENDBRANCH  14  16
ENDBRANCH  12  14
ENDBRANCH   1  12
BRANCH  11  20
HETATM   20  C16 UNL     1      26.733  -1.040  53.158  1.00  0.00     0.209 C 
BRANCH  20  21
HETATM   21  O1  UNL     1      27.566  -0.584  54.212  1.00  0.00    -0.379 OA
BRANCH  21  22
HETATM   22  C17 UNL     1      28.936  -0.532  54.166  1.00  0.00     0.150 C 
HETATM   23  C18 UNL     1      30.073  -0.622  53.515  1.00  0.00     0.037 C 
ENDBRANCH  21  22
ENDBRANCH  20  21
ENDBRANCH  11  20
TORSDOF 7
ENDMDL
MODEL 3
REMARK VINA RESULT:      -7.0      2.980      7.276
REMARK  7 active torsions:
REMARK  status: ('A' for Active; 'I' for Inactive)
REMARK    1  A    between atoms: C2_2  and  C3_3 
REMARK    2  A    between atoms: C4_4  and  C5_5 
REMARK    3  A    between atoms: C5_5  and  N1_7 
REMARK    4  A    between atoms: N1_7  and  C7_8 
REMARK    5  A    between atoms: C15_18  and  C16_19 
REMARK    6  A    between atoms: C16_19  and  O1_20 
REMARK    7  A    between atoms: O1_20  and  C17_21 
ROOT
HETATM    1  C7  UNL     1      24.965   1.982  53.039  1.00  0.00     0.134 A 
HETATM    2  N2  UNL     1      24.923   3.177  52.423  1.00  0.00    -0.224 NA
HETATM    3  C8  UNL     1      23.869   3.642  51.730  1.00  0.00     0.235 A 
HETATM    4  N3  UNL     1      22.775   2.867  51.640  1.00  0.00    -0.241 NA
HETATM    5  C9  UNL     1      22.797   1.674  52.246  1.00  0.00     0.076 A 
HETATM    6  C10 UNL     1      23.844   1.145  52.968  1.00  0.00     0.020 A 
HETATM    7  C11 UNL     1      24.162  -0.069  53.714  1.00  0.00     0.072 A 
HETATM    8  C12 UNL     1      22.985  -0.954  53.801  1.00  0.00    -0.022 A 
HETATM    9  C13 UNL     1      21.739  -1.114  53.392  1.00  0.00    -0.003 A 
HETATM   10  C14 UNL     1      21.099  -0.153  52.505  1.00  0.00     0.011 A 
HETATM   11  C15 UNL     1      21.523   1.004  52.022  1.00  0.00    -0.005 A 
ENDROOT
BRANCH   1  12
HETATM   12  N1  UNL     1      26.205   1.695  53.720  1.00  0.00    -0.367 N 
HETATM   13  H10 UNL     1      26.167   1.571  54.756  1.00  0.00     0.161 HD
BRANCH  12  14
HETATM   14  C5  UNL     1      27.477   1.577  53.033  1.00  0.00     0.102 C 
HETATM   15  C6  UNL     1      28.542   2.493  53.628  1.00  0.00     0.036 C 
BRANCH  14  16
HETATM   16  C4  UNL     1      27.969   0.184  53.177  1.00  0.00    -0.002 C 
HETATM   17  C3  UNL     1      29.209  -0.158  53.500  1.00  0.00    -0.003 C 
BRANCH  17  18
HETATM   18  C2  UNL     1      29.695  -1.527  53.642  1.00  0.00    -0.010 C 
HETATM   19  C1  UNL     1      29.017  -2.555  53.187  1.00  0.00     0.011 C 
ENDBRANCH  17  18
ENDBRANCH  14  16
ENDBRANCH  12  14
ENDBRANCH   1  12
BRANCH  11  20
HETATM   20  C16 UNL     1      20.575   1.721  51.131  1.00  0.00     0.209 C 
BRANCH  20  21
HETATM   21  O1  UNL     1      20.489   0.961  49.937  1.00  0.00    -0.379 OA
BRANCH  21  22
HETATM   22  C17 UNL     1      21.315   1.105  48.851  1.00  0.00     0.150 C 
HETATM   23  C18 UNL     1      22.150   1.809  48.121  1.00  0.00     0.037 C 
ENDBRANCH  21  22
ENDBRANCH  20  21
ENDBRANCH  11  20
TORSDOF 7
ENDMDL
MODEL 4
REMARK VINA RESULT:      -6.9      2.908      7.633
REMARK  7 active torsions:
REMARK  status: ('A' for Active; 'I' for Inactive)
REMARK    1  A    between atoms: C2_2  and  C3_3 
REMARK    2  A    between atoms: C4_4  and  C5_5 
REMARK    3  A    between atoms: C5_5  and  N1_7 
REMARK    4  A    between atoms: N1_7  and  C7_8 
REMARK    5  A    between atoms: C15_18  and  C16_19 
REMARK    6  A    between atoms: C16_19  and  O1_20 
REMARK    7  A    between atoms: O1_20  and  C17_21 
ROOT
HETATM    1  C7  UNL     1      23.618   1.735  52.480  1.00  0.00     0.134 A 
HETATM    2  N2  UNL     1      22.990   2.613  51.676  1.00  0.00    -0.224 NA
HETATM    3  C8  UNL     1      21.680   2.576  51.381  1.00  0.00     0.235 A 
HETATM    4  N3  UNL     1      20.934   1.598  51.923  1.00  0.00    -0.241 NA
HETATM    5  C9  UNL     1      21.539   0.715  52.725  1.00  0.00     0.076 A 
HETATM    6  C10 UNL     1      22.875   0.701  53.063  1.00  0.00     0.020 A 
HETATM    7  C11 UNL     1      23.795  -0.089  53.875  1.00  0.00     0.072 A 
HETATM    8  C12 UNL     1      23.068  -1.125  54.632  1.00  0.00    -0.022 A 
HETATM    9  C13 UNL     1      21.883  -1.682  54.810  1.00  0.00    -0.003 A 
HETATM   10  C14 UNL     1      20.714  -1.240  54.062  1.00  0.00     0.011 A 
HETATM   11  C15 UNL     1      20.556  -0.251  53.197  1.00  0.00    -0.005 A 
ENDROOT
BRANCH   1  12
HETATM   12  N1  UNL     1      25.032   1.973  52.648  1.00  0.00    -0.367 N 
HETATM   13  H10 UNL     1      25.339   2.449  53.524  1.00  0.00     0.161 HD
BRANCH  12  14
HETATM   14  C5  UNL     1      26.023   1.583  51.663  1.00  0.00     0.102 C 
HETATM   15  C6  UNL     1      26.599   2.782  50.917  1.00  0.00     0.036 C 
BRANCH  14  16
HETATM   16  C4  UNL     1      27.153   0.919  52.361  1.00  0.00    -0.002 C 
HETATM   17  C3  UNL     1      27.249  -0.383  52.590  1.00  0.00    -0.003 C 
BRANCH  17  18
HETATM   18  C2  UNL     1      28.359  -1.038  53.276  1.00  0.00    -0.010 C 
HETATM   19  C1  UNL     1      29.473  -0.403  53.558  1.00  0.00     0.011 C 
ENDBRANCH  17  18
ENDBRANCH  14  16
ENDBRANCH  12  14
ENDBRANCH   1  12
BRANCH  11  20
HETATM   20  C16 UNL     1      19.193  -0.102  52.625  1.00  0.00     0.209 C 
BRANCH  20  21
HETATM   21  O1  UNL     1      18.382  -1.083  53.251  1.00  0.00    -0.379 OA
BRANCH  21  22
HETATM   22  C17 UNL     1      17.137  -1.467  52.821  1.00  0.00     0.150 C 
HETATM   23  C18 UNL     1      16.064  -1.287  52.086  1.00  0.00     0.037 C 
ENDBRANCH  21  22
ENDBRANCH  20  21
ENDBRANCH  11  20
TORSDOF 7
ENDMDL
MODEL 5
REMARK VINA RESULT:      -6.9      1.737      3.171
REMARK  7 active torsions:
REMARK  status: ('A' for Active; 'I' for Inactive)
REMARK    1  A    between atoms: C2_2  and  C3_3 
REMARK    2  A    between atoms: C4_4  and  C5_5 
REMARK    3  A    between atoms: C5_5  and  N1_7 
REMARK    4  A    between atoms: N1_7  and  C7_8 
REMARK    5  A    between atoms: C15_18  and  C16_19 
REMARK    6  A    between atoms: C16_19  and  O1_20 
REMARK    7  A    between atoms: O1_20  and  C17_21 
ROOT
HETATM    1  C7  UNL     1      22.464   1.576  52.187  1.00  0.00     0.134 A 
HETATM    2  N2  UNL     1      23.275   2.293  51.389  1.00  0.00    -0.224 NA
HETATM    3  C8  UNL     1      24.618   2.267  51.444  1.00  0.00     0.235 A 
HETATM    4  N3  UNL     1      25.202   1.471  52.356  1.00  0.00    -0.241 NA
HETATM    5  C9  UNL     1      24.412   0.750  53.159  1.00  0.00     0.076 A 
HETATM    6  C10 UNL     1      23.035   0.734  53.151  1.00  0.00     0.020 A 
HETATM    7  C11 UNL     1      21.939   0.086  53.864  1.00  0.00     0.072 A 
HETATM    8  C12 UNL     1      22.452  -0.919  54.813  1.00  0.00    -0.022 A 
HETATM    9  C13 UNL     1      23.555  -1.424  55.338  1.00  0.00    -0.003 A 
HETATM   10  C14 UNL     1      24.873  -0.931  54.963  1.00  0.00     0.011 A 
HETATM   11  C15 UNL     1      25.244  -0.033  54.064  1.00  0.00    -0.005 A 
ENDROOT
BRANCH   1  12
HETATM   12  N1  UNL     1      21.053   1.769  51.947  1.00  0.00    -0.367 N 
HETATM   13  H10 UNL     1      20.496   2.226  52.702  1.00  0.00     0.161 HD
BRANCH  12  14
HETATM   14  C5  UNL     1      20.395   1.358  50.722  1.00  0.00     0.102 C 
HETATM   15  C6  UNL     1      21.371   0.767  49.712  1.00  0.00     0.036 C 
BRANCH  14  16
HETATM   16  C4  UNL     1      19.405   0.299  51.045  1.00  0.00    -0.002 C 
HETATM   17  C3  UNL     1      18.731   0.206  52.182  1.00  0.00    -0.003 C 
BRANCH  17  18
HETATM   18  C2  UNL     1      17.757  -0.834  52.501  1.00  0.00    -0.010 C 
HETATM   19  C1  UNL     1      18.015  -1.783  53.373  1.00  0.00     0.011 C 
ENDBRANCH  17  18
ENDBRANCH  14  16
ENDBRANCH  12  14
ENDBRANCH   1  12
BRANCH  11  20
HETATM   20  C16 UNL     1      26.705   0.215  53.960  1.00  0.00     0.209 C 
BRANCH  20  21
HETATM   21  O1  UNL     1      27.307  -1.035  53.666  1.00  0.00    -0.379 OA
BRANCH  21  22
HETATM   22  C17 UNL     1      28.647  -1.231  53.445  1.00  0.00     0.150 C 
HETATM   23  C18 UNL     1      29.897  -0.836  53.512  1.00  0.00     0.037 C 
ENDBRANCH  21  22
ENDBRANCH  20  21
ENDBRANCH  11  20
TORSDOF 7
ENDMDL
MODEL 6
REMARK VINA RESULT:      -6.7      3.976      7.650
REMARK  7 active torsions:
REMARK  status: ('A' for Active; 'I' for Inactive)
REMARK    1  A    between atoms: C2_2  and  C3_3 
REMARK    2  A    between atoms: C4_4  and  C5_5 
REMARK    3  A    between atoms: C5_5  and  N1_7 
REMARK    4  A    between atoms: N1_7  and  C7_8 
REMARK    5  A    between atoms: C15_18  and  C16_19 
REMARK    6  A    between atoms: C16_19  and  O1_20 
REMARK    7  A    between atoms: O1_20  and  C17_21 
ROOT
HETATM    1  C7  UNL     1      24.713   4.555  50.928  1.00  0.00     0.134 A 
HETATM    2  N2  UNL     1      23.498   5.099  51.126  1.00  0.00    -0.224 NA
HETATM    3  C8  UNL     1      22.460   4.460  51.693  1.00  0.00     0.235 A 
HETATM    4  N3  UNL     1      22.637   3.190  52.094  1.00  0.00    -0.241 NA
HETATM    5  C9  UNL     1      23.838   2.631  51.906  1.00  0.00     0.076 A 
HETATM    6  C10 UNL     1      24.937   3.233  51.332  1.00  0.00     0.020 A 
HETATM    7  C11 UNL     1      26.320   2.907  51.002  1.00  0.00     0.072 A 
HETATM    8  C12 UNL     1      26.681   1.572  51.514  1.00  0.00    -0.022 A 
HETATM    9  C13 UNL     1      26.203   0.493  52.108  1.00  0.00    -0.003 A 
HETATM   10  C14 UNL     1      24.799   0.389  52.484  1.00  0.00     0.011 A 
HETATM   11  C15 UNL     1      23.809   1.263  52.407  1.00  0.00    -0.005 A 
ENDROOT
BRANCH   1  12
HETATM   12  N1  UNL     1      25.672   5.431  50.297  1.00  0.00    -0.367 N 
HETATM   13  H10 UNL     1      26.378   5.893  50.912  1.00  0.00     0.161 HD
BRANCH  12  14
HETATM   14  C5  UNL     1      25.690   5.690  48.871  1.00  0.00     0.102 C 
HETATM   15  C6  UNL     1      24.810   6.875  48.487  1.00  0.00     0.036 C 
BRANCH  14  16
HETATM   16  C4  UNL     1      27.078   6.027  48.465  1.00  0.00    -0.002 C 
HETATM   17  C3  UNL     1      28.112   5.199  48.522  1.00  0.00    -0.003 C 
BRANCH  17  18
HETATM   18  C2  UNL     1      29.478   5.529  48.124  1.00  0.00    -0.010 C 
HETATM   19  C1  UNL     1      29.789   6.698  47.613  1.00  0.00     0.011 C 
ENDBRANCH  17  18
ENDBRANCH  14  16
ENDBRANCH  12  14
ENDBRANCH   1  12
BRANCH  11  20
HETATM   20  C16 UNL     1      22.488   0.792  52.895  1.00  0.00     0.209 C 
BRANCH  20  21
HETATM   21  O1  UNL     1      22.642  -0.580  53.218  1.00  0.00    -0.379 OA
BRANCH  21  22
HETATM   22  C17 UNL     1      22.578  -1.103  54.484  1.00  0.00     0.150 C 
HETATM   23  C18 UNL     1      23.145  -1.483  55.606  1.00  0.00     0.037 C 
ENDBRANCH  21  22
ENDBRANCH  20  21
ENDBRANCH  11  20
TORSDOF 7
ENDMDL
MODEL 7
REMARK VINA RESULT:      -6.7      3.370      5.394
REMARK  7 active torsions:
REMARK  status: ('A' for Active; 'I' for Inactive)
REMARK    1  A    between atoms: C2_2  and  C3_3 
REMARK    2  A    between atoms: C4_4  and  C5_5 
REMARK    3  A    between atoms: C5_5  and  N1_7 
REMARK    4  A    between atoms: N1_7  and  C7_8 
REMARK    5  A    between atoms: C15_18  and  C16_19 
REMARK    6  A    between atoms: C16_19  and  O1_20 
REMARK    7  A    between atoms: O1_20  and  C17_21 
ROOT
HETATM    1  C7  UNL     1      24.002   2.290  50.981  1.00  0.00     0.134 A 
HETATM    2  N2  UNL     1      25.184   2.860  50.685  1.00  0.00    -0.224 NA
HETATM    3  C8  UNL     1      26.335   2.608  51.332  1.00  0.00     0.235 A 
HETATM    4  N3  UNL     1      26.316   1.726  52.345  1.00  0.00    -0.241 NA
HETATM    5  C9  UNL     1      25.149   1.148  52.654  1.00  0.00     0.076 A 
HETATM    6  C10 UNL     1      23.940   1.364  52.031  1.00  0.00     0.020 A 
HETATM    7  C11 UNL     1      22.557   0.910  52.128  1.00  0.00     0.072 A 
HETATM    8  C12 UNL     1      22.427  -0.166  53.126  1.00  0.00    -0.022 A 
HETATM    9  C13 UNL     1      23.082  -0.850  54.048  1.00  0.00    -0.003 A 
HETATM   10  C14 UNL     1      24.484  -0.586  54.340  1.00  0.00     0.011 A 
HETATM   11  C15 UNL     1      25.352   0.236  53.773  1.00  0.00    -0.005 A 
ENDROOT
BRANCH   1  12
HETATM   12  N1  UNL     1      22.900   2.717  50.151  1.00  0.00    -0.367 N 
HETATM   13  H10 UNL     1      22.087   3.167  50.627  1.00  0.00     0.161 HD
BRANCH  12  14
HETATM   14  C5  UNL     1      22.880   2.547  48.711  1.00  0.00     0.102 C 
HETATM   15  C6  UNL     1      21.804   1.566  48.260  1.00  0.00     0.036 C 
BRANCH  14  16
HETATM   16  C4  UNL     1      22.570   3.855  48.081  1.00  0.00    -0.002 C 
HETATM   17  C3  UNL     1      23.242   4.980  48.286  1.00  0.00    -0.003 C 
BRANCH  17  18
HETATM   18  C2  UNL     1      22.940   6.267  47.668  1.00  0.00    -0.010 C 
HETATM   19  C1  UNL     1      22.463   6.356  46.447  1.00  0.00     0.011 C 
ENDBRANCH  17  18
ENDBRANCH  14  16
ENDBRANCH  12  14
ENDBRANCH   1  12
BRANCH  11  20
HETATM   20  C16 UNL     1      26.720   0.235  54.352  1.00  0.00     0.209 C 
BRANCH  20  21
HETATM   21  O1  UNL     1      27.338  -0.969  53.927  1.00  0.00    -0.379 OA
BRANCH  21  22
HETATM   22  C17 UNL     1      28.604  -1.063  53.408  1.00  0.00     0.150 C 
HETATM   23  C18 UNL     1      29.906  -0.917  53.506  1.00  0.00     0.037 C 
ENDBRANCH  21  22
ENDBRANCH  20  21
ENDBRANCH  11  20
TORSDOF 7
ENDMDL
MODEL 8
REMARK VINA RESULT:      -6.6      2.978      7.726
REMARK  7 active torsions:
REMARK  status: ('A' for Active; 'I' for Inactive)
REMARK    1  A    between atoms: C2_2  and  C3_3 
REMARK    2  A    between atoms: C4_4  and  C5_5 
REMARK    3  A    between atoms: C5_5  and  N1_7 
REMARK    4  A    between atoms: N1_7  and  C7_8 
REMARK    5  A    between atoms: C15_18  and  C16_19 
REMARK    6  A    between atoms: C16_19  and  O1_20 
REMARK    7  A    between atoms: O1_20  and  C17_21 
ROOT
HETATM    1  C7  UNL     1      23.632  -0.179  53.469  1.00  0.00     0.134 A 
HETATM    2  N2  UNL     1      23.466  -0.927  54.575  1.00  0.00    -0.224 NA
HETATM    3  C8  UNL     1      22.285  -1.405  55.003  1.00  0.00     0.235 A 
HETATM    4  N3  UNL     1      21.187  -1.123  54.281  1.00  0.00    -0.241 NA
HETATM    5  C9  UNL     1      21.331  -0.381  53.177  1.00  0.00     0.076 A 
HETATM    6  C10 UNL     1      22.511   0.136  52.690  1.00  0.00     0.020 A 
HETATM    7  C11 UNL     1      22.977   0.943  51.567  1.00  0.00     0.072 A 
HETATM    8  C12 UNL     1      21.877   1.211  50.622  1.00  0.00    -0.022 A 
HETATM    9  C13 UNL     1      20.578   1.062  50.428  1.00  0.00    -0.003 A 
HETATM   10  C14 UNL     1      19.731   0.404  51.413  1.00  0.00     0.011 A 
HETATM   11  C15 UNL     1      20.027  -0.197  52.554  1.00  0.00    -0.005 A 
ENDROOT
BRANCH   1  12
HETATM   12  N1  UNL     1      24.995   0.224  53.210  1.00  0.00    -0.367 N 
HETATM   13  H10 UNL     1      25.142   1.140  52.732  1.00  0.00     0.161 HD
BRANCH  12  14
HETATM   14  C5  UNL     1      26.143  -0.580  53.581  1.00  0.00     0.102 C 
HETATM   15  C6  UNL     1      26.574  -1.522  52.463  1.00  0.00     0.036 C 
BRANCH  14  16
HETATM   16  C4  UNL     1      27.288   0.323  53.857  1.00  0.00    -0.002 C 
HETATM   17  C3  UNL     1      27.459   1.526  53.324  1.00  0.00    -0.003 C 
BRANCH  17  18
HETATM   18  C2  UNL     1      28.584   2.415  53.593  1.00  0.00    -0.010 C 
HETATM   19  C1  UNL     1      29.540   2.091  54.433  1.00  0.00     0.011 C 
ENDBRANCH  17  18
ENDBRANCH  14  16
ENDBRANCH  12  14
ENDBRANCH   1  12
BRANCH  11  20
HETATM   20  C16 UNL     1      18.877  -0.762  53.306  1.00  0.00     0.209 C 
BRANCH  20  21
HETATM   21  O1  UNL     1      17.930  -1.186  52.340  1.00  0.00    -0.379 OA
BRANCH  21  22
HETATM   22  C17 UNL     1      16.570  -1.055  52.460  1.00  0.00     0.150 C 
HETATM   23  C18 UNL     1      15.366  -0.994  51.939  1.00  0.00     0.037 C 
ENDBRANCH  21  22
ENDBRANCH  20  21
ENDBRANCH  11  20
TORSDOF 7
ENDMDL
MODEL 9
REMARK VINA RESULT:      -6.6      3.067      7.371
REMARK  7 active torsions:
REMARK  status: ('A' for Active; 'I' for Inactive)
REMARK    1  A    between atoms: C2_2  and  C3_3 
REMARK    2  A    between atoms: C4_4  and  C5_5 
REMARK    3  A    between atoms: C5_5  and  N1_7 
REMARK    4  A    between atoms: N1_7  and  C7_8 
REMARK    5  A    between atoms: C15_18  and  C16_19 
REMARK    6  A    between atoms: C16_19  and  O1_20 
REMARK    7  A    between atoms: O1_20  and  C17_21 
ROOT
HETATM    1  C7  UNL     1      23.228  -0.073  53.169  1.00  0.00     0.134 A 
HETATM    2  N2  UNL     1      23.213  -0.746  54.334  1.00  0.00    -0.224 NA
HETATM    3  C8  UNL     1      22.106  -1.240  54.915  1.00  0.00     0.235 A 
HETATM    4  N3  UNL     1      20.927  -1.056  54.297  1.00  0.00    -0.241 NA
HETATM    5  C9  UNL     1      20.922  -0.389  53.137  1.00  0.00     0.076 A 
HETATM    6  C10 UNL     1      22.019   0.140  52.494  1.00  0.00     0.020 A 
HETATM    7  C11 UNL     1      22.327   0.884  51.277  1.00  0.00     0.072 A 
HETATM    8  C12 UNL     1      21.124   1.038  50.439  1.00  0.00    -0.022 A 
HETATM    9  C13 UNL     1      19.821   0.823  50.394  1.00  0.00    -0.003 A 
HETATM   10  C14 UNL     1      19.112   0.204  51.505  1.00  0.00     0.011 A 
HETATM   11  C15 UNL     1      19.553  -0.302  52.646  1.00  0.00    -0.005 A 
ENDROOT
BRANCH   1  12
HETATM   12  N1  UNL     1      24.536   0.366  52.741  1.00  0.00    -0.367 N 
HETATM   13  H10 UNL     1      24.972  -0.137  51.937  1.00  0.00     0.161 HD
BRANCH  12  14
HETATM   14  C5  UNL     1      25.252   1.456  53.375  1.00  0.00     0.102 C 
HETATM   15  C6  UNL     1      26.558   0.995  54.014  1.00  0.00     0.036 C 
BRANCH  14  16
HETATM   16  C4  UNL     1      25.603   2.461  52.340  1.00  0.00    -0.002 C 
HETATM   17  C3  UNL     1      26.151   2.187  51.164  1.00  0.00    -0.003 C 
BRANCH  17  18
HETATM   18  C2  UNL     1      26.497   3.173  50.145  1.00  0.00    -0.010 C 
HETATM   19  C1  UNL     1      25.580   3.859  49.503  1.00  0.00     0.011 C 
ENDBRANCH  17  18
ENDBRANCH  14  16
ENDBRANCH  12  14
ENDBRANCH   1  12
BRANCH  11  20
HETATM   20  C16 UNL     1      18.515  -0.859  53.552  1.00  0.00     0.209 C 
BRANCH  20  21
HETATM   21  O1  UNL     1      17.949  -1.974  52.882  1.00  0.00    -0.379 OA
BRANCH  21  22
HETATM   22  C17 UNL     1      17.420  -3.078  53.501  1.00  0.00     0.150 C 
HETATM   23  C18 UNL     1      17.002  -4.323  53.481  1.00  0.00     0.037 C 
ENDBRANCH  21  22
ENDBRANCH  20  21
ENDBRANCH  11  20
TORSDOF 7
ENDMDL
