MODEL 1
REMARK VINA RESULT:      -6.8      0.000      0.000
REMARK  7 active torsions:
REMARK  status: ('A' for Active; 'I' for Inactive)
REMARK    1  A    between atoms: C2_2  and  C3_3 
REMARK    2  A    between atoms: C4_4  and  C5_5 
REMARK    3  A    between atoms: C5_5  and  C6_7 
REMARK    4  A    between atoms: C7_8  and  C8_9 
REMARK    5  A    between atoms: C8_9  and  C9_10 
REMARK    6  A    between atoms: N2_13  and  C11_14 
REMARK    7  A    between atoms: C11_14  and  C12_15 
ROOT
HETATM    1  C9  UNL     1      26.997   2.218  52.851  1.00  0.00     0.130 C 
HETATM    2  C10 UNL     1      28.194   2.330  53.698  1.00  0.00     0.059 C 
HETATM    3  N1  UNL     1      29.149   2.412  54.360  1.00  0.00    -0.197 NA
ENDROOT
BRANCH   1   4
HETATM    4  C8  UNL     1      25.795   2.230  53.755  1.00  0.00     0.072 C 
BRANCH   4   5
HETATM    5  C7  UNL     1      24.614   1.526  53.209  1.00  0.00     0.023 C 
HETATM    6  C6  UNL     1      24.359   0.250  53.444  1.00  0.00     0.045 C 
HETATM    7  C16 UNL     1      23.120  -0.324  52.941  1.00  0.00     0.015 C 
HETATM    8  C15 UNL     1      22.204   0.333  52.260  1.00  0.00    -0.006 C 
HETATM    9  C14 UNL     1      22.382   1.771  51.952  1.00  0.00     0.150 C 
HETATM   10  N2  UNL     1      23.698   2.171  52.287  1.00  0.00    -0.376 N 
BRANCH   6  11
HETATM   11  C5  UNL     1      25.196  -0.612  54.252  1.00  0.00     0.237 C 
HETATM   12  O1  UNL     1      25.045  -1.134  55.379  1.00  0.00    -0.278 OA
BRANCH  11  13
HETATM   13  C4  UNL     1      26.482  -1.014  53.760  1.00  0.00    -0.024 C 
HETATM   14  C3  UNL     1      27.579  -1.352  53.363  1.00  0.00    -0.098 C 
BRANCH  14  15
HETATM   15  C2  UNL     1      28.887  -1.737  52.903  1.00  0.00     0.090 C 
HETATM   16  C1  UNL     1      30.007  -1.018  53.630  1.00  0.00     0.018 C 
ENDBRANCH  14  15
ENDBRANCH  11  13
ENDBRANCH   6  11
BRANCH  10  17
HETATM   17  C11 UNL     1      24.104   3.333  51.575  1.00  0.00     0.151 C 
BRANCH  17  18
HETATM   18  C12 UNL     1      23.982   3.296  50.105  1.00  0.00     0.000 C 
HETATM   19  C13 UNL     1      24.989   3.632  49.273  1.00  0.00     0.162 C 
HETATM   20 BR1  UNL     1      26.779   4.225  49.280  1.00  0.00    -0.172 Br
ENDBRANCH  17  18
ENDBRANCH  10  17
ENDBRANCH   4   5
ENDBRANCH   1   4
TORSDOF 7
ENDMDL
MODEL 2
REMARK VINA RESULT:      -6.5      3.479      4.918
REMARK  7 active torsions:
REMARK  status: ('A' for Active; 'I' for Inactive)
REMARK    1  A    between atoms: C2_2  and  C3_3 
REMARK    2  A    between atoms: C4_4  and  C5_5 
REMARK    3  A    between atoms: C5_5  and  C6_7 
REMARK    4  A    between atoms: C7_8  and  C8_9 
REMARK    5  A    between atoms: C8_9  and  C9_10 
REMARK    6  A    between atoms: N2_13  and  C11_14 
REMARK    7  A    between atoms: C11_14  and  C12_15 
ROOT
HETATM    1  C9  UNL     1      22.125  -0.815  53.375  1.00  0.00     0.130 C 
HETATM    2  C10 UNL     1      22.595  -1.233  54.705  1.00  0.00     0.059 C 
HETATM    3  N1  UNL     1      22.959  -1.575  55.756  1.00  0.00    -0.197 NA
ENDROOT
BRANCH   1   4
HETATM    4  C8  UNL     1      21.941   0.677  53.403  1.00  0.00     0.072 C 
BRANCH   4   5
HETATM    5  C7  UNL     1      22.230   1.351  52.118  1.00  0.00     0.023 C 
HETATM    6  C6  UNL     1      23.420   1.833  51.806  1.00  0.00     0.045 C 
HETATM    7  C16 UNL     1      23.626   2.392  50.477  1.00  0.00     0.015 C 
HETATM    8  C15 UNL     1      22.710   2.455  49.533  1.00  0.00    -0.006 C 
HETATM    9  C14 UNL     1      21.345   1.931  49.773  1.00  0.00     0.150 C 
HETATM   10  N2  UNL     1      21.188   1.618  51.144  1.00  0.00    -0.376 N 
BRANCH   6  11
HETATM   11  C5  UNL     1      24.578   1.769  52.672  1.00  0.00     0.237 C 
HETATM   12  O1  UNL     1      25.064   2.567  53.506  1.00  0.00    -0.278 OA
BRANCH  11  13
HETATM   13  C4  UNL     1      25.411   0.602  52.657  1.00  0.00    -0.024 C 
HETATM   14  C3  UNL     1      26.113  -0.390  52.664  1.00  0.00    -0.098 C 
BRANCH  14  15
HETATM   15  C2  UNL     1      26.952  -1.557  52.690  1.00  0.00     0.090 C 
HETATM   16  C1  UNL     1      28.362  -1.265  53.167  1.00  0.00     0.018 C 
ENDBRANCH  14  15
ENDBRANCH  11  13
ENDBRANCH   6  11
BRANCH  10  17
HETATM   17  C11 UNL     1      19.823   1.611  51.540  1.00  0.00     0.151 C 
BRANCH  17  18
HETATM   18  C12 UNL     1      18.932   0.651  50.860  1.00  0.00     0.000 C 
HETATM   19  C13 UNL     1      18.333  -0.377  51.496  1.00  0.00     0.162 C 
HETATM   20 BR1  UNL     1      18.178  -1.177  53.196  1.00  0.00    -0.172 Br
ENDBRANCH  17  18
ENDBRANCH  10  17
ENDBRANCH   4   5
ENDBRANCH   1   4
TORSDOF 7
ENDMDL
MODEL 3
REMARK VINA RESULT:      -6.4      3.122      5.325
REMARK  7 active torsions:
REMARK  status: ('A' for Active; 'I' for Inactive)
REMARK    1  A    between atoms: C2_2  and  C3_3 
REMARK    2  A    between atoms: C4_4  and  C5_5 
REMARK    3  A    between atoms: C5_5  and  C6_7 
REMARK    4  A    between atoms: C7_8  and  C8_9 
REMARK    5  A    between atoms: C8_9  and  C9_10 
REMARK    6  A    between atoms: N2_13  and  C11_14 
REMARK    7  A    between atoms: C11_14  and  C12_15 
ROOT
HETATM    1  C9  UNL     1      25.578  -0.124  52.719  1.00  0.00     0.130 C 
HETATM    2  C10 UNL     1      26.587  -0.302  53.774  1.00  0.00     0.059 C 
HETATM    3  N1  UNL     1      27.383  -0.456  54.610  1.00  0.00    -0.197 NA
ENDROOT
BRANCH   1   4
HETATM    4  C8  UNL     1      25.005   1.259  52.862  1.00  0.00     0.072 C 
BRANCH   4   5
HETATM    5  C7  UNL     1      24.310   1.759  51.656  1.00  0.00     0.023 C 
HETATM    6  C6  UNL     1      24.900   2.505  50.738  1.00  0.00     0.045 C 
HETATM    7  C16 UNL     1      24.156   2.865  49.539  1.00  0.00     0.015 C 
HETATM    8  C15 UNL     1      22.919   2.498  49.279  1.00  0.00    -0.006 C 
HETATM    9  C14 UNL     1      22.168   1.650  50.235  1.00  0.00     0.150 C 
HETATM   10  N2  UNL     1      22.891   1.543  51.447  1.00  0.00    -0.376 N 
BRANCH   6  11
HETATM   11  C5  UNL     1      26.284   2.928  50.797  1.00  0.00     0.237 C 
HETATM   12  O1  UNL     1      27.252   2.578  51.510  1.00  0.00    -0.278 OA
BRANCH  11  13
HETATM   13  C4  UNL     1      26.751   3.949  49.906  1.00  0.00    -0.024 C 
HETATM   14  C3  UNL     1      27.132   4.809  49.137  1.00  0.00    -0.098 C 
BRANCH  14  15
HETATM   15  C2  UNL     1      27.580   5.814  48.211  1.00  0.00     0.090 C 
HETATM   16  C1  UNL     1      29.090   5.934  48.148  1.00  0.00     0.018 C 
ENDBRANCH  14  15
ENDBRANCH  11  13
ENDBRANCH   6  11
BRANCH  10  17
HETATM   17  C11 UNL     1      22.051   1.208  52.545  1.00  0.00     0.151 C 
BRANCH  17  18
HETATM   18  C12 UNL     1      21.495  -0.158  52.570  1.00  0.00     0.000 C 
HETATM   19  C13 UNL     1      21.774  -1.049  53.544  1.00  0.00     0.162 C 
HETATM   20 BR1  UNL     1      22.762  -1.240  55.138  1.00  0.00    -0.172 Br
ENDBRANCH  17  18
ENDBRANCH  10  17
ENDBRANCH   4   5
ENDBRANCH   1   4
TORSDOF 7
ENDMDL
MODEL 4
REMARK VINA RESULT:      -6.4      2.852      4.141
REMARK  7 active torsions:
REMARK  status: ('A' for Active; 'I' for Inactive)
REMARK    1  A    between atoms: C2_2  and  C3_3 
REMARK    2  A    between atoms: C4_4  and  C5_5 
REMARK    3  A    between atoms: C5_5  and  C6_7 
REMARK    4  A    between atoms: C7_8  and  C8_9 
REMARK    5  A    between atoms: C8_9  and  C9_10 
REMARK    6  A    between atoms: N2_13  and  C11_14 
REMARK    7  A    between atoms: C11_14  and  C12_15 
ROOT
HETATM    1  C9  UNL     1      23.558  -0.271  53.098  1.00  0.00     0.130 C 
HETATM    2  C10 UNL     1      22.867  -0.822  54.274  1.00  0.00     0.059 C 
HETATM    3  N1  UNL     1      22.318  -1.270  55.198  1.00  0.00    -0.197 NA
ENDROOT
BRANCH   1   4
HETATM    4  C8  UNL     1      23.341   1.217  53.096  1.00  0.00     0.072 C 
BRANCH   4   5
HETATM    5  C7  UNL     1      24.086   1.941  52.043  1.00  0.00     0.023 C 
HETATM    6  C6  UNL     1      25.370   2.243  52.143  1.00  0.00     0.045 C 
HETATM    7  C16 UNL     1      26.035   2.870  51.010  1.00  0.00     0.015 C 
HETATM    8  C15 UNL     1      25.458   3.165  49.864  1.00  0.00    -0.006 C 
HETATM    9  C14 UNL     1      24.026   2.857  49.640  1.00  0.00     0.150 C 
HETATM   10  N2  UNL     1      23.428   2.459  50.859  1.00  0.00    -0.376 N 
BRANCH   6  11
HETATM   11  C5  UNL     1      26.197   1.913  53.284  1.00  0.00     0.237 C 
HETATM   12  O1  UNL     1      26.358   2.450  54.403  1.00  0.00    -0.278 OA
BRANCH  11  13
HETATM   13  C4  UNL     1      27.046   0.758  53.234  1.00  0.00    -0.024 C 
HETATM   14  C3  UNL     1      27.783  -0.207  53.192  1.00  0.00    -0.098 C 
BRANCH  14  15
HETATM   15  C2  UNL     1      28.666  -1.340  53.128  1.00  0.00     0.090 C 
HETATM   16  C1  UNL     1      30.042  -1.053  53.696  1.00  0.00     0.018 C 
ENDBRANCH  14  15
ENDBRANCH  11  13
ENDBRANCH   6  11
BRANCH  10  17
HETATM   17  C11 UNL     1      22.018   2.646  50.851  1.00  0.00     0.151 C 
BRANCH  17  18
HETATM   18  C12 UNL     1      21.219   1.687  50.064  1.00  0.00     0.000 C 
HETATM   19  C13 UNL     1      20.363   0.807  50.623  1.00  0.00     0.162 C 
HETATM   20 BR1  UNL     1      19.694   0.252  52.295  1.00  0.00    -0.172 Br
ENDBRANCH  17  18
ENDBRANCH  10  17
ENDBRANCH   4   5
ENDBRANCH   1   4
TORSDOF 7
ENDMDL
MODEL 5
REMARK VINA RESULT:      -6.3      3.281      6.112
REMARK  7 active torsions:
REMARK  status: ('A' for Active; 'I' for Inactive)
REMARK    1  A    between atoms: C2_2  and  C3_3 
REMARK    2  A    between atoms: C4_4  and  C5_5 
REMARK    3  A    between atoms: C5_5  and  C6_7 
REMARK    4  A    between atoms: C7_8  and  C8_9 
REMARK    5  A    between atoms: C8_9  and  C9_10 
REMARK    6  A    between atoms: N2_13  and  C11_14 
REMARK    7  A    between atoms: C11_14  and  C12_15 
ROOT
HETATM    1  C9  UNL     1      23.338   2.626  51.941  1.00  0.00     0.130 C 
HETATM    2  C10 UNL     1      24.511   2.984  51.128  1.00  0.00     0.059 C 
HETATM    3  N1  UNL     1      25.434   3.279  50.483  1.00  0.00    -0.197 NA
ENDROOT
BRANCH   1   4
HETATM    4  C8  UNL     1      23.087   1.155  51.760  1.00  0.00     0.072 C 
BRANCH   4   5
HETATM    5  C7  UNL     1      22.983   0.393  53.024  1.00  0.00     0.023 C 
HETATM    6  C6  UNL     1      21.844   0.217  53.670  1.00  0.00     0.045 C 
HETATM    7  C16 UNL     1      21.831  -0.631  54.854  1.00  0.00     0.015 C 
HETATM    8  C15 UNL     1      22.879  -1.259  55.346  1.00  0.00    -0.006 C 
HETATM    9  C14 UNL     1      24.203  -1.141  54.691  1.00  0.00     0.150 C 
HETATM   10  N2  UNL     1      24.155  -0.134  53.697  1.00  0.00    -0.376 N 
BRANCH   6  11
HETATM   11  C5  UNL     1      20.569   0.745  53.233  1.00  0.00     0.237 C 
HETATM   12  O1  UNL     1      20.187   1.893  52.913  1.00  0.00    -0.278 OA
BRANCH  11  13
HETATM   13  C4  UNL     1      19.444  -0.135  53.105  1.00  0.00    -0.024 C 
HETATM   14  C3  UNL     1      18.493  -0.886  53.017  1.00  0.00    -0.098 C 
BRANCH  14  15
HETATM   15  C2  UNL     1      17.377  -1.790  52.923  1.00  0.00     0.090 C 
HETATM   16  C1  UNL     1      17.611  -3.099  53.652  1.00  0.00     0.018 C 
ENDBRANCH  14  15
ENDBRANCH  11  13
ENDBRANCH   6  11
BRANCH  10  17
HETATM   17  C11 UNL     1      25.444   0.387  53.399  1.00  0.00     0.151 C 
BRANCH  17  18
HETATM   18  C12 UNL     1      26.368  -0.492  52.656  1.00  0.00     0.000 C 
HETATM   19  C13 UNL     1      27.664  -0.652  52.994  1.00  0.00     0.162 C 
HETATM   20 BR1  UNL     1      28.945  -0.088  54.256  1.00  0.00    -0.172 Br
ENDBRANCH  17  18
ENDBRANCH  10  17
ENDBRANCH   4   5
ENDBRANCH   1   4
TORSDOF 7
ENDMDL
MODEL 6
REMARK VINA RESULT:      -6.3      2.163      3.650
REMARK  7 active torsions:
REMARK  status: ('A' for Active; 'I' for Inactive)
REMARK    1  A    between atoms: C2_2  and  C3_3 
REMARK    2  A    between atoms: C4_4  and  C5_5 
REMARK    3  A    between atoms: C5_5  and  C6_7 
REMARK    4  A    between atoms: C7_8  and  C8_9 
REMARK    5  A    between atoms: C8_9  and  C9_10 
REMARK    6  A    between atoms: N2_13  and  C11_14 
REMARK    7  A    between atoms: C11_14  and  C12_15 
ROOT
HETATM    1  C9  UNL     1      23.482  -0.313  53.075  1.00  0.00     0.130 C 
HETATM    2  C10 UNL     1      22.672  -0.837  54.186  1.00  0.00     0.059 C 
HETATM    3  N1  UNL     1      22.027  -1.262  55.057  1.00  0.00    -0.197 NA
ENDROOT
BRANCH   1   4
HETATM    4  C8  UNL     1      23.575   1.179  53.242  1.00  0.00     0.072 C 
BRANCH   4   5
HETATM    5  C7  UNL     1      24.489   1.843  52.287  1.00  0.00     0.023 C 
HETATM    6  C6  UNL     1      25.790   1.958  52.492  1.00  0.00     0.045 C 
HETATM    7  C16 UNL     1      26.617   2.543  51.446  1.00  0.00     0.015 C 
HETATM    8  C15 UNL     1      26.174   2.972  50.283  1.00  0.00    -0.006 C 
HETATM    9  C14 UNL     1      24.735   2.878  49.944  1.00  0.00     0.150 C 
HETATM   10  N2  UNL     1      23.998   2.507  51.095  1.00  0.00    -0.376 N 
BRANCH   6  11
HETATM   11  C5  UNL     1      26.478   1.461  53.665  1.00  0.00     0.237 C 
HETATM   12  O1  UNL     1      26.356   1.696  54.888  1.00  0.00    -0.278 OA
BRANCH  11  13
HETATM   13  C4  UNL     1      27.530   0.498  53.514  1.00  0.00    -0.024 C 
HETATM   14  C3  UNL     1      28.411  -0.331  53.399  1.00  0.00    -0.098 C 
BRANCH  14  15
HETATM   15  C2  UNL     1      29.454  -1.315  53.284  1.00  0.00     0.090 C 
HETATM   16  C1  UNL     1      28.925  -2.733  53.195  1.00  0.00     0.018 C 
ENDBRANCH  14  15
ENDBRANCH  11  13
ENDBRANCH   6  11
BRANCH  10  17
HETATM   17  C11 UNL     1      22.631   2.888  51.002  1.00  0.00     0.151 C 
BRANCH  17  18
HETATM   18  C12 UNL     1      22.154   3.912  51.952  1.00  0.00     0.000 C 
HETATM   19  C13 UNL     1      22.652   5.165  51.995  1.00  0.00     0.162 C 
HETATM   20 BR1  UNL     1      23.929   6.280  51.170  1.00  0.00    -0.172 Br
ENDBRANCH  17  18
ENDBRANCH  10  17
ENDBRANCH   4   5
ENDBRANCH   1   4
TORSDOF 7
ENDMDL
MODEL 7
REMARK VINA RESULT:      -6.3      2.157      2.614
REMARK  7 active torsions:
REMARK  status: ('A' for Active; 'I' for Inactive)
REMARK    1  A    between atoms: C2_2  and  C3_3 
REMARK    2  A    between atoms: C4_4  and  C5_5 
REMARK    3  A    between atoms: C5_5  and  C6_7 
REMARK    4  A    between atoms: C7_8  and  C8_9 
REMARK    5  A    between atoms: C8_9  and  C9_10 
REMARK    6  A    between atoms: N2_13  and  C11_14 
REMARK    7  A    between atoms: C11_14  and  C12_15 
ROOT
HETATM    1  C9  UNL     1      26.284   2.602  50.551  1.00  0.00     0.130 C 
HETATM    2  C10 UNL     1      26.709   3.696  49.664  1.00  0.00     0.059 C 
HETATM    3  N1  UNL     1      27.058   4.558  48.963  1.00  0.00    -0.197 NA
ENDROOT
BRANCH   1   4
HETATM    4  C8  UNL     1      25.060   3.064  51.293  1.00  0.00     0.072 C 
BRANCH   4   5
HETATM    5  C7  UNL     1      24.216   1.969  51.819  1.00  0.00     0.023 C 
HETATM    6  C6  UNL     1      24.565   1.216  52.847  1.00  0.00     0.045 C 
HETATM    7  C16 UNL     1      23.620   0.229  53.349  1.00  0.00     0.015 C 
HETATM    8  C15 UNL     1      22.416   0.019  52.861  1.00  0.00    -0.006 C 
HETATM    9  C14 UNL     1      21.918   0.816  51.716  1.00  0.00     0.150 C 
HETATM   10  N2  UNL     1      22.977   1.581  51.171  1.00  0.00    -0.376 N 
BRANCH   6  11
HETATM   11  C5  UNL     1      25.806   1.361  53.578  1.00  0.00     0.237 C 
HETATM   12  O1  UNL     1      26.227   2.224  54.382  1.00  0.00    -0.278 OA
BRANCH  11  13
HETATM   13  C4  UNL     1      26.836   0.375  53.427  1.00  0.00    -0.024 C 
HETATM   14  C3  UNL     1      27.694  -0.477  53.302  1.00  0.00    -0.098 C 
BRANCH  14  15
HETATM   15  C2  UNL     1      28.702  -1.495  53.170  1.00  0.00     0.090 C 
HETATM   16  C1  UNL     1      30.058  -1.059  53.687  1.00  0.00     0.018 C 
ENDBRANCH  14  15
ENDBRANCH  11  13
ENDBRANCH   6  11
BRANCH  10  17
HETATM   17  C11 UNL     1      22.732   1.949  49.820  1.00  0.00     0.151 C 
BRANCH  17  18
HETATM   18  C12 UNL     1      21.687   2.962  49.579  1.00  0.00     0.000 C 
HETATM   19  C13 UNL     1      21.954   4.203  49.123  1.00  0.00     0.162 C 
HETATM   20 BR1  UNL     1      23.385   5.309  48.593  1.00  0.00    -0.172 Br
ENDBRANCH  17  18
ENDBRANCH  10  17
ENDBRANCH   4   5
ENDBRANCH   1   4
TORSDOF 7
ENDMDL
MODEL 8
REMARK VINA RESULT:      -6.2      2.770      3.634
REMARK  7 active torsions:
REMARK  status: ('A' for Active; 'I' for Inactive)
REMARK    1  A    between atoms: C2_2  and  C3_3 
REMARK    2  A    between atoms: C4_4  and  C5_5 
REMARK    3  A    between atoms: C5_5  and  C6_7 
REMARK    4  A    between atoms: C7_8  and  C8_9 
REMARK    5  A    between atoms: C8_9  and  C9_10 
REMARK    6  A    between atoms: N2_13  and  C11_14 
REMARK    7  A    between atoms: C11_14  and  C12_15 
ROOT
HETATM    1  C9  UNL     1      23.492   3.604  52.229  1.00  0.00     0.130 C 
HETATM    2  C10 UNL     1      23.963   4.678  51.342  1.00  0.00     0.059 C 
HETATM    3  N1  UNL     1      24.324   5.536  50.642  1.00  0.00    -0.197 NA
ENDROOT
BRANCH   1   4
HETATM    4  C8  UNL     1      23.981   2.298  51.666  1.00  0.00     0.072 C 
BRANCH   4   5
HETATM    5  C7  UNL     1      23.560   1.107  52.435  1.00  0.00     0.023 C 
HETATM    6  C6  UNL     1      24.319   0.532  53.353  1.00  0.00     0.045 C 
HETATM    7  C16 UNL     1      23.774  -0.576  54.122  1.00  0.00     0.015 C 
HETATM    8  C15 UNL     1      22.560  -1.066  53.987  1.00  0.00    -0.006 C 
HETATM    9  C14 UNL     1      21.621  -0.489  52.996  1.00  0.00     0.150 C 
HETATM   10  N2  UNL     1      22.311   0.422  52.161  1.00  0.00    -0.376 N 
BRANCH   6  11
HETATM   11  C5  UNL     1      25.645   0.987  53.714  1.00  0.00     0.237 C 
HETATM   12  O1  UNL     1      26.078   2.061  54.191  1.00  0.00    -0.278 OA
BRANCH  11  13
HETATM   13  C4  UNL     1      26.768   0.114  53.530  1.00  0.00    -0.024 C 
HETATM   14  C3  UNL     1      27.712  -0.631  53.356  1.00  0.00    -0.098 C 
BRANCH  14  15
HETATM   15  C2  UNL     1      28.817  -1.526  53.140  1.00  0.00     0.090 C 
HETATM   16  C1  UNL     1      30.117  -1.018  53.732  1.00  0.00     0.018 C 
ENDBRANCH  14  15
ENDBRANCH  11  13
ENDBRANCH   6  11
BRANCH  10  17
HETATM   17  C11 UNL     1      21.651   0.614  50.916  1.00  0.00     0.151 C 
BRANCH  17  18
HETATM   18  C12 UNL     1      20.177   0.683  50.942  1.00  0.00     0.000 C 
HETATM   19  C13 UNL     1      19.498   1.825  51.175  1.00  0.00     0.162 C 
HETATM   20 BR1  UNL     1      19.760   3.656  51.538  1.00  0.00    -0.172 Br
ENDBRANCH  17  18
ENDBRANCH  10  17
ENDBRANCH   4   5
ENDBRANCH   1   4
TORSDOF 7
ENDMDL
MODEL 9
REMARK VINA RESULT:      -6.1      3.309      5.369
REMARK  7 active torsions:
REMARK  status: ('A' for Active; 'I' for Inactive)
REMARK    1  A    between atoms: C2_2  and  C3_3 
REMARK    2  A    between atoms: C4_4  and  C5_5 
REMARK    3  A    between atoms: C5_5  and  C6_7 
REMARK    4  A    between atoms: C7_8  and  C8_9 
REMARK    5  A    between atoms: C8_9  and  C9_10 
REMARK    6  A    between atoms: N2_13  and  C11_14 
REMARK    7  A    between atoms: C11_14  and  C12_15 
ROOT
HETATM    1  C9  UNL     1      24.602   1.932  53.145  1.00  0.00     0.130 C 
HETATM    2  C10 UNL     1      25.926   1.931  53.785  1.00  0.00     0.059 C 
HETATM    3  N1  UNL     1      26.970   1.922  54.301  1.00  0.00    -0.197 NA
ENDROOT
BRANCH   1   4
HETATM    4  C8  UNL     1      24.393   3.287  52.527  1.00  0.00     0.072 C 
BRANCH   4   5
HETATM    5  C7  UNL     1      23.804   3.256  51.171  1.00  0.00     0.023 C 
HETATM    6  C6  UNL     1      24.530   3.193  50.068  1.00  0.00     0.045 C 
HETATM    7  C16 UNL     1      23.851   3.067  48.786  1.00  0.00     0.015 C 
HETATM    8  C15 UNL     1      22.546   3.003  48.624  1.00  0.00    -0.006 C 
HETATM    9  C14 UNL     1      21.639   3.052  49.795  1.00  0.00     0.150 C 
HETATM   10  N2  UNL     1      22.376   3.393  50.955  1.00  0.00    -0.376 N 
BRANCH   6  11
HETATM   11  C5  UNL     1      25.977   3.153  50.046  1.00  0.00     0.237 C 
HETATM   12  O1  UNL     1      26.815   2.355  50.525  1.00  0.00    -0.278 OA
BRANCH  11  13
HETATM   13  C4  UNL     1      26.704   4.186  49.368  1.00  0.00    -0.024 C 
HETATM   14  C3  UNL     1      27.328   5.068  48.811  1.00  0.00    -0.098 C 
BRANCH  14  15
HETATM   15  C2  UNL     1      28.062   6.124  48.168  1.00  0.00     0.090 C 
HETATM   16  C1  UNL     1      29.539   5.818  48.022  1.00  0.00     0.018 C 
ENDBRANCH  14  15
ENDBRANCH  11  13
ENDBRANCH   6  11
BRANCH  10  17
HETATM   17  C11 UNL     1      21.551   3.951  51.970  1.00  0.00     0.151 C 
BRANCH  17  18
HETATM   18  C12 UNL     1      20.260   3.285  52.227  1.00  0.00     0.000 C 
HETATM   19  C13 UNL     1      20.162   2.030  52.712  1.00  0.00     0.162 C 
HETATM   20 BR1  UNL     1      21.219   0.574  53.275  1.00  0.00    -0.172 Br
ENDBRANCH  17  18
ENDBRANCH  10  17
ENDBRANCH   4   5
ENDBRANCH   1   4
TORSDOF 7
ENDMDL
