MODEL 1
REMARK VINA RESULT:      -8.0      0.000      0.000
REMARK  6 active torsions:
REMARK  status: ('A' for Active; 'I' for Inactive)
REMARK    1  A    between atoms: C2_2  and  C3_3 
REMARK    2  A    between atoms: C2_2  and  N2_11 
REMARK    3  A    between atoms: C4_4  and  C5_5 
REMARK    4  A    between atoms: C5_5  and  C6_6 
REMARK    5  A    between atoms: C6_6  and  N1_7 
REMARK    6  A    between atoms: C16_21  and  C17_22 
ROOT
HETATM    1  N2  UNL     1      21.603   1.326  52.550  1.00  0.00    -0.265 N 
HETATM    2  C9  UNL     1      22.160   2.620  52.701  1.00  0.00     0.120 C 
HETATM    3  C10 UNL     1      23.276   3.156  52.265  1.00  0.00    -0.018 C 
HETATM    4  C11 UNL     1      23.428   4.604  52.681  1.00  0.00     0.055 C 
HETATM    5  C12 UNL     1      23.149   5.392  51.357  1.00  0.00     0.076 C 
HETATM    6  C13 UNL     1      24.274   4.870  50.485  1.00  0.00     0.097 C 
HETATM    7  N3  UNL     1      25.007   3.887  50.859  1.00  0.00    -0.275 NA
HETATM    8  C14 UNL     1      24.426   2.679  51.401  1.00  0.00     0.236 C 
HETATM    9  N4  UNL     1      23.681   2.034  50.267  1.00  0.00    -0.363 N 
HETATM   10  C15 UNL     1      22.458   2.593  49.679  1.00  0.00     0.043 C 
HETATM   11  C16 UNL     1      22.179   2.254  48.470  1.00  0.00     0.029 C 
HETATM   12  C19 UNL     1      21.567   3.525  50.468  1.00  0.00     0.028 C 
HETATM   13  C20 UNL     1      21.894   4.823  50.716  1.00  0.00     0.035 C 
HETATM   14 CL1  UNL     1      20.770   6.064  50.268  1.00  0.00    -0.087 Cl
HETATM   15  C21 UNL     1      20.597   2.455  50.672  1.00  0.00     0.154 C 
HETATM   16  N5  UNL     1      20.639   1.537  51.563  1.00  0.00    -0.183 NA
HETATM   17  H19 UNL     1      23.876   1.162  49.744  1.00  0.00     0.162 HD
ENDROOT
BRANCH   1  18
HETATM   18  C2  UNL     1      21.812   0.028  53.136  1.00  0.00     0.184 C 
HETATM   19  C1  UNL     1      21.149  -0.069  54.512  1.00  0.00     0.048 C 
BRANCH  18  20
HETATM   20  C3  UNL     1      23.231  -0.197  53.272  1.00  0.00    -0.079 C 
HETATM   21  C4  UNL     1      24.404  -0.395  53.368  1.00  0.00    -0.103 C 
BRANCH  21  22
HETATM   22  C5  UNL     1      25.857  -0.660  53.471  1.00  0.00     0.111 C 
BRANCH  22  23
HETATM   23  C6  UNL     1      26.422   0.059  54.702  1.00  0.00     0.133 C 
BRANCH  23  24
HETATM   24  N1  UNL     1      27.812  -0.222  54.910  1.00  0.00    -0.194 NA
HETATM   25  C7  UNL     1      28.457  -0.445  53.632  1.00  0.00     0.149 C 
HETATM   26  C8  UNL     1      29.406   0.650  53.991  1.00  0.00     0.210 C 
HETATM   27  O1  UNL     1      28.547   0.904  55.043  1.00  0.00    -0.302 OA
ENDBRANCH  23  24
ENDBRANCH  22  23
ENDBRANCH  21  22
ENDBRANCH  18  20
ENDBRANCH   1  18
BRANCH  11  28
HETATM   28  C17 UNL     1      20.972   2.861  48.019  1.00  0.00     0.078 C 
HETATM   29  C18 UNL     1      21.009   3.356  46.781  1.00  0.00     0.383 C 
HETATM   30  F1  UNL     1      22.263   3.087  46.366  1.00  0.00    -0.458 F 
ENDBRANCH  11  28
TORSDOF 6
ENDMDL
MODEL 2
REMARK VINA RESULT:      -7.7      2.082      2.928
REMARK  6 active torsions:
REMARK  status: ('A' for Active; 'I' for Inactive)
REMARK    1  A    between atoms: C2_2  and  C3_3 
REMARK    2  A    between atoms: C2_2  and  N2_11 
REMARK    3  A    between atoms: C4_4  and  C5_5 
REMARK    4  A    between atoms: C5_5  and  C6_6 
REMARK    5  A    between atoms: C6_6  and  N1_7 
REMARK    6  A    between atoms: C16_21  and  C17_22 
ROOT
HETATM    1  N2  UNL     1      21.711   1.439  52.442  1.00  0.00    -0.265 N 
HETATM    2  C9  UNL     1      22.414   2.098  51.402  1.00  0.00     0.120 C 
HETATM    3  C10 UNL     1      22.371   1.979  50.096  1.00  0.00    -0.018 C 
HETATM    4  C11 UNL     1      23.319   2.929  49.393  1.00  0.00     0.055 C 
HETATM    5  C12 UNL     1      22.364   4.018  48.799  1.00  0.00     0.076 C 
HETATM    6  C13 UNL     1      21.524   3.168  47.866  1.00  0.00     0.097 C 
HETATM    7  N3  UNL     1      21.598   1.888  47.882  1.00  0.00    -0.275 NA
HETATM    8  C14 UNL     1      21.559   1.147  49.123  1.00  0.00     0.236 C 
HETATM    9  N4  UNL     1      20.175   1.337  49.674  1.00  0.00    -0.363 N 
HETATM   10  C15 UNL     1      19.677   2.616  50.194  1.00  0.00     0.043 C 
HETATM   11  C16 UNL     1      18.403   2.795  50.192  1.00  0.00     0.029 C 
HETATM   12  C19 UNL     1      20.627   3.674  50.708  1.00  0.00     0.028 C 
HETATM   13  C20 UNL     1      21.388   4.444  49.884  1.00  0.00     0.035 C 
HETATM   14 CL1  UNL     1      21.291   6.168  50.031  1.00  0.00    -0.087 Cl
HETATM   15  C21 UNL     1      20.277   3.344  52.085  1.00  0.00     0.154 C 
HETATM   16  N5  UNL     1      20.753   2.391  52.794  1.00  0.00    -0.183 NA
HETATM   17  H19 UNL     1      19.394   0.665  49.777  1.00  0.00     0.162 HD
ENDROOT
BRANCH   1  18
HETATM   18  C2  UNL     1      21.788   0.165  53.105  1.00  0.00     0.184 C 
HETATM   19  C1  UNL     1      21.062   0.198  54.452  1.00  0.00     0.048 C 
BRANCH  18  20
HETATM   20  C3  UNL     1      23.177  -0.165  53.318  1.00  0.00    -0.079 C 
HETATM   21  C4  UNL     1      24.322  -0.456  53.487  1.00  0.00    -0.103 C 
BRANCH  21  22
HETATM   22  C5  UNL     1      25.735  -0.843  53.697  1.00  0.00     0.111 C 
BRANCH  22  23
HETATM   23  C6  UNL     1      26.374   0.095  54.729  1.00  0.00     0.133 C 
BRANCH  23  24
HETATM   24  N1  UNL     1      27.763  -0.189  54.941  1.00  0.00    -0.194 NA
HETATM   25  C7  UNL     1      28.405  -0.446  53.667  1.00  0.00     0.149 C 
HETATM   26  C8  UNL     1      29.360   0.653  53.998  1.00  0.00     0.210 C 
HETATM   27  O1  UNL     1      28.505   0.935  55.046  1.00  0.00    -0.302 OA
ENDBRANCH  23  24
ENDBRANCH  22  23
ENDBRANCH  21  22
ENDBRANCH  18  20
ENDBRANCH   1  18
BRANCH  11  28
HETATM   28  C17 UNL     1      18.052   4.072  50.719  1.00  0.00     0.078 C 
HETATM   29  C18 UNL     1      16.832   4.153  51.254  1.00  0.00     0.383 C 
HETATM   30  F1  UNL     1      16.330   2.912  51.096  1.00  0.00    -0.458 F 
ENDBRANCH  11  28
TORSDOF 6
ENDMDL
MODEL 3
REMARK VINA RESULT:      -7.6      2.194      3.968
REMARK  6 active torsions:
REMARK  status: ('A' for Active; 'I' for Inactive)
REMARK    1  A    between atoms: C2_2  and  C3_3 
REMARK    2  A    between atoms: C2_2  and  N2_11 
REMARK    3  A    between atoms: C4_4  and  C5_5 
REMARK    4  A    between atoms: C5_5  and  C6_6 
REMARK    5  A    between atoms: C6_6  and  N1_7 
REMARK    6  A    between atoms: C16_21  and  C17_22 
ROOT
HETATM    1  N2  UNL     1      24.412   3.282  49.973  1.00  0.00    -0.265 N 
HETATM    2  C9  UNL     1      23.386   2.305  49.994  1.00  0.00     0.120 C 
HETATM    3  C10 UNL     1      22.501   1.976  50.906  1.00  0.00    -0.018 C 
HETATM    4  C11 UNL     1      21.586   0.857  50.453  1.00  0.00     0.055 C 
HETATM    5  C12 UNL     1      20.234   1.592  50.161  1.00  0.00     0.076 C 
HETATM    6  C13 UNL     1      19.918   2.140  51.539  1.00  0.00     0.097 C 
HETATM    7  N3  UNL     1      20.774   2.087  52.491  1.00  0.00    -0.275 NA
HETATM    8  C14 UNL     1      22.149   2.486  52.290  1.00  0.00     0.236 C 
HETATM    9  N4  UNL     1      22.118   3.967  52.047  1.00  0.00    -0.363 N 
HETATM   10  C15 UNL     1      21.557   4.579  50.836  1.00  0.00     0.043 C 
HETATM   11  C16 UNL     1      21.156   5.798  50.926  1.00  0.00     0.029 C 
HETATM   12  C19 UNL     1      21.460   3.804  49.542  1.00  0.00     0.028 C 
HETATM   13  C20 UNL     1      20.531   2.831  49.334  1.00  0.00     0.035 C 
HETATM   14 CL1  UNL     1      19.500   2.949  47.945  1.00  0.00    -0.087 Cl
HETATM   15  C21 UNL     1      22.598   4.535  48.997  1.00  0.00     0.154 C 
HETATM   16  N5  UNL     1      23.838   4.291  49.198  1.00  0.00    -0.183 NA
HETATM   17  H19 UNL     1      22.454   4.752  52.633  1.00  0.00     0.162 HD
ENDROOT
BRANCH   1  18
HETATM   18  C2  UNL     1      25.738   3.410  50.518  1.00  0.00     0.184 C 
HETATM   19  C1  UNL     1      26.748   3.779  49.430  1.00  0.00     0.048 C 
BRANCH  18  20
HETATM   20  C3  UNL     1      26.118   2.153  51.117  1.00  0.00    -0.079 C 
HETATM   21  C4  UNL     1      26.443   1.109  51.594  1.00  0.00    -0.103 C 
BRANCH  21  22
HETATM   22  C5  UNL     1      26.849  -0.197  52.163  1.00  0.00     0.111 C 
BRANCH  22  23
HETATM   23  C6  UNL     1      26.330  -0.311  53.602  1.00  0.00     0.133 C 
BRANCH  23  24
HETATM   24  N1  UNL     1      27.392  -0.398  54.561  1.00  0.00    -0.194 NA
HETATM   25  C7  UNL     1      28.665  -0.447  53.870  1.00  0.00     0.149 C 
HETATM   26  C8  UNL     1      29.070   0.751  54.664  1.00  0.00     0.210 C 
HETATM   27  O1  UNL     1      27.743   0.812  55.046  1.00  0.00    -0.302 OA
ENDBRANCH  23  24
ENDBRANCH  22  23
ENDBRANCH  21  22
ENDBRANCH  18  20
ENDBRANCH   1  18
BRANCH  11  28
HETATM   28  C17 UNL     1      20.635   6.271  49.687  1.00  0.00     0.078 C 
HETATM   29  C18 UNL     1      20.499   7.595  49.593  1.00  0.00     0.383 C 
HETATM   30  F1  UNL     1      20.934   8.047  50.786  1.00  0.00    -0.458 F 
ENDBRANCH  11  28
TORSDOF 6
ENDMDL
MODEL 4
REMARK VINA RESULT:      -7.6      2.152      3.960
REMARK  6 active torsions:
REMARK  status: ('A' for Active; 'I' for Inactive)
REMARK    1  A    between atoms: C2_2  and  C3_3 
REMARK    2  A    between atoms: C2_2  and  N2_11 
REMARK    3  A    between atoms: C4_4  and  C5_5 
REMARK    4  A    between atoms: C5_5  and  C6_6 
REMARK    5  A    between atoms: C6_6  and  N1_7 
REMARK    6  A    between atoms: C16_21  and  C17_22 
ROOT
HETATM    1  N2  UNL     1      24.056   3.722  51.015  1.00  0.00    -0.265 N 
HETATM    2  C9  UNL     1      23.004   4.237  50.217  1.00  0.00     0.120 C 
HETATM    3  C10 UNL     1      22.399   3.771  49.149  1.00  0.00    -0.018 C 
HETATM    4  C11 UNL     1      21.305   4.692  48.652  1.00  0.00     0.055 C 
HETATM    5  C12 UNL     1      19.990   3.952  49.075  1.00  0.00     0.076 C 
HETATM    6  C13 UNL     1      20.133   2.666  48.285  1.00  0.00     0.097 C 
HETATM    7  N3  UNL     1      21.223   2.376  47.674  1.00  0.00    -0.275 NA
HETATM    8  C14 UNL     1      22.507   2.503  48.325  1.00  0.00     0.236 C 
HETATM    9  N4  UNL     1      22.527   1.462  49.407  1.00  0.00    -0.363 N 
HETATM   10  C15 UNL     1      21.690   1.527  50.611  1.00  0.00     0.043 C 
HETATM   11  C16 UNL     1      21.432   0.418  51.208  1.00  0.00     0.029 C 
HETATM   12  C19 UNL     1      21.159   2.847  51.122  1.00  0.00     0.028 C 
HETATM   13  C20 UNL     1      20.133   3.511  50.522  1.00  0.00     0.035 C 
HETATM   14 CL1  UNL     1      18.757   3.954  51.477  1.00  0.00    -0.087 Cl
HETATM   15  C21 UNL     1      22.145   2.848  52.197  1.00  0.00     0.154 C 
HETATM   16  N5  UNL     1      23.366   3.225  52.122  1.00  0.00    -0.183 NA
HETATM   17  H19 UNL     1      23.082   0.591  49.492  1.00  0.00     0.162 HD
ENDROOT
BRANCH   1  18
HETATM   18  C2  UNL     1      25.489   3.630  50.915  1.00  0.00     0.184 C 
HETATM   19  C1  UNL     1      25.957   3.852  49.475  1.00  0.00     0.048 C 
BRANCH  18  20
HETATM   20  C3  UNL     1      25.902   2.320  51.356  1.00  0.00    -0.079 C 
HETATM   21  C4  UNL     1      26.237   1.228  51.703  1.00  0.00    -0.103 C 
BRANCH  21  22
HETATM   22  C5  UNL     1      26.635  -0.137  52.117  1.00  0.00     0.111 C 
BRANCH  22  23
HETATM   23  C6  UNL     1      26.187  -0.382  53.564  1.00  0.00     0.133 C 
BRANCH  23  24
HETATM   24  N1  UNL     1      27.296  -0.521  54.463  1.00  0.00    -0.194 NA
HETATM   25  C7  UNL     1      28.535  -0.480  53.713  1.00  0.00     0.149 C 
HETATM   26  C8  UNL     1      28.951   0.660  54.585  1.00  0.00     0.210 C 
HETATM   27  O1  UNL     1      27.643   0.654  55.031  1.00  0.00    -0.302 OA
ENDBRANCH  23  24
ENDBRANCH  22  23
ENDBRANCH  21  22
ENDBRANCH  18  20
ENDBRANCH   1  18
BRANCH  11  28
HETATM   28  C17 UNL     1      20.615   0.617  52.357  1.00  0.00     0.078 C 
HETATM   29  C18 UNL     1      20.812  -0.244  53.356  1.00  0.00     0.383 C 
HETATM   30  F1  UNL     1      21.785  -1.055  52.893  1.00  0.00    -0.458 F 
ENDBRANCH  11  28
TORSDOF 6
ENDMDL
MODEL 5
REMARK VINA RESULT:      -7.5      2.058      3.549
REMARK  6 active torsions:
REMARK  status: ('A' for Active; 'I' for Inactive)
REMARK    1  A    between atoms: C2_2  and  C3_3 
REMARK    2  A    between atoms: C2_2  and  N2_11 
REMARK    3  A    between atoms: C4_4  and  C5_5 
REMARK    4  A    between atoms: C5_5  and  C6_6 
REMARK    5  A    between atoms: C6_6  and  N1_7 
REMARK    6  A    between atoms: C16_21  and  C17_22 
ROOT
HETATM    1  N2  UNL     1      21.975   0.182  52.145  1.00  0.00    -0.265 N 
HETATM    2  C9  UNL     1      20.988   0.436  51.159  1.00  0.00     0.120 C 
HETATM    3  C10 UNL     1      19.988   1.286  51.112  1.00  0.00    -0.018 C 
HETATM    4  C11 UNL     1      19.206   1.192  49.818  1.00  0.00     0.055 C 
HETATM    5  C12 UNL     1      19.645   2.476  49.037  1.00  0.00     0.076 C 
HETATM    6  C13 UNL     1      19.159   3.554  49.986  1.00  0.00     0.097 C 
HETATM    7  N3  UNL     1      18.731   3.266  51.160  1.00  0.00    -0.275 NA
HETATM    8  C14 UNL     1      19.462   2.372  52.029  1.00  0.00     0.236 C 
HETATM    9  N4  UNL     1      20.735   3.087  52.382  1.00  0.00    -0.363 N 
HETATM   10  C15 UNL     1      21.812   3.348  51.419  1.00  0.00     0.043 C 
HETATM   11  C16 UNL     1      22.600   4.332  51.673  1.00  0.00     0.029 C 
HETATM   12  C19 UNL     1      21.982   2.492  50.185  1.00  0.00     0.028 C 
HETATM   13  C20 UNL     1      21.159   2.584  49.105  1.00  0.00     0.035 C 
HETATM   14 CL1  UNL     1      21.862   2.863  47.545  1.00  0.00    -0.087 Cl
HETATM   15  C21 UNL     1      23.122   1.814  50.791  1.00  0.00     0.154 C 
HETATM   16  N5  UNL     1      23.089   0.838  51.618  1.00  0.00    -0.183 NA
HETATM   17  H19 UNL     1      21.054   3.488  53.282  1.00  0.00     0.162 HD
ENDROOT
BRANCH   1  18
HETATM   18  C2  UNL     1      22.036  -0.522  53.398  1.00  0.00     0.184 C 
HETATM   19  C1  UNL     1      21.133   0.135  54.444  1.00  0.00     0.048 C 
BRANCH  18  20
HETATM   20  C3  UNL     1      23.399  -0.513  53.870  1.00  0.00    -0.079 C 
HETATM   21  C4  UNL     1      24.529  -0.485  54.255  1.00  0.00    -0.103 C 
BRANCH  21  22
HETATM   22  C5  UNL     1      25.935  -0.431  54.717  1.00  0.00     0.111 C 
BRANCH  22  23
HETATM   23  C6  UNL     1      26.701   0.614  53.897  1.00  0.00     0.133 C 
BRANCH  23  24
HETATM   24  N1  UNL     1      27.800   0.044  53.173  1.00  0.00    -0.194 NA
HETATM   25  C7  UNL     1      29.034   0.684  53.582  1.00  0.00     0.149 C 
HETATM   26  C8  UNL     1      29.548  -0.674  53.933  1.00  0.00     0.210 C 
HETATM   27  O1  UNL     1      28.247  -1.098  53.740  1.00  0.00    -0.302 OA
ENDBRANCH  23  24
ENDBRANCH  22  23
ENDBRANCH  21  22
ENDBRANCH  18  20
ENDBRANCH   1  18
BRANCH  11  28
HETATM   28  C17 UNL     1      23.597   4.479  50.666  1.00  0.00     0.078 C 
HETATM   29  C18 UNL     1      24.363   5.566  50.774  1.00  0.00     0.383 C 
HETATM   30  F1  UNL     1      23.891   6.182  51.876  1.00  0.00    -0.458 F 
ENDBRANCH  11  28
TORSDOF 6
ENDMDL
MODEL 6
REMARK VINA RESULT:      -7.3      1.776      2.429
REMARK  6 active torsions:
REMARK  status: ('A' for Active; 'I' for Inactive)
REMARK    1  A    between atoms: C2_2  and  C3_3 
REMARK    2  A    between atoms: C2_2  and  N2_11 
REMARK    3  A    between atoms: C4_4  and  C5_5 
REMARK    4  A    between atoms: C5_5  and  C6_6 
REMARK    5  A    between atoms: C6_6  and  N1_7 
REMARK    6  A    between atoms: C16_21  and  C17_22 
ROOT
HETATM    1  N2  UNL     1      21.061   0.584  51.763  1.00  0.00    -0.265 N 
HETATM    2  C9  UNL     1      20.130   1.651  51.694  1.00  0.00     0.120 C 
HETATM    3  C10 UNL     1      20.276   2.954  51.768  1.00  0.00    -0.018 C 
HETATM    4  C11 UNL     1      18.964   3.695  51.623  1.00  0.00     0.055 C 
HETATM    5  C12 UNL     1      19.047   4.297  50.180  1.00  0.00     0.076 C 
HETATM    6  C13 UNL     1      20.261   5.194  50.326  1.00  0.00     0.097 C 
HETATM    7  N3  UNL     1      21.001   5.150  51.372  1.00  0.00    -0.275 NA
HETATM    8  C14 UNL     1      21.458   3.892  51.917  1.00  0.00     0.236 C 
HETATM    9  N4  UNL     1      22.404   3.320  50.901  1.00  0.00    -0.363 N 
HETATM   10  C15 UNL     1      21.980   2.821  49.588  1.00  0.00     0.043 C 
HETATM   11  C16 UNL     1      22.863   2.803  48.653  1.00  0.00     0.029 C 
HETATM   12  C19 UNL     1      20.563   2.349  49.352  1.00  0.00     0.028 C 
HETATM   13  C20 UNL     1      19.512   3.204  49.231  1.00  0.00     0.035 C 
HETATM   14 CL1  UNL     1      18.508   3.095  47.822  1.00  0.00    -0.087 Cl
HETATM   15  C21 UNL     1      21.002   0.959  49.382  1.00  0.00     0.154 C 
HETATM   16  N5  UNL     1      21.205   0.236  50.419  1.00  0.00    -0.183 NA
HETATM   17  H19 UNL     1      23.431   3.187  50.938  1.00  0.00     0.162 HD
ENDROOT
BRANCH   1  18
HETATM   18  C2  UNL     1      21.777  -0.107  52.802  1.00  0.00     0.184 C 
HETATM   19  C1  UNL     1      21.041  -0.006  54.140  1.00  0.00     0.048 C 
BRANCH  18  20
HETATM   20  C3  UNL     1      23.088   0.481  52.933  1.00  0.00    -0.079 C 
HETATM   21  C4  UNL     1      24.170   0.970  53.061  1.00  0.00    -0.103 C 
BRANCH  21  22
HETATM   22  C5  UNL     1      25.503   1.587  53.243  1.00  0.00     0.111 C 
BRANCH  22  23
HETATM   23  C6  UNL     1      26.588   0.602  52.790  1.00  0.00     0.133 C 
BRANCH  23  24
HETATM   24  N1  UNL     1      27.144  -0.140  53.884  1.00  0.00    -0.194 NA
HETATM   25  C7  UNL     1      28.535  -0.439  53.610  1.00  0.00     0.149 C 
HETATM   26  C8  UNL     1      28.870   0.244  54.895  1.00  0.00     0.210 C 
HETATM   27  O1  UNL     1      27.552   0.664  54.890  1.00  0.00    -0.302 OA
ENDBRANCH  23  24
ENDBRANCH  22  23
ENDBRANCH  21  22
ENDBRANCH  18  20
ENDBRANCH   1  18
BRANCH  11  28
HETATM   28  C17 UNL     1      22.325   2.299  47.433  1.00  0.00     0.078 C 
HETATM   29  C18 UNL     1      22.162   3.202  46.465  1.00  0.00     0.383 C 
HETATM   30  F1  UNL     1      22.595   4.351  47.021  1.00  0.00    -0.458 F 
ENDBRANCH  11  28
TORSDOF 6
ENDMDL
MODEL 7
REMARK VINA RESULT:      -7.1      6.815      9.169
REMARK  6 active torsions:
REMARK  status: ('A' for Active; 'I' for Inactive)
REMARK    1  A    between atoms: C2_2  and  C3_3 
REMARK    2  A    between atoms: C2_2  and  N2_11 
REMARK    3  A    between atoms: C4_4  and  C5_5 
REMARK    4  A    between atoms: C5_5  and  C6_6 
REMARK    5  A    between atoms: C6_6  and  N1_7 
REMARK    6  A    between atoms: C16_21  and  C17_22 
ROOT
HETATM    1  N2  UNL     1      27.412   7.534  47.991  1.00  0.00    -0.265 N 
HETATM    2  C9  UNL     1      27.833   8.716  47.333  1.00  0.00     0.120 C 
HETATM    3  C10 UNL     1      28.359   9.833  47.779  1.00  0.00    -0.018 C 
HETATM    4  C11 UNL     1      28.660  10.818  46.669  1.00  0.00     0.055 C 
HETATM    5  C12 UNL     1      30.220  10.752  46.541  1.00  0.00     0.076 C 
HETATM    6  C13 UNL     1      30.628  11.223  47.924  1.00  0.00     0.097 C 
HETATM    7  N3  UNL     1      29.765  11.369  48.861  1.00  0.00    -0.275 NA
HETATM    8  C14 UNL     1      28.778  10.350  49.141  1.00  0.00     0.236 C 
HETATM    9  N4  UNL     1      29.542   9.170  49.669  1.00  0.00    -0.363 N 
HETATM   10  C15 UNL     1      30.441   8.351  48.847  1.00  0.00     0.043 C 
HETATM   11  C16 UNL     1      31.369   7.703  49.458  1.00  0.00     0.029 C 
HETATM   12  C19 UNL     1      30.276   8.277  47.346  1.00  0.00     0.028 C 
HETATM   13  C20 UNL     1      30.637   9.291  46.514  1.00  0.00     0.035 C 
HETATM   14 CL1  UNL     1      31.724   8.950  45.208  1.00  0.00    -0.087 Cl
HETATM   15  C21 UNL     1      29.689   6.947  47.458  1.00  0.00     0.154 C 
HETATM   16  N5  UNL     1      28.471   6.663  47.733  1.00  0.00    -0.183 NA
HETATM   17  H19 UNL     1      29.571   8.758  50.619  1.00  0.00     0.162 HD
ENDROOT
BRANCH   1  18
HETATM   18  C2  UNL     1      26.267   7.123  48.760  1.00  0.00     0.184 C 
HETATM   19  C1  UNL     1      26.196   7.875  50.090  1.00  0.00     0.048 C 
BRANCH  18  20
HETATM   20  C3  UNL     1      26.364   5.706  49.017  1.00  0.00    -0.079 C 
HETATM   21  C4  UNL     1      26.439   4.538  49.249  1.00  0.00    -0.103 C 
BRANCH  21  22
HETATM   22  C5  UNL     1      26.535   3.094  49.563  1.00  0.00     0.111 C 
BRANCH  22  23
HETATM   23  C6  UNL     1      26.319   2.882  51.067  1.00  0.00     0.133 C 
BRANCH  23  24
HETATM   24  N1  UNL     1      27.181   1.870  51.605  1.00  0.00    -0.194 NA
HETATM   25  C7  UNL     1      27.331   2.072  53.032  1.00  0.00     0.149 C 
HETATM   26  C8  UNL     1      26.836   0.675  53.217  1.00  0.00     0.210 C 
HETATM   27  O1  UNL     1      26.517   0.724  51.873  1.00  0.00    -0.302 OA
ENDBRANCH  23  24
ENDBRANCH  22  23
ENDBRANCH  21  22
ENDBRANCH  18  20
ENDBRANCH   1  18
BRANCH  11  28
HETATM   28  C17 UNL     1      32.169   6.951  48.550  1.00  0.00     0.078 C 
HETATM   29  C18 UNL     1      32.621   5.786  49.017  1.00  0.00     0.383 C 
HETATM   30  F1  UNL     1      32.125   5.728  50.269  1.00  0.00    -0.458 F 
ENDBRANCH  11  28
TORSDOF 6
ENDMDL
MODEL 8
REMARK VINA RESULT:      -7.1      3.951      6.688
REMARK  6 active torsions:
REMARK  status: ('A' for Active; 'I' for Inactive)
REMARK    1  A    between atoms: C2_2  and  C3_3 
REMARK    2  A    between atoms: C2_2  and  N2_11 
REMARK    3  A    between atoms: C4_4  and  C5_5 
REMARK    4  A    between atoms: C5_5  and  C6_6 
REMARK    5  A    between atoms: C6_6  and  N1_7 
REMARK    6  A    between atoms: C16_21  and  C17_22 
ROOT
HETATM    1  N2  UNL     1      21.998   0.521  52.983  1.00  0.00    -0.265 N 
HETATM    2  C9  UNL     1      21.920   0.541  51.568  1.00  0.00     0.120 C 
HETATM    3  C10 UNL     1      21.106   1.152  50.739  1.00  0.00    -0.018 C 
HETATM    4  C11 UNL     1      21.435   0.871  49.288  1.00  0.00     0.055 C 
HETATM    5  C12 UNL     1      22.089   2.208  48.801  1.00  0.00     0.076 C 
HETATM    6  C13 UNL     1      20.934   3.169  49.006  1.00  0.00     0.097 C 
HETATM    7  N3  UNL     1      19.873   2.812  49.631  1.00  0.00    -0.275 NA
HETATM    8  C14 UNL     1      19.942   2.111  50.893  1.00  0.00     0.236 C 
HETATM    9  N4  UNL     1      20.511   3.090  51.879  1.00  0.00    -0.363 N 
HETATM   10  C15 UNL     1      21.899   3.565  51.843  1.00  0.00     0.043 C 
HETATM   11  C16 UNL     1      22.146   4.701  52.394  1.00  0.00     0.029 C 
HETATM   12  C19 UNL     1      22.987   2.748  51.184  1.00  0.00     0.028 C 
HETATM   13  C20 UNL     1      23.116   2.644  49.833  1.00  0.00     0.035 C 
HETATM   14 CL1  UNL     1      24.638   3.045  49.109  1.00  0.00    -0.087 Cl
HETATM   15  C21 UNL     1      23.498   2.343  52.489  1.00  0.00     0.154 C 
HETATM   16  N5  UNL     1      23.058   1.396  53.228  1.00  0.00    -0.183 NA
HETATM   17  H19 UNL     1      20.069   3.565  52.688  1.00  0.00     0.162 HD
ENDROOT
BRANCH   1  18
HETATM   18  C2  UNL     1      21.296  -0.134  54.055  1.00  0.00     0.184 C 
HETATM   19  C1  UNL     1      22.059  -1.369  54.540  1.00  0.00     0.048 C 
BRANCH  18  20
HETATM   20  C3  UNL     1      19.993  -0.533  53.582  1.00  0.00    -0.079 C 
HETATM   21  C4  UNL     1      18.907  -0.861  53.210  1.00  0.00    -0.103 C 
BRANCH  21  22
HETATM   22  C5  UNL     1      17.555  -1.275  52.773  1.00  0.00     0.111 C 
BRANCH  22  23
HETATM   23  C6  UNL     1      17.092  -0.373  51.621  1.00  0.00     0.133 C 
BRANCH  23  24
HETATM   24  N1  UNL     1      15.665  -0.250  51.563  1.00  0.00    -0.194 NA
HETATM   25  C7  UNL     1      15.155   0.106  52.872  1.00  0.00     0.149 C 
HETATM   26  C8  UNL     1      14.523   1.298  52.232  1.00  0.00     0.210 C 
HETATM   27  O1  UNL     1      15.274   0.965  51.120  1.00  0.00    -0.302 OA
ENDBRANCH  23  24
ENDBRANCH  22  23
ENDBRANCH  21  22
ENDBRANCH  18  20
ENDBRANCH   1  18
BRANCH  11  28
HETATM   28  C17 UNL     1      23.525   5.046  52.290  1.00  0.00     0.078 C 
HETATM   29  C18 UNL     1      23.784   6.166  51.612  1.00  0.00     0.383 C 
HETATM   30  F1  UNL     1      22.565   6.605  51.242  1.00  0.00    -0.458 F 
ENDBRANCH  11  28
TORSDOF 6
ENDMDL
MODEL 9
REMARK VINA RESULT:      -6.8      2.238      3.678
REMARK  6 active torsions:
REMARK  status: ('A' for Active; 'I' for Inactive)
REMARK    1  A    between atoms: C2_2  and  C3_3 
REMARK    2  A    between atoms: C2_2  and  N2_11 
REMARK    3  A    between atoms: C4_4  and  C5_5 
REMARK    4  A    between atoms: C5_5  and  C6_6 
REMARK    5  A    between atoms: C6_6  and  N1_7 
REMARK    6  A    between atoms: C16_21  and  C17_22 
ROOT
HETATM    1  N2  UNL     1      21.670   1.020  51.323  1.00  0.00    -0.265 N 
HETATM    2  C9  UNL     1      22.077   1.227  49.981  1.00  0.00     0.120 C 
HETATM    3  C10 UNL     1      21.436   1.667  48.923  1.00  0.00    -0.018 C 
HETATM    4  C11 UNL     1      22.317   1.727  47.693  1.00  0.00     0.055 C 
HETATM    5  C12 UNL     1      22.586   3.259  47.516  1.00  0.00     0.076 C 
HETATM    6  C13 UNL     1      21.173   3.763  47.299  1.00  0.00     0.097 C 
HETATM    7  N3  UNL     1      20.158   2.999  47.475  1.00  0.00    -0.275 NA
HETATM    8  C14 UNL     1      20.034   2.174  48.656  1.00  0.00     0.236 C 
HETATM    9  N4  UNL     1      19.851   3.123  49.806  1.00  0.00    -0.363 N 
HETATM   10  C15 UNL     1      20.909   4.012  50.299  1.00  0.00     0.043 C 
HETATM   11  C16 UNL     1      20.540   5.071  50.929  1.00  0.00     0.029 C 
HETATM   12  C19 UNL     1      22.368   3.690  50.074  1.00  0.00     0.028 C 
HETATM   13  C20 UNL     1      22.978   3.836  48.866  1.00  0.00     0.035 C 
HETATM   14 CL1  UNL     1      24.413   4.803  48.770  1.00  0.00    -0.087 Cl
HETATM   15  C21 UNL     1      22.510   3.276  51.466  1.00  0.00     0.154 C 
HETATM   16  N5  UNL     1      22.206   2.138  51.966  1.00  0.00    -0.183 NA
HETATM   17  H19 UNL     1      19.024   3.305  50.402  1.00  0.00     0.162 HD
ENDROOT
BRANCH   1  18
HETATM   18  C2  UNL     1      20.921   0.023  52.041  1.00  0.00     0.184 C 
HETATM   19  C1  UNL     1      19.561   0.568  52.485  1.00  0.00     0.048 C 
BRANCH  18  20
HETATM   20  C3  UNL     1      21.676  -0.379  53.203  1.00  0.00    -0.079 C 
HETATM   21  C4  UNL     1      22.284  -0.713  54.174  1.00  0.00    -0.103 C 
BRANCH  21  22
HETATM   22  C5  UNL     1      23.017  -1.122  55.394  1.00  0.00     0.111 C 
BRANCH  22  23
HETATM   23  C6  UNL     1      24.497  -1.338  55.052  1.00  0.00     0.133 C 
BRANCH  23  24
HETATM   24  N1  UNL     1      25.031  -0.282  54.242  1.00  0.00    -0.194 NA
HETATM   25  C7  UNL     1      26.314   0.133  54.771  1.00  0.00     0.149 C 
HETATM   26  C8  UNL     1      26.893  -0.162  53.426  1.00  0.00     0.210 C 
HETATM   27  O1  UNL     1      25.673  -0.750  53.150  1.00  0.00    -0.302 OA
ENDBRANCH  23  24
ENDBRANCH  22  23
ENDBRANCH  21  22
ENDBRANCH  18  20
ENDBRANCH   1  18
BRANCH  11  28
HETATM   28  C17 UNL     1      21.657   5.846  51.354  1.00  0.00     0.078 C 
HETATM   29  C18 UNL     1      21.670   7.111  50.932  1.00  0.00     0.383 C 
HETATM   30  F1  UNL     1      20.541   7.216  50.202  1.00  0.00    -0.458 F 
ENDBRANCH  11  28
TORSDOF 6
ENDMDL
