MODEL 1
REMARK VINA RESULT:      -8.7      0.000      0.000
REMARK  7 active torsions:
REMARK  status: ('A' for Active; 'I' for Inactive)
REMARK    1  A    between atoms: O1_1  and  C1_2 
REMARK    2  A    between atoms: C1_2  and  P1_3 
REMARK    3  A    between atoms: C3_6  and  N1_7 
REMARK    4  A    between atoms: N1_7  and  C4_8 
REMARK    5  A    between atoms: C4_8  and  C5_9 
REMARK    6  A    between atoms: C4_8  and  C13_18 
REMARK    7  A    between atoms: C5_9  and  C6_10 
ROOT
HETATM    1  C4  UNL     1      23.762   0.983  53.046  1.00  0.00     0.122 C 
ENDROOT
BRANCH   1   2
HETATM    2  N1  UNL     1      24.193   1.181  51.670  1.00  0.00    -0.360 N 
HETATM    3  H4  UNL     1      24.354   0.384  50.978  1.00  0.00     0.162 HD
BRANCH   2   4
HETATM    4  C3  UNL     1      24.428   2.508  51.159  1.00  0.00     0.166 A 
HETATM    5  S1  UNL     1      26.070   3.014  50.594  1.00  0.00    -0.062 SA
HETATM    6  C2  UNL     1      25.662   4.714  50.109  1.00  0.00     0.083 A 
HETATM    7  P1  UNL     1      24.041   4.939  50.419  1.00  0.00     0.048 P 
HETATM    8  N3  UNL     1      23.545   3.397  51.065  1.00  0.00    -0.233 NA
BRANCH   7   9
HETATM    9  C1  UNL     1      23.744   6.409  51.140  1.00  0.00     0.063 C 
BRANCH   9  10
HETATM   10  O1  UNL     1      24.476   6.613  52.353  1.00  0.00     0.000 OA
HETATM   11  H1  UNL     1      23.940   6.794  53.238  1.00  0.00     0.000 HD
ENDBRANCH   9  10
ENDBRANCH   7   9
ENDBRANCH   2   4
ENDBRANCH   1   2
BRANCH   1  12
HETATM   12  C5  UNL     1      24.556   0.010  53.826  1.00  0.00     0.090 C 
BRANCH  12  13
HETATM   13  C6  UNL     1      25.970   0.480  54.069  1.00  0.00     0.050 A 
HETATM   14  N2  UNL     1      26.826   1.368  54.511  1.00  0.00    -0.252 NA
HETATM   15  C7  UNL     1      27.946   0.616  54.157  1.00  0.00     0.069 A 
HETATM   16  C8  UNL     1      29.324   0.590  54.159  1.00  0.00     0.032 A 
HETATM   17  C12 UNL     1      27.099  -0.357  53.674  1.00  0.00     0.017 A 
HETATM   18  C9  UNL     1      29.948  -0.511  53.629  1.00  0.00     0.002 A 
HETATM   19  C10 UNL     1      29.182  -1.537  53.121  1.00  0.00     0.001 A 
HETATM   20  C11 UNL     1      27.816  -1.423  53.163  1.00  0.00     0.016 A 
ENDBRANCH  12  13
ENDBRANCH   1  12
BRANCH   1  21
HETATM   21  C13 UNL     1      22.350   0.525  52.948  1.00  0.00    -0.035 A 
HETATM   22  C14 UNL     1      22.142  -0.457  53.927  1.00  0.00     0.010 A 
HETATM   23  C15 UNL     1      20.906  -1.088  54.106  1.00  0.00     0.019 A 
HETATM   24  C16 UNL     1      19.840  -0.749  53.304  1.00  0.00     0.011 A 
HETATM   25 BR1  UNL     1      18.107  -1.523  53.433  1.00  0.00    -0.051 Br
HETATM   26  C17 UNL     1      20.048   0.215  52.345  1.00  0.00     0.019 A 
HETATM   27  C18 UNL     1      21.262   0.837  52.167  1.00  0.00     0.010 A 
ENDBRANCH   1  21
TORSDOF 7
ENDMDL
MODEL 2
REMARK VINA RESULT:      -8.4      3.130      5.816
REMARK  7 active torsions:
REMARK  status: ('A' for Active; 'I' for Inactive)
REMARK    1  A    between atoms: O1_1  and  C1_2 
REMARK    2  A    between atoms: C1_2  and  P1_3 
REMARK    3  A    between atoms: C3_6  and  N1_7 
REMARK    4  A    between atoms: N1_7  and  C4_8 
REMARK    5  A    between atoms: C4_8  and  C5_9 
REMARK    6  A    between atoms: C4_8  and  C13_18 
REMARK    7  A    between atoms: C5_9  and  C6_10 
ROOT
HETATM    1  C4  UNL     1      24.730   1.250  52.252  1.00  0.00     0.122 C 
ENDROOT
BRANCH   1   2
HETATM    2  N1  UNL     1      25.470   1.343  53.502  1.00  0.00    -0.360 N 
HETATM    3  H4  UNL     1      25.090   1.811  54.383  1.00  0.00     0.162 HD
BRANCH   2   4
HETATM    4  C3  UNL     1      26.794   0.785  53.613  1.00  0.00     0.166 A 
HETATM    5  S1  UNL     1      28.262   1.806  53.343  1.00  0.00    -0.062 SA
HETATM    6  C2  UNL     1      29.519   0.529  53.627  1.00  0.00     0.083 A 
HETATM    7  P1  UNL     1      28.713  -0.885  53.980  1.00  0.00     0.048 P 
HETATM    8  N3  UNL     1      27.036  -0.415  53.896  1.00  0.00    -0.233 NA
BRANCH   7   9
HETATM    9  C1  UNL     1      29.372  -2.191  53.187  1.00  0.00     0.063 C 
BRANCH   9  10
HETATM   10  O1  UNL     1      28.434  -3.240  52.927  1.00  0.00     0.000 OA
HETATM   11  H1  UNL     1      28.029  -3.765  53.742  1.00  0.00     0.000 HD
ENDBRANCH   9  10
ENDBRANCH   7   9
ENDBRANCH   2   4
ENDBRANCH   1   2
BRANCH   1  12
HETATM   12  C5  UNL     1      24.470   2.536  51.572  1.00  0.00     0.090 C 
BRANCH  12  13
HETATM   13  C6  UNL     1      25.610   2.958  50.676  1.00  0.00     0.050 A 
HETATM   14  N2  UNL     1      26.737   2.710  50.056  1.00  0.00    -0.252 NA
HETATM   15  C7  UNL     1      26.825   3.982  49.489  1.00  0.00     0.069 A 
HETATM   16  C8  UNL     1      27.586   4.796  48.678  1.00  0.00     0.032 A 
HETATM   17  C12 UNL     1      25.642   4.306  50.115  1.00  0.00     0.017 A 
HETATM   18  C9  UNL     1      27.141   6.073  48.450  1.00  0.00     0.002 A 
HETATM   19  C10 UNL     1      25.965   6.489  49.034  1.00  0.00     0.001 A 
HETATM   20  C11 UNL     1      25.275   5.607  49.827  1.00  0.00     0.016 A 
ENDBRANCH  12  13
ENDBRANCH   1  12
BRANCH   1  21
HETATM   21  C13 UNL     1      23.444   0.596  52.611  1.00  0.00    -0.035 A 
HETATM   22  C14 UNL     1      22.408   1.286  51.964  1.00  0.00     0.010 A 
HETATM   23  C15 UNL     1      21.065   0.913  52.087  1.00  0.00     0.019 A 
HETATM   24  C16 UNL     1      20.723  -0.169  52.867  1.00  0.00     0.011 A 
HETATM   25 BR1  UNL     1      18.943  -0.787  53.126  1.00  0.00    -0.051 Br
HETATM   26  C17 UNL     1      21.741  -0.844  53.499  1.00  0.00     0.019 A 
HETATM   27  C18 UNL     1      23.062  -0.479  53.380  1.00  0.00     0.010 A 
ENDBRANCH   1  21
TORSDOF 7
ENDMDL
MODEL 3
REMARK VINA RESULT:      -8.4      3.873      5.857
REMARK  7 active torsions:
REMARK  status: ('A' for Active; 'I' for Inactive)
REMARK    1  A    between atoms: O1_1  and  C1_2 
REMARK    2  A    between atoms: C1_2  and  P1_3 
REMARK    3  A    between atoms: C3_6  and  N1_7 
REMARK    4  A    between atoms: N1_7  and  C4_8 
REMARK    5  A    between atoms: C4_8  and  C5_9 
REMARK    6  A    between atoms: C4_8  and  C13_18 
REMARK    7  A    between atoms: C5_9  and  C6_10 
ROOT
HETATM    1  C4  UNL     1      25.072   2.098  51.332  1.00  0.00     0.122 C 
ENDROOT
BRANCH   1   2
HETATM    2  N1  UNL     1      23.688   1.993  50.891  1.00  0.00    -0.360 N 
HETATM    3  H4  UNL     1      23.353   2.270  49.916  1.00  0.00     0.162 HD
BRANCH   2   4
HETATM    4  C3  UNL     1      22.672   1.490  51.781  1.00  0.00     0.166 A 
HETATM    5  S1  UNL     1      21.225   2.489  52.205  1.00  0.00    -0.062 SA
HETATM    6  C2  UNL     1      20.406   1.301  53.305  1.00  0.00     0.083 A 
HETATM    7  P1  UNL     1      21.367  -0.058  53.365  1.00  0.00     0.048 P 
HETATM    8  N3  UNL     1      22.701   0.355  52.319  1.00  0.00    -0.233 NA
BRANCH   7   9
HETATM    9  C1  UNL     1      21.524  -0.641  54.915  1.00  0.00     0.063 C 
BRANCH   9  10
HETATM   10  O1  UNL     1      21.924  -2.014  54.976  1.00  0.00     0.000 OA
HETATM   11  H1  UNL     1      22.663  -2.351  54.310  1.00  0.00     0.000 HD
ENDBRANCH   9  10
ENDBRANCH   7   9
ENDBRANCH   2   4
ENDBRANCH   1   2
BRANCH   1  12
HETATM   12  C5  UNL     1      25.258   2.430  52.760  1.00  0.00     0.090 C 
BRANCH  12  13
HETATM   13  C6  UNL     1      26.639   2.080  53.261  1.00  0.00     0.050 A 
HETATM   14  N2  UNL     1      27.769   2.406  53.837  1.00  0.00    -0.252 NA
HETATM   15  C7  UNL     1      28.314   1.127  53.727  1.00  0.00     0.069 A 
HETATM   16  C8  UNL     1      29.423   0.355  53.997  1.00  0.00     0.032 A 
HETATM   17  C12 UNL     1      27.149   0.720  53.113  1.00  0.00     0.017 A 
HETATM   18  C9  UNL     1      29.394  -0.965  53.626  1.00  0.00     0.002 A 
HETATM   19  C10 UNL     1      28.269  -1.464  53.006  1.00  0.00     0.001 A 
HETATM   20  C11 UNL     1      27.212  -0.619  52.778  1.00  0.00     0.016 A 
ENDBRANCH  12  13
ENDBRANCH   1  12
BRANCH   1  21
HETATM   21  C13 UNL     1      25.670   3.161  50.480  1.00  0.00    -0.035 A 
HETATM   22  C14 UNL     1      24.866   4.305  50.583  1.00  0.00     0.010 A 
HETATM   23  C15 UNL     1      25.161   5.494  49.906  1.00  0.00     0.019 A 
HETATM   24  C16 UNL     1      26.277   5.567  49.104  1.00  0.00     0.011 A 
HETATM   25 BR1  UNL     1      26.800   7.112  48.126  1.00  0.00    -0.051 Br
HETATM   26  C17 UNL     1      27.063   4.443  49.005  1.00  0.00     0.019 A 
HETATM   27  C18 UNL     1      26.775   3.273  49.670  1.00  0.00     0.010 A 
ENDBRANCH   1  21
TORSDOF 7
ENDMDL
MODEL 4
REMARK VINA RESULT:      -8.3      4.101      7.134
REMARK  7 active torsions:
REMARK  status: ('A' for Active; 'I' for Inactive)
REMARK    1  A    between atoms: O1_1  and  C1_2 
REMARK    2  A    between atoms: C1_2  and  P1_3 
REMARK    3  A    between atoms: C3_6  and  N1_7 
REMARK    4  A    between atoms: N1_7  and  C4_8 
REMARK    5  A    between atoms: C4_8  and  C5_9 
REMARK    6  A    between atoms: C4_8  and  C13_18 
REMARK    7  A    between atoms: C5_9  and  C6_10 
ROOT
HETATM    1  C4  UNL     1      24.809   2.883  51.074  1.00  0.00     0.122 C 
ENDROOT
BRANCH   1   2
HETATM    2  N1  UNL     1      26.121   2.254  51.021  1.00  0.00    -0.360 N 
HETATM    3  H4  UNL     1      26.856   2.475  50.279  1.00  0.00     0.162 HD
BRANCH   2   4
HETATM    4  C3  UNL     1      26.503   1.272  52.005  1.00  0.00     0.166 A 
HETATM    5  S1  UNL     1      26.530   1.678  53.767  1.00  0.00    -0.062 SA
HETATM    6  C2  UNL     1      27.072   0.064  54.394  1.00  0.00     0.083 A 
HETATM    7  P1  UNL     1      27.263  -0.937  53.077  1.00  0.00     0.048 P 
HETATM    8  N3  UNL     1      26.837   0.092  51.734  1.00  0.00    -0.233 NA
BRANCH   7   9
HETATM    9  C1  UNL     1      28.659  -1.836  53.176  1.00  0.00     0.063 C 
BRANCH   9  10
HETATM   10  O1  UNL     1      28.439  -3.249  53.117  1.00  0.00     0.000 OA
HETATM   11  H1  UNL     1      27.981  -3.650  52.261  1.00  0.00     0.000 HD
ENDBRANCH   9  10
ENDBRANCH   7   9
ENDBRANCH   2   4
ENDBRANCH   1   2
BRANCH   1  12
HETATM   12  C5  UNL     1      23.693   2.064  50.557  1.00  0.00     0.090 C 
BRANCH  12  13
HETATM   13  C6  UNL     1      22.629   1.811  51.599  1.00  0.00     0.050 A 
HETATM   14  N2  UNL     1      21.481   2.096  52.162  1.00  0.00    -0.252 NA
HETATM   15  C7  UNL     1      21.577   1.079  53.112  1.00  0.00     0.069 A 
HETATM   16  C8  UNL     1      20.945   0.482  54.180  1.00  0.00     0.032 A 
HETATM   17  C12 UNL     1      22.793   0.729  52.565  1.00  0.00     0.017 A 
HETATM   18  C9  UNL     1      21.568  -0.579  54.786  1.00  0.00     0.002 A 
HETATM   19  C10 UNL     1      22.789  -1.003  54.308  1.00  0.00     0.001 A 
HETATM   20  C11 UNL     1      23.342  -0.346  53.238  1.00  0.00     0.016 A 
ENDBRANCH  12  13
ENDBRANCH   1  12
BRANCH   1  21
HETATM   21  C13 UNL     1      24.944   4.127  50.269  1.00  0.00    -0.035 A 
HETATM   22  C14 UNL     1      26.242   4.165  49.740  1.00  0.00     0.010 A 
HETATM   23  C15 UNL     1      26.690   5.208  48.922  1.00  0.00     0.019 A 
HETATM   24  C16 UNL     1      25.842   6.247  48.611  1.00  0.00     0.011 A 
HETATM   25 BR1  UNL     1      26.313   7.728  47.515  1.00  0.00    -0.051 Br
HETATM   26  C17 UNL     1      24.569   6.206  49.131  1.00  0.00     0.019 A 
HETATM   27  C18 UNL     1      24.127   5.182  49.935  1.00  0.00     0.010 A 
ENDBRANCH   1  21
TORSDOF 7
ENDMDL
MODEL 5
REMARK VINA RESULT:      -7.9      2.913      5.714
REMARK  7 active torsions:
REMARK  status: ('A' for Active; 'I' for Inactive)
REMARK    1  A    between atoms: O1_1  and  C1_2 
REMARK    2  A    between atoms: C1_2  and  P1_3 
REMARK    3  A    between atoms: C3_6  and  N1_7 
REMARK    4  A    between atoms: N1_7  and  C4_8 
REMARK    5  A    between atoms: C4_8  and  C5_9 
REMARK    6  A    between atoms: C4_8  and  C13_18 
REMARK    7  A    between atoms: C5_9  and  C6_10 
ROOT
HETATM    1  C4  UNL     1      25.138   2.240  51.744  1.00  0.00     0.122 C 
ENDROOT
BRANCH   1   2
HETATM    2  N1  UNL     1      25.909   3.338  51.176  1.00  0.00    -0.360 N 
HETATM    3  H4  UNL     1      26.974   3.399  51.218  1.00  0.00     0.162 HD
BRANCH   2   4
HETATM    4  C3  UNL     1      25.246   4.428  50.506  1.00  0.00     0.166 A 
HETATM    5  S1  UNL     1      26.045   5.310  49.144  1.00  0.00    -0.062 SA
HETATM    6  C2  UNL     1      24.717   6.493  48.790  1.00  0.00     0.083 A 
HETATM    7  P1  UNL     1      23.480   6.180  49.860  1.00  0.00     0.048 P 
HETATM    8  N3  UNL     1      24.098   4.846  50.798  1.00  0.00    -0.233 NA
BRANCH   7   9
HETATM    9  C1  UNL     1      22.845   7.577  50.503  1.00  0.00     0.063 C 
BRANCH   9  10
HETATM   10  O1  UNL     1      21.632   7.373  51.236  1.00  0.00     0.000 OA
HETATM   11  H1  UNL     1      21.428   6.414  51.612  1.00  0.00     0.000 HD
ENDBRANCH   9  10
ENDBRANCH   7   9
ENDBRANCH   2   4
ENDBRANCH   1   2
BRANCH   1  12
HETATM   12  C5  UNL     1      24.271   2.599  52.886  1.00  0.00     0.090 C 
BRANCH  12  13
HETATM   13  C6  UNL     1      22.916   1.938  52.814  1.00  0.00     0.050 A 
HETATM   14  N2  UNL     1      21.669   1.915  52.414  1.00  0.00    -0.252 NA
HETATM   15  C7  UNL     1      21.389   0.690  53.021  1.00  0.00     0.069 A 
HETATM   16  C8  UNL     1      20.409  -0.255  53.237  1.00  0.00     0.032 A 
HETATM   17  C12 UNL     1      22.690   0.655  53.473  1.00  0.00     0.017 A 
HETATM   18  C9  UNL     1      20.735  -1.361  53.978  1.00  0.00     0.002 A 
HETATM   19  C10 UNL     1      22.015  -1.485  54.474  1.00  0.00     0.001 A 
HETATM   20  C11 UNL     1      22.924  -0.492  54.207  1.00  0.00     0.016 A 
ENDBRANCH  12  13
ENDBRANCH   1  12
BRANCH   1  21
HETATM   21  C13 UNL     1      26.150   1.236  52.169  1.00  0.00    -0.035 A 
HETATM   22  C14 UNL     1      27.266   1.925  52.665  1.00  0.00     0.010 A 
HETATM   23  C15 UNL     1      28.398   1.267  53.158  1.00  0.00     0.019 A 
HETATM   24  C16 UNL     1      28.440  -0.109  53.167  1.00  0.00     0.011 A 
HETATM   25 BR1  UNL     1      29.909  -1.136  53.805  1.00  0.00    -0.051 Br
HETATM   26  C17 UNL     1      27.344  -0.782  52.681  1.00  0.00     0.019 A 
HETATM   27  C18 UNL     1      26.230  -0.137  52.195  1.00  0.00     0.010 A 
ENDBRANCH   1  21
TORSDOF 7
ENDMDL
MODEL 6
REMARK VINA RESULT:      -7.8      3.168      5.697
REMARK  7 active torsions:
REMARK  status: ('A' for Active; 'I' for Inactive)
REMARK    1  A    between atoms: O1_1  and  C1_2 
REMARK    2  A    between atoms: C1_2  and  P1_3 
REMARK    3  A    between atoms: C3_6  and  N1_7 
REMARK    4  A    between atoms: N1_7  and  C4_8 
REMARK    5  A    between atoms: C4_8  and  C5_9 
REMARK    6  A    between atoms: C4_8  and  C13_18 
REMARK    7  A    between atoms: C5_9  and  C6_10 
ROOT
HETATM    1  C4  UNL     1      24.518   3.145  51.347  1.00  0.00     0.122 C 
ENDROOT
BRANCH   1   2
HETATM    2  N1  UNL     1      23.983   4.223  52.167  1.00  0.00    -0.360 N 
HETATM    3  H4  UNL     1      23.894   4.174  53.229  1.00  0.00     0.162 HD
BRANCH   2   4
HETATM    4  C3  UNL     1      23.535   5.452  51.559  1.00  0.00     0.166 A 
HETATM    5  S1  UNL     1      21.780   5.750  51.242  1.00  0.00    -0.062 SA
HETATM    6  C2  UNL     1      21.930   7.401  50.504  1.00  0.00     0.083 A 
HETATM    7  P1  UNL     1      23.549   7.790  50.493  1.00  0.00     0.048 P 
HETATM    8  N3  UNL     1      24.297   6.388  51.211  1.00  0.00    -0.233 NA
BRANCH   7   9
HETATM    9  C1  UNL     1      24.013   8.479  49.051  1.00  0.00     0.063 C 
BRANCH   9  10
HETATM   10  O1  UNL     1      24.854   7.637  48.256  1.00  0.00     0.000 OA
HETATM   11  H1  UNL     1      25.371   6.854  48.728  1.00  0.00     0.000 HD
ENDBRANCH   9  10
ENDBRANCH   7   9
ENDBRANCH   2   4
ENDBRANCH   1   2
BRANCH   1  12
HETATM   12  C5  UNL     1      23.515   2.209  50.798  1.00  0.00     0.090 C 
BRANCH  12  13
HETATM   13  C6  UNL     1      22.439   1.860  51.798  1.00  0.00     0.050 A 
HETATM   14  N2  UNL     1      21.275   2.081  52.358  1.00  0.00    -0.252 NA
HETATM   15  C7  UNL     1      21.376   1.000  53.235  1.00  0.00     0.069 A 
HETATM   16  C8  UNL     1      20.738   0.314  54.246  1.00  0.00     0.032 A 
HETATM   17  C12 UNL     1      22.608   0.715  52.688  1.00  0.00     0.017 A 
HETATM   18  C9  UNL     1      21.374  -0.774  54.785  1.00  0.00     0.002 A 
HETATM   19  C10 UNL     1      22.612  -1.138  54.302  1.00  0.00     0.001 A 
HETATM   20  C11 UNL     1      23.169  -0.394  53.293  1.00  0.00     0.016 A 
ENDBRANCH  12  13
ENDBRANCH   1  12
BRANCH   1  21
HETATM   21  C13 UNL     1      25.461   2.416  52.236  1.00  0.00    -0.035 A 
HETATM   22  C14 UNL     1      26.214   1.537  51.444  1.00  0.00     0.010 A 
HETATM   23  C15 UNL     1      27.205   0.705  51.978  1.00  0.00     0.019 A 
HETATM   24  C16 UNL     1      27.470   0.735  53.329  1.00  0.00     0.011 A 
HETATM   25 BR1  UNL     1      28.784  -0.336  54.190  1.00  0.00    -0.051 Br
HETATM   26  C17 UNL     1      26.731   1.599  54.102  1.00  0.00     0.019 A 
HETATM   27  C18 UNL     1      25.756   2.417  53.580  1.00  0.00     0.010 A 
ENDBRANCH   1  21
TORSDOF 7
ENDMDL
MODEL 7
REMARK VINA RESULT:      -7.8      2.374      2.559
REMARK  7 active torsions:
REMARK  status: ('A' for Active; 'I' for Inactive)
REMARK    1  A    between atoms: O1_1  and  C1_2 
REMARK    2  A    between atoms: C1_2  and  P1_3 
REMARK    3  A    between atoms: C3_6  and  N1_7 
REMARK    4  A    between atoms: N1_7  and  C4_8 
REMARK    5  A    between atoms: C4_8  and  C5_9 
REMARK    6  A    between atoms: C4_8  and  C13_18 
REMARK    7  A    between atoms: C5_9  and  C6_10 
ROOT
HETATM    1  C4  UNL     1      24.602   3.010  52.304  1.00  0.00     0.122 C 
ENDROOT
BRANCH   1   2
HETATM    2  N1  UNL     1      25.600   3.068  51.245  1.00  0.00    -0.360 N 
HETATM    3  H4  UNL     1      26.258   2.263  51.005  1.00  0.00     0.162 HD
BRANCH   2   4
HETATM    4  C3  UNL     1      25.749   4.257  50.443  1.00  0.00     0.166 A 
HETATM    5  S1  UNL     1      27.002   4.354  49.143  1.00  0.00    -0.062 SA
HETATM    6  C2  UNL     1      26.647   6.038  48.569  1.00  0.00     0.083 A 
HETATM    7  P1  UNL     1      25.392   6.620  49.497  1.00  0.00     0.048 P 
HETATM    8  N3  UNL     1      25.047   5.290  50.572  1.00  0.00    -0.233 NA
BRANCH   7   9
HETATM    9  C1  UNL     1      25.654   8.189  49.984  1.00  0.00     0.063 C 
BRANCH   9  10
HETATM   10  O1  UNL     1      26.838   8.357  50.772  1.00  0.00     0.000 OA
HETATM   11  H1  UNL     1      27.281   7.506  51.199  1.00  0.00     0.000 HD
ENDBRANCH   9  10
ENDBRANCH   7   9
ENDBRANCH   2   4
ENDBRANCH   1   2
BRANCH   1  12
HETATM   12  C5  UNL     1      24.963   2.179  53.471  1.00  0.00     0.090 C 
BRANCH  12  13
HETATM   13  C6  UNL     1      26.454   1.986  53.605  1.00  0.00     0.050 A 
HETATM   14  N2  UNL     1      27.658   2.452  53.831  1.00  0.00    -0.252 NA
HETATM   15  C7  UNL     1      28.279   1.213  53.669  1.00  0.00     0.069 A 
HETATM   16  C8  UNL     1      29.492   0.558  53.685  1.00  0.00     0.032 A 
HETATM   17  C12 UNL     1      27.041   0.661  53.423  1.00  0.00     0.017 A 
HETATM   18  C9  UNL     1      29.498  -0.789  53.431  1.00  0.00     0.002 A 
HETATM   19  C10 UNL     1      28.306  -1.430  53.173  1.00  0.00     0.001 A 
HETATM   20  C11 UNL     1      27.148  -0.695  53.179  1.00  0.00     0.016 A 
ENDBRANCH  12  13
ENDBRANCH   1  12
BRANCH   1  21
HETATM   21  C13 UNL     1      23.379   2.470  51.653  1.00  0.00    -0.035 A 
HETATM   22  C14 UNL     1      22.269   3.137  52.190  1.00  0.00     0.010 A 
HETATM   23  C15 UNL     1      20.958   2.867  51.780  1.00  0.00     0.019 A 
HETATM   24  C16 UNL     1      20.726   1.915  50.812  1.00  0.00     0.011 A 
HETATM   25 BR1  UNL     1      19.003   1.444  50.160  1.00  0.00    -0.051 Br
HETATM   26  C17 UNL     1      21.817   1.263  50.287  1.00  0.00     0.019 A 
HETATM   27  C18 UNL     1      23.106   1.527  50.689  1.00  0.00     0.010 A 
ENDBRANCH   1  21
TORSDOF 7
ENDMDL
MODEL 8
REMARK VINA RESULT:      -7.8      3.754      6.891
REMARK  7 active torsions:
REMARK  status: ('A' for Active; 'I' for Inactive)
REMARK    1  A    between atoms: O1_1  and  C1_2 
REMARK    2  A    between atoms: C1_2  and  P1_3 
REMARK    3  A    between atoms: C3_6  and  N1_7 
REMARK    4  A    between atoms: N1_7  and  C4_8 
REMARK    5  A    between atoms: C4_8  and  C5_9 
REMARK    6  A    between atoms: C4_8  and  C13_18 
REMARK    7  A    between atoms: C5_9  and  C6_10 
ROOT
HETATM    1  C4  UNL     1      25.250   2.789  52.098  1.00  0.00     0.122 C 
ENDROOT
BRANCH   1   2
HETATM    2  N1  UNL     1      24.223   2.662  53.123  1.00  0.00    -0.360 N 
HETATM    3  H4  UNL     1      24.263   3.159  54.066  1.00  0.00     0.162 HD
BRANCH   2   4
HETATM    4  C3  UNL     1      23.065   1.833  52.901  1.00  0.00     0.166 A 
HETATM    5  S1  UNL     1      21.552   2.516  52.183  1.00  0.00    -0.062 SA
HETATM    6  C2  UNL     1      20.558   0.998  52.187  1.00  0.00     0.083 A 
HETATM    7  P1  UNL     1      21.509  -0.211  52.828  1.00  0.00     0.048 P 
HETATM    8  N3  UNL     1      23.008   0.609  53.177  1.00  0.00    -0.233 NA
BRANCH   7   9
HETATM    9  C1  UNL     1      20.669  -1.153  53.912  1.00  0.00     0.063 C 
BRANCH   9  10
HETATM   10  O1  UNL     1      19.294  -0.780  54.053  1.00  0.00     0.000 OA
HETATM   11  H1  UNL     1      18.614  -1.079  53.310  1.00  0.00     0.000 HD
ENDBRANCH   9  10
ENDBRANCH   7   9
ENDBRANCH   2   4
ENDBRANCH   1   2
BRANCH   1  12
HETATM   12  C5  UNL     1      24.764   2.727  50.703  1.00  0.00     0.090 C 
BRANCH  12  13
HETATM   13  C6  UNL     1      24.831   4.065  50.007  1.00  0.00     0.050 A 
HETATM   14  N2  UNL     1      24.271   5.177  49.598  1.00  0.00    -0.252 NA
HETATM   15  C7  UNL     1      25.440   5.676  49.024  1.00  0.00     0.069 A 
HETATM   16  C8  UNL     1      25.985   6.738  48.336  1.00  0.00     0.032 A 
HETATM   17  C12 UNL     1      26.088   4.528  49.426  1.00  0.00     0.017 A 
HETATM   18  C9  UNL     1      27.313   6.675  48.001  1.00  0.00     0.002 A 
HETATM   19  C10 UNL     1      28.045   5.565  48.362  1.00  0.00     0.001 A 
HETATM   20  C11 UNL     1      27.416   4.555  49.047  1.00  0.00     0.016 A 
ENDBRANCH  12  13
ENDBRANCH   1  12
BRANCH   1  21
HETATM   21  C13 UNL     1      26.195   1.670  52.357  1.00  0.00    -0.035 A 
HETATM   22  C14 UNL     1      27.289   2.182  53.070  1.00  0.00     0.010 A 
HETATM   23  C15 UNL     1      28.359   1.379  53.482  1.00  0.00     0.019 A 
HETATM   24  C16 UNL     1      28.360   0.034  53.188  1.00  0.00     0.011 A 
HETATM   25 BR1  UNL     1      29.743  -1.174  53.682  1.00  0.00    -0.051 Br
HETATM   26  C17 UNL     1      27.285  -0.464  52.489  1.00  0.00     0.019 A 
HETATM   27  C18 UNL     1      26.232   0.323  52.084  1.00  0.00     0.010 A 
ENDBRANCH   1  21
TORSDOF 7
ENDMDL
MODEL 9
REMARK VINA RESULT:      -7.7      2.836      6.462
REMARK  7 active torsions:
REMARK  status: ('A' for Active; 'I' for Inactive)
REMARK    1  A    between atoms: O1_1  and  C1_2 
REMARK    2  A    between atoms: C1_2  and  P1_3 
REMARK    3  A    between atoms: C3_6  and  N1_7 
REMARK    4  A    between atoms: N1_7  and  C4_8 
REMARK    5  A    between atoms: C4_8  and  C5_9 
REMARK    6  A    between atoms: C4_8  and  C13_18 
REMARK    7  A    between atoms: C5_9  and  C6_10 
ROOT
HETATM    1  C4  UNL     1      24.154   1.161  52.127  1.00  0.00     0.122 C 
ENDROOT
BRANCH   1   2
HETATM    2  N1  UNL     1      24.409   2.568  52.401  1.00  0.00    -0.360 N 
HETATM    3  H4  UNL     1      24.986   2.917  53.229  1.00  0.00     0.162 HD
BRANCH   2   4
HETATM    4  C3  UNL     1      23.877   3.591  51.535  1.00  0.00     0.166 A 
HETATM    5  S1  UNL     1      23.665   3.295  49.764  1.00  0.00    -0.062 SA
HETATM    6  C2  UNL     1      22.988   4.917  49.312  1.00  0.00     0.083 A 
HETATM    7  P1  UNL     1      22.909   5.823  50.708  1.00  0.00     0.048 P 
HETATM    8  N3  UNL     1      23.528   4.734  51.921  1.00  0.00    -0.233 NA
BRANCH   7   9
HETATM    9  C1  UNL     1      23.444   7.380  50.469  1.00  0.00     0.063 C 
BRANCH   9  10
HETATM   10  O1  UNL     1      24.134   7.930  51.596  1.00  0.00     0.000 OA
HETATM   11  H1  UNL     1      24.713   7.288  52.193  1.00  0.00     0.000 HD
ENDBRANCH   9  10
ENDBRANCH   7   9
ENDBRANCH   2   4
ENDBRANCH   1   2
BRANCH   1  12
HETATM   12  C5  UNL     1      23.020   0.567  52.866  1.00  0.00     0.090 C 
BRANCH  12  13
HETATM   13  C6  UNL     1      21.740   0.572  52.066  1.00  0.00     0.050 A 
HETATM   14  N2  UNL     1      21.056   0.891  50.995  1.00  0.00    -0.252 NA
HETATM   15  C7  UNL     1      19.873   0.309  51.453  1.00  0.00     0.069 A 
HETATM   16  C8  UNL     1      18.553   0.062  51.142  1.00  0.00     0.032 A 
HETATM   17  C12 UNL     1      20.536  -0.055  52.604  1.00  0.00     0.017 A 
HETATM   18  C9  UNL     1      17.793  -0.616  52.059  1.00  0.00     0.002 A 
HETATM   19  C10 UNL     1      18.370  -1.022  53.243  1.00  0.00     0.001 A 
HETATM   20  C11 UNL     1      19.692  -0.731  53.464  1.00  0.00     0.016 A 
ENDBRANCH  12  13
ENDBRANCH   1  12
BRANCH   1  21
HETATM   21  C13 UNL     1      25.417   0.462  52.485  1.00  0.00    -0.035 A 
HETATM   22  C14 UNL     1      26.430   1.425  52.599  1.00  0.00     0.010 A 
HETATM   23  C15 UNL     1      27.747   1.095  52.937  1.00  0.00     0.019 A 
HETATM   24  C16 UNL     1      28.085  -0.219  53.171  1.00  0.00     0.011 A 
HETATM   25 BR1  UNL     1      29.830  -0.814  53.637  1.00  0.00    -0.051 Br
HETATM   26  C17 UNL     1      27.089  -1.161  53.059  1.00  0.00     0.019 A 
HETATM   27  C18 UNL     1      25.794  -0.838  52.727  1.00  0.00     0.010 A 
ENDBRANCH   1  21
TORSDOF 7
ENDMDL
