MODEL 1
REMARK VINA RESULT:      -5.7      0.000      0.000
REMARK  7 active torsions:
REMARK  status: ('A' for Active; 'I' for Inactive)
REMARK    1  A    between atoms: C1_2  and  C2_3 
REMARK    2  A    between atoms: C2_3  and  N1_4 
REMARK    3  A    between atoms: N1_4  and  C3_5 
REMARK    4  A    between atoms: N1_4  and  C5_8 
REMARK    5  A    between atoms: C3_5  and  C4_6 
REMARK    6  A    between atoms: C12_16  and  C13_17 
REMARK    7  A    between atoms: C13_17  and  N3_18 
ROOT
HETATM    1  C5  UNL     1      22.972   2.273  50.476  1.00  0.00     0.265 C 
HETATM    2  C6  UNL     1      22.662   2.148  49.024  1.00  0.00     0.065 C 
HETATM    3  C7  UNL     1      21.200   1.975  48.752  1.00  0.00    -0.028 C 
HETATM    4  C8  UNL     1      20.640   1.068  49.575  1.00  0.00    -0.028 C 
HETATM    5  C9  UNL     1      21.442   0.348  50.625  1.00  0.00     0.071 C 
HETATM    6  C10 UNL     1      22.199   1.408  51.402  1.00  0.00     0.198 C 
HETATM    7  N2  UNL     1      21.372   2.079  52.372  1.00  0.00     0.096 N 
HETATM    8  C11 UNL     1      21.704   1.029  53.315  1.00  0.00     0.279 C 
HETATM    9  C12 UNL     1      22.953   0.730  52.511  1.00  0.00     0.083 C 
HETATM   10  H16 UNL     1      21.666   3.023  52.637  1.00  0.00     0.317 HD
ENDROOT
BRANCH   1  11
HETATM   11  N1  UNL     1      23.139   3.643  50.861  1.00  0.00     0.098 N 
BRANCH  11  12
HETATM   12  C2  UNL     1      24.473   4.058  51.083  1.00  0.00     0.288 C 
BRANCH  12  13
HETATM   13  C1  UNL     1      25.271   4.596  49.966  1.00  0.00     0.145 C 
HETATM   14 CL1  UNL     1      26.406   3.271  49.481  1.00  0.00    -0.129 Cl
ENDBRANCH  12  13
ENDBRANCH  11  12
BRANCH  11  15
HETATM   15  C3  UNL     1      22.520   4.578  49.952  1.00  0.00     0.288 C 
BRANCH  15  16
HETATM   16  C4  UNL     1      21.520   5.504  50.597  1.00  0.00     0.145 C 
HETATM   17 CL2  UNL     1      19.894   4.716  50.623  1.00  0.00    -0.129 Cl
ENDBRANCH  15  16
ENDBRANCH  11  15
ENDBRANCH   1  11
BRANCH   9  18
HETATM   18  C13 UNL     1      24.177   1.377  53.045  1.00  0.00     0.284 C 
BRANCH  18  19
HETATM   19  N3  UNL     1      25.312   0.560  53.246  1.00  0.00     0.113 N 
HETATM   20  C14 UNL     1      26.167   0.397  52.109  1.00  0.00     0.301 C 
HETATM   21  C15 UNL     1      27.133  -0.627  52.668  1.00  0.00     0.200 C 
HETATM   22  O1  UNL     1      26.508  -1.183  53.799  1.00  0.00    -0.361 OA
HETATM   23  C16 UNL     1      25.164  -0.740  53.759  1.00  0.00     0.440 C 
ENDBRANCH  18  19
ENDBRANCH   9  18
TORSDOF 7
ENDMDL
MODEL 2
REMARK VINA RESULT:      -5.5      2.234      3.854
REMARK  7 active torsions:
REMARK  status: ('A' for Active; 'I' for Inactive)
REMARK    1  A    between atoms: C1_2  and  C2_3 
REMARK    2  A    between atoms: C2_3  and  N1_4 
REMARK    3  A    between atoms: N1_4  and  C3_5 
REMARK    4  A    between atoms: N1_4  and  C5_8 
REMARK    5  A    between atoms: C3_5  and  C4_6 
REMARK    6  A    between atoms: C12_16  and  C13_17 
REMARK    7  A    between atoms: C13_17  and  N3_18 
ROOT
HETATM    1  C5  UNL     1      22.277   2.168  52.324  1.00  0.00     0.265 C 
HETATM    2  C6  UNL     1      21.032   2.955  52.545  1.00  0.00     0.065 C 
HETATM    3  C7  UNL     1      20.920   4.138  51.633  1.00  0.00    -0.028 C 
HETATM    4  C8  UNL     1      22.075   4.828  51.562  1.00  0.00    -0.028 C 
HETATM    5  C9  UNL     1      23.298   4.409  52.332  1.00  0.00     0.071 C 
HETATM    6  C10 UNL     1      23.515   2.936  52.042  1.00  0.00     0.198 C 
HETATM    7  N2  UNL     1      24.138   2.709  50.763  1.00  0.00     0.096 N 
HETATM    8  C11 UNL     1      25.424   2.858  51.414  1.00  0.00     0.279 C 
HETATM    9  C12 UNL     1      24.776   2.500  52.735  1.00  0.00     0.083 C 
HETATM   10  H16 UNL     1      23.961   1.798  50.332  1.00  0.00     0.317 HD
ENDROOT
BRANCH   1  11
HETATM   11  N1  UNL     1      22.031   1.017  51.506  1.00  0.00     0.098 N 
BRANCH  11  12
HETATM   12  C2  UNL     1      21.842  -0.200  52.201  1.00  0.00     0.288 C 
BRANCH  12  13
HETATM   13  C1  UNL     1      21.241  -0.190  53.548  1.00  0.00     0.145 C 
HETATM   14 CL1  UNL     1      22.407  -1.068  54.620  1.00  0.00    -0.129 Cl
ENDBRANCH  12  13
ENDBRANCH  11  12
BRANCH  11  15
HETATM   15  C3  UNL     1      20.932   1.188  50.584  1.00  0.00     0.288 C 
BRANCH  15  16
HETATM   16  C4  UNL     1      21.303   1.011  49.134  1.00  0.00     0.145 C 
HETATM   17 CL2  UNL     1      21.578   2.630  48.378  1.00  0.00    -0.129 Cl
ENDBRANCH  15  16
ENDBRANCH  11  15
ENDBRANCH   1  11
BRANCH   9  18
HETATM   18  C13 UNL     1      24.930   1.073  53.110  1.00  0.00     0.284 C 
BRANCH  18  19
HETATM   19  N3  UNL     1      26.178   0.666  53.632  1.00  0.00     0.113 N 
HETATM   20  C14 UNL     1      26.978  -0.143  52.764  1.00  0.00     0.301 C 
HETATM   21  C15 UNL     1      28.110  -0.483  53.711  1.00  0.00     0.200 C 
HETATM   22  O1  UNL     1      27.637  -0.204  55.006  1.00  0.00    -0.361 OA
HETATM   23  C16 UNL     1      26.244   0.013  54.875  1.00  0.00     0.440 C 
ENDBRANCH  18  19
ENDBRANCH   9  18
TORSDOF 7
ENDMDL
MODEL 3
REMARK VINA RESULT:      -5.5      8.867     10.804
REMARK  7 active torsions:
REMARK  status: ('A' for Active; 'I' for Inactive)
REMARK    1  A    between atoms: C1_2  and  C2_3 
REMARK    2  A    between atoms: C2_3  and  N1_4 
REMARK    3  A    between atoms: N1_4  and  C3_5 
REMARK    4  A    between atoms: N1_4  and  C5_8 
REMARK    5  A    between atoms: C3_5  and  C4_6 
REMARK    6  A    between atoms: C12_16  and  C13_17 
REMARK    7  A    between atoms: C13_17  and  N3_18 
ROOT
HETATM    1  C5  UNL     1      30.798   7.443  47.187  1.00  0.00     0.265 C 
HETATM    2  C6  UNL     1      29.519   7.624  46.445  1.00  0.00     0.065 C 
HETATM    3  C7  UNL     1      28.312   7.498  47.323  1.00  0.00    -0.028 C 
HETATM    4  C8  UNL     1      28.396   6.432  48.142  1.00  0.00    -0.028 C 
HETATM    5  C9  UNL     1      29.589   5.515  48.130  1.00  0.00     0.071 C 
HETATM    6  C10 UNL     1      30.820   6.395  48.238  1.00  0.00     0.198 C 
HETATM    7  N2  UNL     1      31.067   6.838  49.586  1.00  0.00     0.096 N 
HETATM    8  C11 UNL     1      31.817   5.617  49.803  1.00  0.00     0.279 C 
HETATM    9  C12 UNL     1      32.030   5.506  48.307  1.00  0.00     0.083 C 
HETATM   10  H16 UNL     1      31.598   7.708  49.683  1.00  0.00     0.317 HD
ENDROOT
BRANCH   1  11
HETATM   11  N1  UNL     1      31.395   8.703  47.520  1.00  0.00     0.098 N 
BRANCH  11  12
HETATM   12  C2  UNL     1      32.305   9.219  46.569  1.00  0.00     0.288 C 
BRANCH  12  13
HETATM   13  C1  UNL     1      33.587   9.796  47.017  1.00  0.00     0.145 C 
HETATM   14 CL1  UNL     1      33.333  11.588  47.074  1.00  0.00    -0.129 Cl
ENDBRANCH  12  13
ENDBRANCH  11  12
BRANCH  11  15
HETATM   15  C3  UNL     1      30.432   9.733  47.832  1.00  0.00     0.288 C 
BRANCH  15  16
HETATM   16  C4  UNL     1      30.546  10.290  49.227  1.00  0.00     0.145 C 
HETATM   17 CL2  UNL     1      30.564  12.096  49.159  1.00  0.00    -0.129 Cl
ENDBRANCH  15  16
ENDBRANCH  11  15
ENDBRANCH   1  11
BRANCH   9  18
HETATM   18  C13 UNL     1      33.337   6.038  47.847  1.00  0.00     0.284 C 
BRANCH  18  19
HETATM   19  N3  UNL     1      34.239   5.128  47.253  1.00  0.00     0.113 N 
HETATM   20  C14 UNL     1      33.986   4.814  45.878  1.00  0.00     0.301 C 
HETATM   21  C15 UNL     1      35.030   3.737  45.672  1.00  0.00     0.200 C 
HETATM   22  O1  UNL     1      35.420   3.314  46.956  1.00  0.00    -0.361 OA
HETATM   23  C16 UNL     1      34.484   3.882  47.855  1.00  0.00     0.440 C 
ENDBRANCH  18  19
ENDBRANCH   9  18
TORSDOF 7
ENDMDL
MODEL 4
REMARK VINA RESULT:      -5.5      3.068      5.462
REMARK  7 active torsions:
REMARK  status: ('A' for Active; 'I' for Inactive)
REMARK    1  A    between atoms: C1_2  and  C2_3 
REMARK    2  A    between atoms: C2_3  and  N1_4 
REMARK    3  A    between atoms: N1_4  and  C3_5 
REMARK    4  A    between atoms: N1_4  and  C5_8 
REMARK    5  A    between atoms: C3_5  and  C4_6 
REMARK    6  A    between atoms: C12_16  and  C13_17 
REMARK    7  A    between atoms: C13_17  and  N3_18 
ROOT
HETATM    1  C5  UNL     1      25.317   2.598  51.181  1.00  0.00     0.265 C 
HETATM    2  C6  UNL     1      26.289   2.485  50.058  1.00  0.00     0.065 C 
HETATM    3  C7  UNL     1      26.769   3.816  49.565  1.00  0.00    -0.028 C 
HETATM    4  C8  UNL     1      25.756   4.689  49.410  1.00  0.00    -0.028 C 
HETATM    5  C9  UNL     1      24.331   4.313  49.713  1.00  0.00     0.071 C 
HETATM    6  C10 UNL     1      24.325   3.699  51.101  1.00  0.00     0.198 C 
HETATM    7  N2  UNL     1      24.375   4.691  52.144  1.00  0.00     0.096 N 
HETATM    8  C11 UNL     1      22.929   4.767  52.079  1.00  0.00     0.279 C 
HETATM    9  C12 UNL     1      22.903   3.381  51.469  1.00  0.00     0.083 C 
HETATM   10  H16 UNL     1      24.763   4.382  53.039  1.00  0.00     0.317 HD
ENDROOT
BRANCH   1  11
HETATM   11  N1  UNL     1      25.955   2.397  52.449  1.00  0.00     0.098 N 
BRANCH  11  12
HETATM   12  C2  UNL     1      25.336   1.453  53.302  1.00  0.00     0.288 C 
BRANCH  12  13
HETATM   13  C1  UNL     1      25.455   0.012  53.013  1.00  0.00     0.145 C 
HETATM   14 CL1  UNL     1      25.111  -0.840  54.573  1.00  0.00    -0.129 Cl
ENDBRANCH  12  13
ENDBRANCH  11  12
BRANCH  11  15
HETATM   15  C3  UNL     1      27.356   2.062  52.344  1.00  0.00     0.288 C 
BRANCH  15  16
HETATM   16  C4  UNL     1      28.171   2.407  53.564  1.00  0.00     0.145 C 
HETATM   17 CL2  UNL     1      28.835   0.894  54.296  1.00  0.00    -0.129 Cl
ENDBRANCH  15  16
ENDBRANCH  11  15
ENDBRANCH   1  11
BRANCH   9  18
HETATM   18  C13 UNL     1      22.642   2.299  52.451  1.00  0.00     0.284 C 
BRANCH  18  19
HETATM   19  N3  UNL     1      21.612   1.380  52.152  1.00  0.00     0.113 N 
HETATM   20  C14 UNL     1      20.858   1.659  50.967  1.00  0.00     0.301 C 
HETATM   21  C15 UNL     1      19.800   0.582  51.085  1.00  0.00     0.200 C 
HETATM   22  O1  UNL     1      19.831   0.143  52.421  1.00  0.00    -0.361 OA
HETATM   23  C16 UNL     1      20.638   1.074  53.119  1.00  0.00     0.440 C 
ENDBRANCH  18  19
ENDBRANCH   9  18
TORSDOF 7
ENDMDL
MODEL 5
REMARK VINA RESULT:      -5.3      2.397      4.222
REMARK  7 active torsions:
REMARK  status: ('A' for Active; 'I' for Inactive)
REMARK    1  A    between atoms: C1_2  and  C2_3 
REMARK    2  A    between atoms: C2_3  and  N1_4 
REMARK    3  A    between atoms: N1_4  and  C3_5 
REMARK    4  A    between atoms: N1_4  and  C5_8 
REMARK    5  A    between atoms: C3_5  and  C4_6 
REMARK    6  A    between atoms: C12_16  and  C13_17 
REMARK    7  A    between atoms: C13_17  and  N3_18 
ROOT
HETATM    1  C5  UNL     1      21.867   2.608  51.872  1.00  0.00     0.265 C 
HETATM    2  C6  UNL     1      21.015   3.798  52.146  1.00  0.00     0.065 C 
HETATM    3  C7  UNL     1      21.594   5.068  51.601  1.00  0.00    -0.028 C 
HETATM    4  C8  UNL     1      22.907   5.181  51.877  1.00  0.00    -0.028 C 
HETATM    5  C9  UNL     1      23.649   4.122  52.645  1.00  0.00     0.071 C 
HETATM    6  C10 UNL     1      23.336   2.795  51.980  1.00  0.00     0.198 C 
HETATM    7  N2  UNL     1      24.104   2.583  50.780  1.00  0.00     0.096 N 
HETATM    8  C11 UNL     1      25.153   2.018  51.605  1.00  0.00     0.279 C 
HETATM    9  C12 UNL     1      24.124   1.721  52.676  1.00  0.00     0.083 C 
HETATM   10  H16 UNL     1      23.692   1.950  50.089  1.00  0.00     0.317 HD
ENDROOT
BRANCH   1  11
HETATM   11  N1  UNL     1      21.393   1.874  50.736  1.00  0.00     0.098 N 
BRANCH  11  12
HETATM   12  C2  UNL     1      20.774   0.634  51.022  1.00  0.00     0.288 C 
BRANCH  12  13
HETATM   13  C1  UNL     1      19.626   0.584  51.946  1.00  0.00     0.145 C 
HETATM   14 CL1  UNL     1      18.232  -0.040  50.974  1.00  0.00    -0.129 Cl
ENDBRANCH  12  13
ENDBRANCH  11  12
BRANCH  11  15
HETATM   15  C3  UNL     1      20.509   2.635  49.884  1.00  0.00     0.288 C 
BRANCH  15  16
HETATM   16  C4  UNL     1      21.109   3.028  48.559  1.00  0.00     0.145 C 
HETATM   17 CL2  UNL     1      22.187   1.704  47.965  1.00  0.00    -0.129 Cl
ENDBRANCH  15  16
ENDBRANCH  11  15
ENDBRANCH   1  11
BRANCH   9  18
HETATM   18  C13 UNL     1      23.615   0.327  52.647  1.00  0.00     0.284 C 
BRANCH  18  19
HETATM   19  N3  UNL     1      23.271  -0.268  53.881  1.00  0.00     0.113 N 
HETATM   20  C14 UNL     1      24.356  -0.854  54.610  1.00  0.00     0.301 C 
HETATM   21  C15 UNL     1      23.580  -1.493  55.742  1.00  0.00     0.200 C 
HETATM   22  O1  UNL     1      22.240  -1.549  55.320  1.00  0.00    -0.361 OA
HETATM   23  C16 UNL     1      22.252  -1.235  53.939  1.00  0.00     0.440 C 
ENDBRANCH  18  19
ENDBRANCH   9  18
TORSDOF 7
ENDMDL
MODEL 6
REMARK VINA RESULT:      -4.9      3.166      5.475
REMARK  7 active torsions:
REMARK  status: ('A' for Active; 'I' for Inactive)
REMARK    1  A    between atoms: C1_2  and  C2_3 
REMARK    2  A    between atoms: C2_3  and  N1_4 
REMARK    3  A    between atoms: N1_4  and  C3_5 
REMARK    4  A    between atoms: N1_4  and  C5_8 
REMARK    5  A    between atoms: C3_5  and  C4_6 
REMARK    6  A    between atoms: C12_16  and  C13_17 
REMARK    7  A    between atoms: C13_17  and  N3_18 
ROOT
HETATM    1  C5  UNL     1      21.690   1.300  52.433  1.00  0.00     0.265 C 
HETATM    2  C6  UNL     1      20.938   0.917  53.661  1.00  0.00     0.065 C 
HETATM    3  C7  UNL     1      19.975  -0.206  53.428  1.00  0.00    -0.028 C 
HETATM    4  C8  UNL     1      19.256  -0.027  52.304  1.00  0.00    -0.028 C 
HETATM    5  C9  UNL     1      19.445   1.180  51.426  1.00  0.00     0.071 C 
HETATM    6  C10 UNL     1      20.933   1.297  51.156  1.00  0.00     0.198 C 
HETATM    7  N2  UNL     1      21.386   0.382  50.140  1.00  0.00     0.096 N 
HETATM    8  C11 UNL     1      21.041   1.381  49.149  1.00  0.00     0.279 C 
HETATM    9  C12 UNL     1      21.153   2.450  50.217  1.00  0.00     0.083 C 
HETATM   10  H16 UNL     1      22.374   0.118  50.180  1.00  0.00     0.317 HD
ENDROOT
BRANCH   1  11
HETATM   11  N1  UNL     1      22.995   0.708  52.411  1.00  0.00     0.098 N 
BRANCH  11  12
HETATM   12  C2  UNL     1      24.030   1.486  52.981  1.00  0.00     0.288 C 
BRANCH  12  13
HETATM   13  C1  UNL     1      25.090   2.042  52.120  1.00  0.00     0.145 C 
HETATM   14 CL1  UNL     1      26.298   0.713  51.895  1.00  0.00    -0.129 Cl
ENDBRANCH  12  13
ENDBRANCH  11  12
BRANCH  11  15
HETATM   15  C3  UNL     1      23.041  -0.610  53.000  1.00  0.00     0.288 C 
BRANCH  15  16
HETATM   16  C4  UNL     1      23.973  -0.732  54.179  1.00  0.00     0.145 C 
HETATM   17 CL2  UNL     1      23.081  -1.432  55.586  1.00  0.00    -0.129 Cl
ENDBRANCH  15  16
ENDBRANCH  11  15
ENDBRANCH   1  11
BRANCH   9  18
HETATM   18  C13 UNL     1      22.463   3.147  50.231  1.00  0.00     0.284 C 
BRANCH  18  19
HETATM   19  N3  UNL     1      22.458   4.543  50.444  1.00  0.00     0.113 N 
HETATM   20  C14 UNL     1      21.272   5.073  51.048  1.00  0.00     0.301 C 
HETATM   21  C15 UNL     1      21.587   6.552  50.961  1.00  0.00     0.200 C 
HETATM   22  O1  UNL     1      22.622   6.680  50.017  1.00  0.00    -0.361 OA
HETATM   23  C16 UNL     1      22.727   5.420  49.379  1.00  0.00     0.440 C 
ENDBRANCH  18  19
ENDBRANCH   9  18
TORSDOF 7
ENDMDL
MODEL 7
REMARK VINA RESULT:      -4.9      8.389     10.863
REMARK  7 active torsions:
REMARK  status: ('A' for Active; 'I' for Inactive)
REMARK    1  A    between atoms: C1_2  and  C2_3 
REMARK    2  A    between atoms: C2_3  and  N1_4 
REMARK    3  A    between atoms: N1_4  and  C3_5 
REMARK    4  A    between atoms: N1_4  and  C5_8 
REMARK    5  A    between atoms: C3_5  and  C4_6 
REMARK    6  A    between atoms: C12_16  and  C13_17 
REMARK    7  A    between atoms: C13_17  and  N3_18 
ROOT
HETATM    1  C5  UNL     1      29.608   7.999  47.758  1.00  0.00     0.265 C 
HETATM    2  C6  UNL     1      28.324   7.481  47.209  1.00  0.00     0.065 C 
HETATM    3  C7  UNL     1      27.761   6.348  48.011  1.00  0.00    -0.028 C 
HETATM    4  C8  UNL     1      28.703   5.437  48.321  1.00  0.00    -0.028 C 
HETATM    5  C9  UNL     1      30.134   5.596  47.886  1.00  0.00     0.071 C 
HETATM    6  C10 UNL     1      30.563   6.994  48.290  1.00  0.00     0.198 C 
HETATM    7  N2  UNL     1      30.889   7.091  49.689  1.00  0.00     0.096 N 
HETATM    8  C11 UNL     1      32.239   6.681  49.357  1.00  0.00     0.279 C 
HETATM    9  C12 UNL     1      32.015   7.162  47.939  1.00  0.00     0.083 C 
HETATM   10  H16 UNL     1      30.797   8.020  50.109  1.00  0.00     0.317 HD
ENDROOT
BRANCH   1  11
HETATM   11  N1  UNL     1      29.405   9.177  48.548  1.00  0.00     0.098 N 
BRANCH  11  12
HETATM   12  C2  UNL     1      30.030  10.351  48.069  1.00  0.00     0.288 C 
BRANCH  12  13
HETATM   13  C1  UNL     1      30.624  11.308  49.021  1.00  0.00     0.145 C 
HETATM   14 CL1  UNL     1      29.875  12.913  48.648  1.00  0.00    -0.129 Cl
ENDBRANCH  12  13
ENDBRANCH  11  12
BRANCH  11  15
HETATM   15  C3  UNL     1      28.013   9.473  48.796  1.00  0.00     0.288 C 
BRANCH  15  16
HETATM   16  C4  UNL     1      27.599   9.352  50.240  1.00  0.00     0.145 C 
HETATM   17 CL2  UNL     1      26.207   8.206  50.376  1.00  0.00    -0.129 Cl
ENDBRANCH  15  16
ENDBRANCH  11  15
ENDBRANCH   1  11
BRANCH   9  18
HETATM   18  C13 UNL     1      32.536   8.527  47.679  1.00  0.00     0.284 C 
BRANCH  18  19
HETATM   19  N3  UNL     1      33.280   8.728  46.495  1.00  0.00     0.113 N 
HETATM   20  C14 UNL     1      33.289   7.630  45.576  1.00  0.00     0.301 C 
HETATM   21  C15 UNL     1      34.279   8.162  44.561  1.00  0.00     0.200 C 
HETATM   22  O1  UNL     1      34.967   9.213  45.195  1.00  0.00    -0.361 OA
HETATM   23  C16 UNL     1      34.624   9.133  46.567  1.00  0.00     0.440 C 
ENDBRANCH  18  19
ENDBRANCH   9  18
TORSDOF 7
ENDMDL
MODEL 8
REMARK VINA RESULT:      -4.9      3.088      5.636
REMARK  7 active torsions:
REMARK  status: ('A' for Active; 'I' for Inactive)
REMARK    1  A    between atoms: C1_2  and  C2_3 
REMARK    2  A    between atoms: C2_3  and  N1_4 
REMARK    3  A    between atoms: N1_4  and  C3_5 
REMARK    4  A    between atoms: N1_4  and  C5_8 
REMARK    5  A    between atoms: C3_5  and  C4_6 
REMARK    6  A    between atoms: C12_16  and  C13_17 
REMARK    7  A    between atoms: C13_17  and  N3_18 
ROOT
HETATM    1  C5  UNL     1      22.819   3.260  51.813  1.00  0.00     0.265 C 
HETATM    2  C6  UNL     1      23.821   3.263  52.915  1.00  0.00     0.065 C 
HETATM    3  C7  UNL     1      24.921   2.268  52.707  1.00  0.00    -0.028 C 
HETATM    4  C8  UNL     1      24.447   1.070  52.317  1.00  0.00    -0.028 C 
HETATM    5  C9  UNL     1      22.975   0.822  52.129  1.00  0.00     0.071 C 
HETATM    6  C10 UNL     1      22.451   1.938  51.246  1.00  0.00     0.198 C 
HETATM    7  N2  UNL     1      22.750   1.729  49.852  1.00  0.00     0.096 N 
HETATM    8  C11 UNL     1      21.526   0.959  49.751  1.00  0.00     0.279 C 
HETATM    9  C12 UNL     1      20.995   1.681  50.973  1.00  0.00     0.083 C 
HETATM   10  H16 UNL     1      22.796   2.569  49.271  1.00  0.00     0.317 HD
ENDROOT
BRANCH   1  11
HETATM   11  N1  UNL     1      23.065   4.318  50.877  1.00  0.00     0.098 N 
BRANCH  11  12
HETATM   12  C2  UNL     1      22.296   5.491  51.064  1.00  0.00     0.288 C 
BRANCH  12  13
HETATM   13  C1  UNL     1      21.665   6.147  49.904  1.00  0.00     0.145 C 
HETATM   14 CL1  UNL     1      21.781   7.927  50.215  1.00  0.00    -0.129 Cl
ENDBRANCH  12  13
ENDBRANCH  11  12
BRANCH  11  15
HETATM   15  C3  UNL     1      24.455   4.696  50.786  1.00  0.00     0.288 C 
BRANCH  15  16
HETATM   16  C4  UNL     1      25.065   4.498  49.422  1.00  0.00     0.145 C 
HETATM   17 CL2  UNL     1      26.346   3.226  49.512  1.00  0.00    -0.129 Cl
ENDBRANCH  15  16
ENDBRANCH  11  15
ENDBRANCH   1  11
BRANCH   9  18
HETATM   18  C13 UNL     1      20.112   2.829  50.654  1.00  0.00     0.284 C 
BRANCH  18  19
HETATM   19  N3  UNL     1      18.860   2.891  51.305  1.00  0.00     0.113 N 
HETATM   20  C14 UNL     1      17.910   1.892  50.916  1.00  0.00     0.301 C 
HETATM   21  C15 UNL     1      16.703   2.381  51.690  1.00  0.00     0.200 C 
HETATM   22  O1  UNL     1      16.977   3.714  52.047  1.00  0.00    -0.361 OA
HETATM   23  C16 UNL     1      18.124   4.089  51.306  1.00  0.00     0.440 C 
ENDBRANCH  18  19
ENDBRANCH   9  18
TORSDOF 7
ENDMDL
MODEL 9
REMARK VINA RESULT:      -4.7      8.687     10.864
REMARK  7 active torsions:
REMARK  status: ('A' for Active; 'I' for Inactive)
REMARK    1  A    between atoms: C1_2  and  C2_3 
REMARK    2  A    between atoms: C2_3  and  N1_4 
REMARK    3  A    between atoms: N1_4  and  C3_5 
REMARK    4  A    between atoms: N1_4  and  C5_8 
REMARK    5  A    between atoms: C3_5  and  C4_6 
REMARK    6  A    between atoms: C12_16  and  C13_17 
REMARK    7  A    between atoms: C13_17  and  N3_18 
ROOT
HETATM    1  C5  UNL     1      29.564   8.228  47.096  1.00  0.00     0.265 C 
HETATM    2  C6  UNL     1      28.183   8.002  46.586  1.00  0.00     0.065 C 
HETATM    3  C7  UNL     1      27.250   7.488  47.639  1.00  0.00    -0.028 C 
HETATM    4  C8  UNL     1      27.805   6.495  48.359  1.00  0.00    -0.028 C 
HETATM    5  C9  UNL     1      29.201   6.005  48.091  1.00  0.00     0.071 C 
HETATM    6  C10 UNL     1      30.097   7.229  48.056  1.00  0.00     0.198 C 
HETATM    7  N2  UNL     1      30.427   7.711  49.372  1.00  0.00     0.096 N 
HETATM    8  C11 UNL     1      31.545   6.789  49.380  1.00  0.00     0.279 C 
HETATM    9  C12 UNL     1      31.515   6.770  47.866  1.00  0.00     0.083 C 
HETATM   10  H16 UNL     1      30.669   8.703  49.439  1.00  0.00     0.317 HD
ENDROOT
BRANCH   1  11
HETATM   11  N1  UNL     1      29.789   9.608  47.411  1.00  0.00     0.098 N 
BRANCH  11  12
HETATM   12  C2  UNL     1      30.612  10.317  46.506  1.00  0.00     0.288 C 
BRANCH  12  13
HETATM   13  C1  UNL     1      31.500  11.385  47.002  1.00  0.00     0.145 C 
HETATM   14 CL1  UNL     1      33.091  11.136  46.175  1.00  0.00    -0.129 Cl
ENDBRANCH  12  13
ENDBRANCH  11  12
BRANCH  11  15
HETATM   15  C3  UNL     1      28.572  10.362  47.602  1.00  0.00     0.288 C 
BRANCH  15  16
HETATM   16  C4  UNL     1      28.368  10.868  49.007  1.00  0.00     0.145 C 
HETATM   17 CL2  UNL     1      28.691  12.646  49.062  1.00  0.00    -0.129 Cl
ENDBRANCH  15  16
ENDBRANCH  11  15
ENDBRANCH   1  11
BRANCH   9  18
HETATM   18  C13 UNL     1      32.489   7.695  47.235  1.00  0.00     0.284 C 
BRANCH  18  19
HETATM   19  N3  UNL     1      33.112   7.273  46.040  1.00  0.00     0.113 N 
HETATM   20  C14 UNL     1      32.326   7.410  44.851  1.00  0.00     0.301 C 
HETATM   21  C15 UNL     1      33.251   6.731  43.862  1.00  0.00     0.200 C 
HETATM   22  O1  UNL     1      34.166   5.984  44.625  1.00  0.00    -0.361 OA
HETATM   23  C16 UNL     1      33.661   5.982  45.948  1.00  0.00     0.440 C 
ENDBRANCH  18  19
ENDBRANCH   9  18
TORSDOF 7
ENDMDL
