MODEL 1
REMARK VINA RESULT:      -7.8      0.000      0.000
REMARK  4 active torsions:
REMARK  status: ('A' for Active; 'I' for Inactive)
REMARK    1  A    between atoms: C2_2  and  C3_3 
REMARK       I    between atoms: C3_3  and  N1_5 
REMARK    2  A    between atoms: N1_5  and  C4_6 
REMARK    3  A    between atoms: C7_9  and  N2_10 
REMARK    4  A    between atoms: N2_10  and  C8_11 
ROOT
HETATM    1  C4  UNL     1      26.753   1.857  52.201  1.00  0.00     0.036 A 
HETATM    2  C5  UNL     1      26.561   2.573  51.114  1.00  0.00     0.044 A 
HETATM    3  C6  UNL     1      25.258   3.264  51.151  1.00  0.00     0.002 A 
HETATM    4  C7  UNL     1      24.699   4.100  50.275  1.00  0.00     0.041 A 
HETATM    5  C14 UNL     1      23.362   4.613  50.573  1.00  0.00     0.206 A 
HETATM    6  N3  UNL     1      22.874   4.175  51.838  1.00  0.00    -0.295 NA
HETATM    7  C15 UNL     1      23.398   3.421  52.676  1.00  0.00     0.123 A 
HETATM    8  C16 UNL     1      24.709   2.849  52.418  1.00  0.00    -0.005 A 
HETATM    9  C17 UNL     1      25.547   2.039  53.044  1.00  0.00     0.043 A 
ENDROOT
BRANCH   4  10
HETATM   10  N2  UNL     1      25.440   4.396  49.124  1.00  0.00    -0.357 N 
HETATM   11  H6  UNL     1      25.314   3.723  48.305  1.00  0.00     0.166 HD
BRANCH  10  12
HETATM   12  C8  UNL     1      26.365   5.394  48.767  1.00  0.00     0.033 A 
HETATM   13  C9  UNL     1      26.099   6.716  48.539  1.00  0.00     0.029 A 
HETATM   14  C10 UNL     1      27.004   7.691  48.165  1.00  0.00     0.004 A 
HETATM   15  C11 UNL     1      28.307   7.317  48.002  1.00  0.00     0.019 A 
HETATM   16  C12 UNL     1      28.671   6.016  48.209  1.00  0.00     0.013 A 
HETATM   17 BR1  UNL     1      30.490   5.504  47.977  1.00  0.00    -0.051 Br
HETATM   18  C13 UNL     1      27.711   5.107  48.578  1.00  0.00     0.048 A 
ENDBRANCH  10  12
ENDBRANCH   4  10
BRANCH   1  19
HETATM   19  N1  UNL     1      27.710   0.992  52.804  1.00  0.00    -0.324 N 
HETATM   20  C3  UNL     1      28.737   1.342  53.754  1.00  0.00     0.241 C 
HETATM   21  O1  UNL     1      28.734   2.563  54.042  1.00  0.00    -0.269 OA
HETATM   22  H4  UNL     1      27.461   0.053  52.373  1.00  0.00     0.169 HD
BRANCH  20  23
HETATM   23  C2  UNL     1      29.507   0.168  54.120  1.00  0.00     0.048 C 
HETATM   24  C1  UNL     1      29.929  -1.029  53.757  1.00  0.00     0.037 C 
ENDBRANCH  20  23
ENDBRANCH   1  19
TORSDOF 4
ENDMDL
MODEL 2
REMARK VINA RESULT:      -7.8      4.044      5.061
REMARK  4 active torsions:
REMARK  status: ('A' for Active; 'I' for Inactive)
REMARK    1  A    between atoms: C2_2  and  C3_3 
REMARK       I    between atoms: C3_3  and  N1_5 
REMARK    2  A    between atoms: N1_5  and  C4_6 
REMARK    3  A    between atoms: C7_9  and  N2_10 
REMARK    4  A    between atoms: N2_10  and  C8_11 
ROOT
HETATM    1  C4  UNL     1      25.387   0.001  53.334  1.00  0.00     0.036 A 
HETATM    2  C5  UNL     1      24.500   0.783  52.758  1.00  0.00     0.044 A 
HETATM    3  C6  UNL     1      23.139   0.507  53.258  1.00  0.00     0.002 A 
HETATM    4  C7  UNL     1      21.976   1.088  52.960  1.00  0.00     0.041 A 
HETATM    5  C14 UNL     1      20.768   0.575  53.604  1.00  0.00     0.206 A 
HETATM    6  N3  UNL     1      21.042  -0.465  54.539  1.00  0.00    -0.295 NA
HETATM    7  C15 UNL     1      22.124  -0.994  54.846  1.00  0.00     0.123 A 
HETATM    8  C16 UNL     1      23.354  -0.552  54.212  1.00  0.00    -0.005 A 
HETATM    9  C17 UNL     1      24.639  -0.864  54.277  1.00  0.00     0.043 A 
ENDROOT
BRANCH   4  10
HETATM   10  N2  UNL     1      22.013   2.135  52.030  1.00  0.00    -0.357 N 
HETATM   11  H6  UNL     1      22.032   3.120  52.441  1.00  0.00     0.166 HD
BRANCH  10  12
HETATM   12  C8  UNL     1      22.011   2.218  50.626  1.00  0.00     0.033 A 
HETATM   13  C9  UNL     1      21.758   1.203  49.744  1.00  0.00     0.029 A 
HETATM   14  C10 UNL     1      21.780   1.278  48.365  1.00  0.00     0.004 A 
HETATM   15  C11 UNL     1      22.082   2.484  47.801  1.00  0.00     0.019 A 
HETATM   16  C12 UNL     1      22.349   3.560  48.601  1.00  0.00     0.013 A 
HETATM   17 BR1  UNL     1      22.771   5.237  47.805  1.00  0.00    -0.051 Br
HETATM   18  C13 UNL     1      22.308   3.403  49.964  1.00  0.00     0.048 A 
ENDBRANCH  10  12
ENDBRANCH   4  10
BRANCH   1  19
HETATM   19  N1  UNL     1      26.784  -0.274  53.341  1.00  0.00    -0.324 N 
HETATM   20  C3  UNL     1      27.797   0.333  54.170  1.00  0.00     0.241 C 
HETATM   21  O1  UNL     1      27.329   1.192  54.954  1.00  0.00    -0.269 OA
HETATM   22  H4  UNL     1      26.865  -1.024  52.592  1.00  0.00     0.169 HD
BRANCH  20  23
HETATM   23  C2  UNL     1      29.101  -0.224  53.863  1.00  0.00     0.048 C 
HETATM   24  C1  UNL     1      29.786  -1.299  53.521  1.00  0.00     0.037 C 
ENDBRANCH  20  23
ENDBRANCH   1  19
TORSDOF 4
ENDMDL
MODEL 3
REMARK VINA RESULT:      -7.7      3.250      4.523
REMARK  4 active torsions:
REMARK  status: ('A' for Active; 'I' for Inactive)
REMARK    1  A    between atoms: C2_2  and  C3_3 
REMARK       I    between atoms: C3_3  and  N1_5 
REMARK    2  A    between atoms: N1_5  and  C4_6 
REMARK    3  A    between atoms: C7_9  and  N2_10 
REMARK    4  A    between atoms: N2_10  and  C8_11 
ROOT
HETATM    1  C4  UNL     1      25.559  -0.131  53.374  1.00  0.00     0.036 A 
HETATM    2  C5  UNL     1      24.639   0.484  52.662  1.00  0.00     0.044 A 
HETATM    3  C6  UNL     1      23.287   0.215  53.189  1.00  0.00     0.002 A 
HETATM    4  C7  UNL     1      22.098   0.663  52.784  1.00  0.00     0.041 A 
HETATM    5  C14 UNL     1      20.909   0.196  53.496  1.00  0.00     0.206 A 
HETATM    6  N3  UNL     1      21.226  -0.647  54.600  1.00  0.00    -0.295 NA
HETATM    7  C15 UNL     1      22.330  -1.047  55.005  1.00  0.00     0.123 A 
HETATM    8  C16 UNL     1      23.545  -0.647  54.316  1.00  0.00    -0.005 A 
HETATM    9  C17 UNL     1      24.844  -0.863  54.446  1.00  0.00     0.043 A 
ENDROOT
BRANCH   4  10
HETATM   10  N2  UNL     1      22.092   1.533  51.686  1.00  0.00    -0.357 N 
HETATM   11  H6  UNL     1      21.797   1.102  50.755  1.00  0.00     0.166 HD
BRANCH  10  12
HETATM   12  C8  UNL     1      22.411   2.889  51.490  1.00  0.00     0.033 A 
HETATM   13  C9  UNL     1      21.749   3.970  52.005  1.00  0.00     0.029 A 
HETATM   14  C10 UNL     1      22.047   5.302  51.793  1.00  0.00     0.004 A 
HETATM   15  C11 UNL     1      23.111   5.593  50.989  1.00  0.00     0.019 A 
HETATM   16  C12 UNL     1      23.836   4.579  50.429  1.00  0.00     0.013 A 
HETATM   17 BR1  UNL     1      25.319   4.995  49.308  1.00  0.00    -0.051 Br
HETATM   18  C13 UNL     1      23.475   3.280  50.688  1.00  0.00     0.048 A 
ENDBRANCH  10  12
ENDBRANCH   4  10
BRANCH   1  19
HETATM   19  N1  UNL     1      26.969  -0.314  53.442  1.00  0.00    -0.324 N 
HETATM   20  C3  UNL     1      27.936   0.532  54.098  1.00  0.00     0.241 C 
HETATM   21  O1  UNL     1      27.411   1.524  54.656  1.00  0.00    -0.269 OA
HETATM   22  H4  UNL     1      27.101  -1.215  52.894  1.00  0.00     0.169 HD
BRANCH  20  23
HETATM   23  C2  UNL     1      29.274  -0.005  53.929  1.00  0.00     0.048 C 
HETATM   24  C1  UNL     1      30.010  -1.082  53.730  1.00  0.00     0.037 C 
ENDBRANCH  20  23
ENDBRANCH   1  19
TORSDOF 4
ENDMDL
MODEL 4
REMARK VINA RESULT:      -7.7      4.011      6.663
REMARK  4 active torsions:
REMARK  status: ('A' for Active; 'I' for Inactive)
REMARK    1  A    between atoms: C2_2  and  C3_3 
REMARK       I    between atoms: C3_3  and  N1_5 
REMARK    2  A    between atoms: N1_5  and  C4_6 
REMARK    3  A    between atoms: C7_9  and  N2_10 
REMARK    4  A    between atoms: N2_10  and  C8_11 
ROOT
HETATM    1  C4  UNL     1      26.266   1.462  52.272  1.00  0.00     0.036 A 
HETATM    2  C5  UNL     1      25.018   1.642  52.648  1.00  0.00     0.044 A 
HETATM    3  C6  UNL     1      24.270   2.439  51.656  1.00  0.00     0.002 A 
HETATM    4  C7  UNL     1      22.991   2.816  51.639  1.00  0.00     0.041 A 
HETATM    5  C14 UNL     1      22.533   3.639  50.520  1.00  0.00     0.206 A 
HETATM    6  N3  UNL     1      23.551   3.861  49.547  1.00  0.00    -0.295 NA
HETATM    7  C15 UNL     1      24.737   3.490  49.538  1.00  0.00     0.123 A 
HETATM    8  C16 UNL     1      25.260   2.702  50.641  1.00  0.00    -0.005 A 
HETATM    9  C17 UNL     1      26.418   2.152  50.969  1.00  0.00     0.043 A 
ENDROOT
BRANCH   4  10
HETATM   10  N2  UNL     1      22.198   2.406  52.717  1.00  0.00    -0.357 N 
HETATM   11  H6  UNL     1      22.100   3.108  53.515  1.00  0.00     0.166 HD
BRANCH  10  12
HETATM   12  C8  UNL     1      21.480   1.239  53.037  1.00  0.00     0.033 A 
HETATM   13  C9  UNL     1      21.889   0.223  53.857  1.00  0.00     0.029 A 
HETATM   14  C10 UNL     1      21.196  -0.934  54.152  1.00  0.00     0.004 A 
HETATM   15  C11 UNL     1      19.969  -1.103  53.575  1.00  0.00     0.019 A 
HETATM   16  C12 UNL     1      19.474  -0.140  52.741  1.00  0.00     0.013 A 
HETATM   17 BR1  UNL     1      17.763  -0.384  51.941  1.00  0.00    -0.051 Br
HETATM   18  C13 UNL     1      20.226   0.982  52.498  1.00  0.00     0.048 A 
ENDBRANCH  10  12
ENDBRANCH   4  10
BRANCH   1  19
HETATM   19  N1  UNL     1      27.474   0.842  52.700  1.00  0.00    -0.324 N 
HETATM   20  C3  UNL     1      28.470   1.378  53.595  1.00  0.00     0.241 C 
HETATM   21  O1  UNL     1      28.179   2.525  54.010  1.00  0.00    -0.269 OA
HETATM   22  H4  UNL     1      27.433  -0.092  52.194  1.00  0.00     0.169 HD
BRANCH  20  23
HETATM   23  C2  UNL     1      29.554   0.429  53.771  1.00  0.00     0.048 C 
HETATM   24  C1  UNL     1      29.952  -0.823  53.643  1.00  0.00     0.037 C 
ENDBRANCH  20  23
ENDBRANCH   1  19
TORSDOF 4
ENDMDL
MODEL 5
REMARK VINA RESULT:      -7.6      3.842      7.257
REMARK  4 active torsions:
REMARK  status: ('A' for Active; 'I' for Inactive)
REMARK    1  A    between atoms: C2_2  and  C3_3 
REMARK       I    between atoms: C3_3  and  N1_5 
REMARK    2  A    between atoms: N1_5  and  C4_6 
REMARK    3  A    between atoms: C7_9  and  N2_10 
REMARK    4  A    between atoms: N2_10  and  C8_11 
ROOT
HETATM    1  C4  UNL     1      26.440   2.240  51.430  1.00  0.00     0.036 A 
HETATM    2  C5  UNL     1      25.482   1.374  51.682  1.00  0.00     0.044 A 
HETATM    3  C6  UNL     1      25.734   0.650  52.943  1.00  0.00     0.002 A 
HETATM    4  C7  UNL     1      25.005  -0.277  53.566  1.00  0.00     0.041 A 
HETATM    5  C14 UNL     1      25.530  -0.843  54.808  1.00  0.00     0.206 A 
HETATM    6  N3  UNL     1      26.758  -0.242  55.210  1.00  0.00    -0.295 NA
HETATM    7  C15 UNL     1      27.431   0.642  54.653  1.00  0.00     0.123 A 
HETATM    8  C16 UNL     1      26.979   1.216  53.397  1.00  0.00    -0.005 A 
HETATM    9  C17 UNL     1      27.410   2.134  52.546  1.00  0.00     0.043 A 
ENDROOT
BRANCH   4  10
HETATM   10  N2  UNL     1      23.798  -0.646  52.957  1.00  0.00    -0.357 N 
HETATM   11  H6  UNL     1      23.839  -1.511  52.334  1.00  0.00     0.166 HD
BRANCH  10  12
HETATM   12  C8  UNL     1      22.491  -0.126  52.946  1.00  0.00     0.033 A 
HETATM   13  C9  UNL     1      21.667   0.046  54.024  1.00  0.00     0.029 A 
HETATM   14  C10 UNL     1      20.375   0.533  54.010  1.00  0.00     0.004 A 
HETATM   15  C11 UNL     1      19.844   0.888  52.803  1.00  0.00     0.019 A 
HETATM   16  C12 UNL     1      20.592   0.753  51.667  1.00  0.00     0.013 A 
HETATM   17 BR1  UNL     1      19.843   1.249  49.988  1.00  0.00    -0.051 Br
HETATM   18  C13 UNL     1      21.869   0.260  51.765  1.00  0.00     0.048 A 
ENDBRANCH  10  12
ENDBRANCH   4  10
BRANCH   1  19
HETATM   19  N1  UNL     1      26.831   3.210  50.463  1.00  0.00    -0.324 N 
HETATM   20  C3  UNL     1      26.041   4.294  49.934  1.00  0.00     0.241 C 
HETATM   21  O1  UNL     1      24.887   4.334  50.422  1.00  0.00    -0.269 OA
HETATM   22  H4  UNL     1      27.832   2.920  50.253  1.00  0.00     0.169 HD
BRANCH  20  23
HETATM   23  C2  UNL     1      26.810   5.053  48.964  1.00  0.00     0.048 C 
HETATM   24  C1  UNL     1      28.006   5.316  48.472  1.00  0.00     0.037 C 
ENDBRANCH  20  23
ENDBRANCH   1  19
TORSDOF 4
ENDMDL
MODEL 6
REMARK VINA RESULT:      -7.5      4.287      7.681
REMARK  4 active torsions:
REMARK  status: ('A' for Active; 'I' for Inactive)
REMARK    1  A    between atoms: C2_2  and  C3_3 
REMARK       I    between atoms: C3_3  and  N1_5 
REMARK    2  A    between atoms: N1_5  and  C4_6 
REMARK    3  A    between atoms: C7_9  and  N2_10 
REMARK    4  A    between atoms: N2_10  and  C8_11 
ROOT
HETATM    1  C4  UNL     1      25.847   2.916  51.194  1.00  0.00     0.036 A 
HETATM    2  C5  UNL     1      24.700   2.547  51.722  1.00  0.00     0.044 A 
HETATM    3  C6  UNL     1      24.831   1.266  52.444  1.00  0.00     0.002 A 
HETATM    4  C7  UNL     1      23.929   0.569  53.135  1.00  0.00     0.041 A 
HETATM    5  C14 UNL     1      24.349  -0.701  53.727  1.00  0.00     0.206 A 
HETATM    6  N3  UNL     1      25.733  -0.973  53.520  1.00  0.00    -0.295 NA
HETATM    7  C15 UNL     1      26.589  -0.316  52.903  1.00  0.00     0.123 A 
HETATM    8  C16 UNL     1      26.222   0.935  52.262  1.00  0.00    -0.005 A 
HETATM    9  C17 UNL     1      26.832   1.866  51.547  1.00  0.00     0.043 A 
ENDROOT
BRANCH   4  10
HETATM   10  N2  UNL     1      22.639   1.109  53.215  1.00  0.00    -0.357 N 
HETATM   11  H6  UNL     1      22.580   2.120  53.552  1.00  0.00     0.166 HD
BRANCH  10  12
HETATM   12  C8  UNL     1      21.341   0.625  52.970  1.00  0.00     0.033 A 
HETATM   13  C9  UNL     1      20.644  -0.273  53.732  1.00  0.00     0.029 A 
HETATM   14  C10 UNL     1      19.379  -0.767  53.479  1.00  0.00     0.004 A 
HETATM   15  C11 UNL     1      18.738  -0.325  52.358  1.00  0.00     0.019 A 
HETATM   16  C12 UNL     1      19.355   0.575  51.534  1.00  0.00     0.013 A 
HETATM   17 BR1  UNL     1      18.453   1.185  49.971  1.00  0.00    -0.051 Br
HETATM   18  C13 UNL     1      20.613   1.018  51.855  1.00  0.00     0.048 A 
ENDBRANCH  10  12
ENDBRANCH   4  10
BRANCH   1  19
HETATM   19  N1  UNL     1      26.424   3.961  50.418  1.00  0.00    -0.324 N 
HETATM   20  C3  UNL     1      25.819   4.685  49.327  1.00  0.00     0.241 C 
HETATM   21  O1  UNL     1      24.649   4.305  49.084  1.00  0.00    -0.269 OA
HETATM   22  H4  UNL     1      27.389   4.052  50.854  1.00  0.00     0.169 HD
BRANCH  20  23
HETATM   23  C2  UNL     1      26.745   5.670  48.799  1.00  0.00     0.048 C 
HETATM   24  C1  UNL     1      27.961   5.902  48.341  1.00  0.00     0.037 C 
ENDBRANCH  20  23
ENDBRANCH   1  19
TORSDOF 4
ENDMDL
MODEL 7
REMARK VINA RESULT:      -7.3      4.622      7.317
REMARK  4 active torsions:
REMARK  status: ('A' for Active; 'I' for Inactive)
REMARK    1  A    between atoms: C2_2  and  C3_3 
REMARK       I    between atoms: C3_3  and  N1_5 
REMARK    2  A    between atoms: N1_5  and  C4_6 
REMARK    3  A    between atoms: C7_9  and  N2_10 
REMARK    4  A    between atoms: N2_10  and  C8_11 
ROOT
HETATM    1  C4  UNL     1      21.572   2.312  51.718  1.00  0.00     0.036 A 
HETATM    2  C5  UNL     1      22.682   1.634  51.917  1.00  0.00     0.044 A 
HETATM    3  C6  UNL     1      22.535   0.681  53.034  1.00  0.00     0.002 A 
HETATM    4  C7  UNL     1      23.398  -0.204  53.533  1.00  0.00     0.041 A 
HETATM    5  C14 UNL     1      22.973  -1.006  54.680  1.00  0.00     0.206 A 
HETATM    6  N3  UNL     1      21.623  -0.753  55.057  1.00  0.00    -0.295 NA
HETATM    7  C15 UNL     1      20.799   0.047  54.581  1.00  0.00     0.123 A 
HETATM    8  C16 UNL     1      21.176   0.897  53.465  1.00  0.00    -0.005 A 
HETATM    9  C17 UNL     1      20.597   1.831  52.726  1.00  0.00     0.043 A 
ENDROOT
BRANCH   4  10
HETATM   10  N2  UNL     1      24.657  -0.271  52.923  1.00  0.00    -0.357 N 
HETATM   11  H6  UNL     1      24.733  -0.930  52.087  1.00  0.00     0.166 HD
BRANCH  10  12
HETATM   12  C8  UNL     1      25.910   0.325  53.159  1.00  0.00     0.033 A 
HETATM   13  C9  UNL     1      26.170   1.661  53.293  1.00  0.00     0.029 A 
HETATM   14  C10 UNL     1      27.403   2.248  53.500  1.00  0.00     0.004 A 
HETATM   15  C11 UNL     1      28.490   1.427  53.584  1.00  0.00     0.019 A 
HETATM   16  C12 UNL     1      28.330   0.075  53.464  1.00  0.00     0.013 A 
HETATM   17 BR1  UNL     1      29.852  -1.063  53.583  1.00  0.00    -0.051 Br
HETATM   18  C13 UNL     1      27.070  -0.431  53.259  1.00  0.00     0.048 A 
ENDBRANCH  10  12
ENDBRANCH   4  10
BRANCH   1  19
HETATM   19  N1  UNL     1      21.027   3.325  50.879  1.00  0.00    -0.324 N 
HETATM   20  C3  UNL     1      21.182   4.753  51.008  1.00  0.00     0.241 C 
HETATM   21  O1  UNL     1      21.891   5.076  51.990  1.00  0.00    -0.269 OA
HETATM   22  H4  UNL     1      20.495   2.752  50.159  1.00  0.00     0.169 HD
BRANCH  20  23
HETATM   23  C2  UNL     1      20.462   5.437  49.949  1.00  0.00     0.048 C 
HETATM   24  C1  UNL     1      19.769   6.505  49.603  1.00  0.00     0.037 C 
ENDBRANCH  20  23
ENDBRANCH   1  19
TORSDOF 4
ENDMDL
MODEL 8
REMARK VINA RESULT:      -7.2      3.830      5.751
REMARK  4 active torsions:
REMARK  status: ('A' for Active; 'I' for Inactive)
REMARK    1  A    between atoms: C2_2  and  C3_3 
REMARK       I    between atoms: C3_3  and  N1_5 
REMARK    2  A    between atoms: N1_5  and  C4_6 
REMARK    3  A    between atoms: C7_9  and  N2_10 
REMARK    4  A    between atoms: N2_10  and  C8_11 
ROOT
HETATM    1  C4  UNL     1      22.344   0.424  53.042  1.00  0.00     0.036 A 
HETATM    2  C5  UNL     1      22.999   1.451  52.546  1.00  0.00     0.044 A 
HETATM    3  C6  UNL     1      24.456   1.217  52.567  1.00  0.00     0.002 A 
HETATM    4  C7  UNL     1      25.459   1.982  52.135  1.00  0.00     0.041 A 
HETATM    5  C14 UNL     1      26.825   1.491  52.317  1.00  0.00     0.206 A 
HETATM    6  N3  UNL     1      26.868   0.187  52.890  1.00  0.00    -0.295 NA
HETATM    7  C15 UNL     1      25.940  -0.547  53.269  1.00  0.00     0.123 A 
HETATM    8  C16 UNL     1      24.563  -0.098  53.149  1.00  0.00    -0.005 A 
HETATM    9  C17 UNL     1      23.364  -0.579  53.432  1.00  0.00     0.043 A 
ENDROOT
BRANCH   4  10
HETATM   10  N2  UNL     1      25.113   3.212  51.560  1.00  0.00    -0.357 N 
HETATM   11  H6  UNL     1      24.211   3.655  51.921  1.00  0.00     0.166 HD
BRANCH  10  12
HETATM   12  C8  UNL     1      25.671   4.037  50.567  1.00  0.00     0.033 A 
HETATM   13  C9  UNL     1      26.720   3.733  49.742  1.00  0.00     0.029 A 
HETATM   14  C10 UNL     1      27.283   4.552  48.783  1.00  0.00     0.004 A 
HETATM   15  C11 UNL     1      26.752   5.800  48.623  1.00  0.00     0.019 A 
HETATM   16  C12 UNL     1      25.700   6.194  49.401  1.00  0.00     0.013 A 
HETATM   17 BR1  UNL     1      24.967   7.937  49.172  1.00  0.00    -0.051 Br
HETATM   18  C13 UNL     1      25.197   5.321  50.333  1.00  0.00     0.048 A 
ENDBRANCH  10  12
ENDBRANCH   4  10
BRANCH   1  19
HETATM   19  N1  UNL     1      21.018  -0.017  53.318  1.00  0.00    -0.324 N 
HETATM   20  C3  UNL     1      19.918  -0.128  52.392  1.00  0.00     0.241 C 
HETATM   21  O1  UNL     1      20.228   0.216  51.228  1.00  0.00    -0.269 OA
HETATM   22  H4  UNL     1      21.069  -0.233  54.357  1.00  0.00     0.169 HD
BRANCH  20  23
HETATM   23  C2  UNL     1      18.732  -0.614  53.074  1.00  0.00     0.048 C 
HETATM   24  C1  UNL     1      17.932  -1.641  53.293  1.00  0.00     0.037 C 
ENDBRANCH  20  23
ENDBRANCH   1  19
TORSDOF 4
ENDMDL
MODEL 9
REMARK VINA RESULT:      -7.2      3.017      3.998
REMARK  4 active torsions:
REMARK  status: ('A' for Active; 'I' for Inactive)
REMARK    1  A    between atoms: C2_2  and  C3_3 
REMARK       I    between atoms: C3_3  and  N1_5 
REMARK    2  A    between atoms: N1_5  and  C4_6 
REMARK    3  A    between atoms: C7_9  and  N2_10 
REMARK    4  A    between atoms: N2_10  and  C8_11 
ROOT
HETATM    1  C4  UNL     1      24.894   0.737  53.407  1.00  0.00     0.036 A 
HETATM    2  C5  UNL     1      24.213   1.757  52.930  1.00  0.00     0.044 A 
HETATM    3  C6  UNL     1      22.775   1.441  52.829  1.00  0.00     0.002 A 
HETATM    4  C7  UNL     1      21.752   2.197  52.429  1.00  0.00     0.041 A 
HETATM    5  C14 UNL     1      20.420   1.593  52.409  1.00  0.00     0.206 A 
HETATM    6  N3  UNL     1      20.414   0.258  52.904  1.00  0.00    -0.295 NA
HETATM    7  C15 UNL     1      21.356  -0.447  53.306  1.00  0.00     0.123 A 
HETATM    8  C16 UNL     1      22.708   0.086  53.315  1.00  0.00    -0.005 A 
HETATM    9  C17 UNL     1      23.912  -0.346  53.655  1.00  0.00     0.043 A 
ENDROOT
BRANCH   4  10
HETATM   10  N2  UNL     1      22.050   3.509  52.039  1.00  0.00    -0.357 N 
HETATM   11  H6  UNL     1      21.743   4.275  52.715  1.00  0.00     0.166 HD
BRANCH  10  12
HETATM   12  C8  UNL     1      22.664   4.098  50.918  1.00  0.00     0.033 A 
HETATM   13  C9  UNL     1      22.505   3.731  49.609  1.00  0.00     0.029 A 
HETATM   14  C10 UNL     1      23.126   4.293  48.511  1.00  0.00     0.004 A 
HETATM   15  C11 UNL     1      23.992   5.326  48.731  1.00  0.00     0.019 A 
HETATM   16  C12 UNL     1      24.214   5.764  50.007  1.00  0.00     0.013 A 
HETATM   17 BR1  UNL     1      25.425   7.204  50.304  1.00  0.00    -0.051 Br
HETATM   18  C13 UNL     1      23.559   5.152  51.046  1.00  0.00     0.048 A 
ENDBRANCH  10  12
ENDBRANCH   4  10
BRANCH   1  19
HETATM   19  N1  UNL     1      26.222   0.351  53.746  1.00  0.00    -0.324 N 
HETATM   20  C3  UNL     1      27.230  -0.198  52.873  1.00  0.00     0.241 C 
HETATM   21  O1  UNL     1      26.829  -0.324  51.691  1.00  0.00    -0.269 OA
HETATM   22  H4  UNL     1      26.257   0.575  54.784  1.00  0.00     0.169 HD
BRANCH  20  23
HETATM   23  C2  UNL     1      28.450  -0.460  53.612  1.00  0.00     0.048 C 
HETATM   24  C1  UNL     1      29.607  -1.095  53.637  1.00  0.00     0.037 C 
ENDBRANCH  20  23
ENDBRANCH   1  19
TORSDOF 4
ENDMDL
