MODEL 1
REMARK VINA RESULT:      -8.5      0.000      0.000
REMARK  4 active torsions:
REMARK  status: ('A' for Active; 'I' for Inactive)
REMARK    1  A    between atoms: C2_2  and  C3_3 
REMARK    2  A    between atoms: C3_3  and  N1_4 
REMARK    3  A    between atoms: C6_7  and  C7_8 
REMARK       I    between atoms: C7_8  and  N2_10 
REMARK    4  A    between atoms: N2_10  and  C8_11 
ROOT
HETATM    1  N1  UNL     1      22.161   2.070  51.438  1.00  0.00    -0.344 N 
HETATM    2  C4  UNL     1      23.425   1.432  51.807  1.00  0.00     0.166 A 
HETATM    3  C5  UNL     1      23.073   0.540  52.942  1.00  0.00    -0.009 A 
HETATM    4  C6  UNL     1      23.867  -0.308  53.689  1.00  0.00     0.041 A 
HETATM    5  C13 UNL     1      23.278  -1.044  54.721  1.00  0.00     0.018 A 
HETATM    6  C14 UNL     1      21.949  -0.958  55.017  1.00  0.00     0.002 A 
HETATM    7  C15 UNL     1      21.175  -0.104  54.256  1.00  0.00     0.018 A 
HETATM    8  C16 UNL     1      21.720   0.640  53.229  1.00  0.00     0.041 A 
HETATM    9  C17 UNL     1      21.123   1.593  52.300  1.00  0.00     0.254 A 
HETATM   10  O2  UNL     1      19.912   1.903  52.298  1.00  0.00    -0.267 OA
ENDROOT
BRANCH   4  11
HETATM   11  C7  UNL     1      25.310  -0.503  53.475  1.00  0.00     0.257 C 
HETATM   12  O1  UNL     1      25.925  -0.916  54.522  1.00  0.00    -0.267 OA
HETATM   13  N2  UNL     1      26.144  -0.323  52.342  1.00  0.00    -0.307 N 
HETATM   14  H10 UNL     1      25.606   0.011  51.521  1.00  0.00     0.170 HD
BRANCH  13  15
HETATM   15  C8  UNL     1      27.462  -0.688  52.803  1.00  0.00     0.129 A 
HETATM   16  C9  UNL     1      28.005  -1.957  52.858  1.00  0.00     0.050 A 
HETATM   17  C10 UNL     1      29.295  -2.025  53.348  1.00  0.00     0.005 A 
HETATM   18  C11 UNL     1      29.964  -0.884  53.746  1.00  0.00     0.019 A 
HETATM   19  C12 UNL     1      29.382   0.369  53.674  1.00  0.00     0.119 A 
HETATM   20  N3  UNL     1      28.107   0.447  53.190  1.00  0.00    -0.243 NA
ENDBRANCH  13  15
ENDBRANCH   4  11
BRANCH   1  21
HETATM   21  C3  UNL     1      21.892   3.032  50.401  1.00  0.00     0.126 C 
BRANCH  21  22
HETATM   22  C2  UNL     1      22.351   2.536  49.054  1.00  0.00     0.015 C 
HETATM   23  C1  UNL     1      21.498   1.373  48.587  1.00  0.00     0.006 C 
ENDBRANCH  21  22
ENDBRANCH   1  21
TORSDOF 4
ENDMDL
MODEL 2
REMARK VINA RESULT:      -8.2      3.731      6.651
REMARK  4 active torsions:
REMARK  status: ('A' for Active; 'I' for Inactive)
REMARK    1  A    between atoms: C2_2  and  C3_3 
REMARK    2  A    between atoms: C3_3  and  N1_4 
REMARK    3  A    between atoms: C6_7  and  C7_8 
REMARK       I    between atoms: C7_8  and  N2_10 
REMARK    4  A    between atoms: N2_10  and  C8_11 
ROOT
HETATM    1  N1  UNL     1      27.489   0.681  53.872  1.00  0.00    -0.344 N 
HETATM    2  C4  UNL     1      27.331   1.637  52.775  1.00  0.00     0.166 A 
HETATM    3  C5  UNL     1      25.887   1.567  52.427  1.00  0.00    -0.009 A 
HETATM    4  C6  UNL     1      25.168   2.250  51.467  1.00  0.00     0.041 A 
HETATM    5  C13 UNL     1      23.800   1.991  51.342  1.00  0.00     0.018 A 
HETATM    6  C14 UNL     1      23.149   1.090  52.134  1.00  0.00     0.002 A 
HETATM    7  C15 UNL     1      23.889   0.419  53.087  1.00  0.00     0.018 A 
HETATM    8  C16 UNL     1      25.242   0.647  53.241  1.00  0.00     0.041 A 
HETATM    9  C17 UNL     1      26.223   0.076  54.157  1.00  0.00     0.254 A 
HETATM   10  O2  UNL     1      25.954  -0.785  55.021  1.00  0.00    -0.267 OA
ENDROOT
BRANCH   4  11
HETATM   11  C7  UNL     1      25.740   3.252  50.553  1.00  0.00     0.257 C 
HETATM   12  O1  UNL     1      25.465   4.458  50.889  1.00  0.00    -0.267 OA
HETATM   13  N2  UNL     1      26.530   3.138  49.381  1.00  0.00    -0.307 N 
HETATM   14  H10 UNL     1      26.728   2.148  49.147  1.00  0.00     0.170 HD
BRANCH  13  15
HETATM   15  C8  UNL     1      26.751   4.502  48.962  1.00  0.00     0.129 A 
HETATM   16  C9  UNL     1      25.802   5.494  48.817  1.00  0.00     0.050 A 
HETATM   17  C10 UNL     1      26.288   6.717  48.395  1.00  0.00     0.005 A 
HETATM   18  C11 UNL     1      27.635   6.899  48.146  1.00  0.00     0.019 A 
HETATM   19  C12 UNL     1      28.552   5.875  48.305  1.00  0.00     0.119 A 
HETATM   20  N3  UNL     1      28.082   4.663  48.721  1.00  0.00    -0.243 NA
ENDBRANCH  13  15
ENDBRANCH   4  11
BRANCH   1  21
HETATM   21  C3  UNL     1      28.672   0.327  54.611  1.00  0.00     0.126 C 
BRANCH  21  22
HETATM   22  C2  UNL     1      29.726  -0.271  53.714  1.00  0.00     0.015 C 
HETATM   23  C1  UNL     1      29.379  -1.701  53.352  1.00  0.00     0.006 C 
ENDBRANCH  21  22
ENDBRANCH   1  21
TORSDOF 4
ENDMDL
MODEL 3
REMARK VINA RESULT:      -7.9      2.759      6.537
REMARK  4 active torsions:
REMARK  status: ('A' for Active; 'I' for Inactive)
REMARK    1  A    between atoms: C2_2  and  C3_3 
REMARK    2  A    between atoms: C3_3  and  N1_4 
REMARK    3  A    between atoms: C6_7  and  C7_8 
REMARK       I    between atoms: C7_8  and  N2_10 
REMARK    4  A    between atoms: N2_10  and  C8_11 
ROOT
HETATM    1  N1  UNL     1      26.512   0.431  54.223  1.00  0.00    -0.344 N 
HETATM    2  C4  UNL     1      26.121   1.480  53.282  1.00  0.00     0.166 A 
HETATM    3  C5  UNL     1      24.725   1.137  52.904  1.00  0.00    -0.009 A 
HETATM    4  C6  UNL     1      23.852   1.777  52.047  1.00  0.00     0.041 A 
HETATM    5  C13 UNL     1      22.576   1.235  51.861  1.00  0.00     0.018 A 
HETATM    6  C14 UNL     1      22.162   0.100  52.495  1.00  0.00     0.002 A 
HETATM    7  C15 UNL     1      23.053  -0.522  53.347  1.00  0.00     0.018 A 
HETATM    8  C16 UNL     1      24.321  -0.018  53.557  1.00  0.00     0.041 A 
HETATM    9  C17 UNL     1      25.423  -0.482  54.392  1.00  0.00     0.254 A 
HETATM   10  O2  UNL     1      25.374  -1.503  55.111  1.00  0.00    -0.267 OA
ENDROOT
BRANCH   4  11
HETATM   11  C7  UNL     1      24.163   3.009  51.305  1.00  0.00     0.257 C 
HETATM   12  O1  UNL     1      24.141   2.851  50.032  1.00  0.00    -0.267 OA
HETATM   13  N2  UNL     1      24.481   4.326  51.724  1.00  0.00    -0.307 N 
HETATM   14  H10 UNL     1      24.487   4.407  52.758  1.00  0.00     0.170 HD
BRANCH  13  15
HETATM   15  C8  UNL     1      24.679   5.057  50.496  1.00  0.00     0.129 A 
HETATM   16  C9  UNL     1      25.834   5.126  49.743  1.00  0.00     0.050 A 
HETATM   17  C10 UNL     1      25.750   5.906  48.606  1.00  0.00     0.005 A 
HETATM   18  C11 UNL     1      24.578   6.558  48.276  1.00  0.00     0.019 A 
HETATM   19  C12 UNL     1      23.441   6.461  49.061  1.00  0.00     0.119 A 
HETATM   20  N3  UNL     1      23.514   5.692  50.186  1.00  0.00    -0.243 NA
ENDBRANCH  13  15
ENDBRANCH   4  11
BRANCH   1  21
HETATM   21  C3  UNL     1      27.758   0.247  54.920  1.00  0.00     0.126 C 
BRANCH  21  22
HETATM   22  C2  UNL     1      28.939   0.446  54.004  1.00  0.00     0.015 C 
HETATM   23  C1  UNL     1      29.430  -0.881  53.460  1.00  0.00     0.006 C 
ENDBRANCH  21  22
ENDBRANCH   1  21
TORSDOF 4
ENDMDL
MODEL 4
REMARK VINA RESULT:      -7.7      3.355      5.216
REMARK  4 active torsions:
REMARK  status: ('A' for Active; 'I' for Inactive)
REMARK    1  A    between atoms: C2_2  and  C3_3 
REMARK    2  A    between atoms: C3_3  and  N1_4 
REMARK    3  A    between atoms: C6_7  and  C7_8 
REMARK       I    between atoms: C7_8  and  N2_10 
REMARK    4  A    between atoms: N2_10  and  C8_11 
ROOT
HETATM    1  N1  UNL     1      22.295   0.741  53.169  1.00  0.00    -0.344 N 
HETATM    2  C4  UNL     1      23.176   1.593  52.369  1.00  0.00     0.166 A 
HETATM    3  C5  UNL     1      24.510   0.946  52.472  1.00  0.00    -0.009 A 
HETATM    4  C6  UNL     1      25.721   1.309  51.918  1.00  0.00     0.041 A 
HETATM    5  C13 UNL     1      26.843   0.517  52.179  1.00  0.00     0.018 A 
HETATM    6  C14 UNL     1      26.787  -0.601  52.959  1.00  0.00     0.002 A 
HETATM    7  C15 UNL     1      25.564  -0.944  53.502  1.00  0.00     0.018 A 
HETATM    8  C16 UNL     1      24.434  -0.188  53.267  1.00  0.00     0.041 A 
HETATM    9  C17 UNL     1      23.055  -0.341  53.718  1.00  0.00     0.254 A 
HETATM   10  O2  UNL     1      22.658  -1.270  54.453  1.00  0.00    -0.267 OA
ENDROOT
BRANCH   4  11
HETATM   11  C7  UNL     1      25.925   2.484  51.055  1.00  0.00     0.257 C 
HETATM   12  O1  UNL     1      27.090   3.005  51.177  1.00  0.00    -0.267 OA
HETATM   13  N2  UNL     1      25.086   3.143  50.121  1.00  0.00    -0.307 N 
HETATM   14  H10 UNL     1      24.156   2.689  50.054  1.00  0.00     0.170 HD
BRANCH  13  15
HETATM   15  C8  UNL     1      25.892   4.230  49.617  1.00  0.00     0.129 A 
HETATM   16  C9  UNL     1      27.086   4.134  48.932  1.00  0.00     0.050 A 
HETATM   17  C10 UNL     1      27.653   5.340  48.566  1.00  0.00     0.005 A 
HETATM   18  C11 UNL     1      27.041   6.538  48.879  1.00  0.00     0.019 A 
HETATM   19  C12 UNL     1      25.841   6.587  49.568  1.00  0.00     0.119 A 
HETATM   20  N3  UNL     1      25.273   5.401  49.934  1.00  0.00    -0.243 NA
ENDBRANCH  13  15
ENDBRANCH   4  11
BRANCH   1  21
HETATM   21  C3  UNL     1      20.886   0.876  53.431  1.00  0.00     0.126 C 
BRANCH  21  22
HETATM   22  C2  UNL     1      20.163   1.499  52.264  1.00  0.00     0.015 C 
HETATM   23  C1  UNL     1      19.700   0.437  51.287  1.00  0.00     0.006 C 
ENDBRANCH  21  22
ENDBRANCH   1  21
TORSDOF 4
ENDMDL
MODEL 5
REMARK VINA RESULT:      -7.6      1.582      6.550
REMARK  4 active torsions:
REMARK  status: ('A' for Active; 'I' for Inactive)
REMARK    1  A    between atoms: C2_2  and  C3_3 
REMARK    2  A    between atoms: C3_3  and  N1_4 
REMARK    3  A    between atoms: C6_7  and  C7_8 
REMARK       I    between atoms: C7_8  and  N2_10 
REMARK    4  A    between atoms: N2_10  and  C8_11 
ROOT
HETATM    1  N1  UNL     1      25.849   0.028  53.971  1.00  0.00    -0.344 N 
HETATM    2  C4  UNL     1      25.082   0.720  52.935  1.00  0.00     0.166 A 
HETATM    3  C5  UNL     1      23.678   0.289  53.162  1.00  0.00    -0.009 A 
HETATM    4  C6  UNL     1      22.522   0.625  52.487  1.00  0.00     0.041 A 
HETATM    5  C13 UNL     1      21.311   0.067  52.909  1.00  0.00     0.018 A 
HETATM    6  C14 UNL     1      21.229  -0.795  53.963  1.00  0.00     0.002 A 
HETATM    7  C15 UNL     1      22.398  -1.117  54.623  1.00  0.00     0.018 A 
HETATM    8  C16 UNL     1      23.613  -0.587  54.237  1.00  0.00     0.041 A 
HETATM    9  C17 UNL     1      24.961  -0.768  54.763  1.00  0.00     0.254 A 
HETATM   10  O2  UNL     1      25.239  -1.499  55.737  1.00  0.00    -0.267 OA
ENDROOT
BRANCH   4  11
HETATM   11  C7  UNL     1      22.464   1.546  51.340  1.00  0.00     0.257 C 
HETATM   12  O1  UNL     1      22.621   2.775  51.670  1.00  0.00    -0.267 OA
HETATM   13  N2  UNL     1      22.269   1.335  49.951  1.00  0.00    -0.307 N 
HETATM   14  H10 UNL     1      22.147   0.330  49.730  1.00  0.00     0.170 HD
BRANCH  13  15
HETATM   15  C8  UNL     1      22.318   2.658  49.376  1.00  0.00     0.129 A 
HETATM   16  C9  UNL     1      23.443   3.360  48.992  1.00  0.00     0.050 A 
HETATM   17  C10 UNL     1      23.205   4.617  48.470  1.00  0.00     0.005 A 
HETATM   18  C11 UNL     1      21.918   5.105  48.355  1.00  0.00     0.019 A 
HETATM   19  C12 UNL     1      20.817   4.367  48.753  1.00  0.00     0.119 A 
HETATM   20  N3  UNL     1      21.043   3.123  49.270  1.00  0.00    -0.243 NA
ENDBRANCH  13  15
ENDBRANCH   4  11
BRANCH   1  21
HETATM   21  C3  UNL     1      27.262   0.066  54.240  1.00  0.00     0.126 C 
BRANCH  21  22
HETATM   22  C2  UNL     1      28.048  -0.652  53.172  1.00  0.00     0.015 C 
HETATM   23  C1  UNL     1      29.433  -1.012  53.671  1.00  0.00     0.006 C 
ENDBRANCH  21  22
ENDBRANCH   1  21
TORSDOF 4
ENDMDL
MODEL 6
REMARK VINA RESULT:      -7.5      2.024      2.576
REMARK  4 active torsions:
REMARK  status: ('A' for Active; 'I' for Inactive)
REMARK    1  A    between atoms: C2_2  and  C3_3 
REMARK    2  A    between atoms: C3_3  and  N1_4 
REMARK    3  A    between atoms: C6_7  and  C7_8 
REMARK       I    between atoms: C7_8  and  N2_10 
REMARK    4  A    between atoms: N2_10  and  C8_11 
ROOT
HETATM    1  N1  UNL     1      23.476   4.055  51.334  1.00  0.00    -0.344 N 
HETATM    2  C4  UNL     1      24.484   3.156  51.898  1.00  0.00     0.166 A 
HETATM    3  C5  UNL     1      23.703   2.001  52.413  1.00  0.00    -0.009 A 
HETATM    4  C6  UNL     1      24.129   0.850  53.046  1.00  0.00     0.041 A 
HETATM    5  C13 UNL     1      23.173  -0.092  53.439  1.00  0.00     0.018 A 
HETATM    6  C14 UNL     1      21.838   0.082  53.219  1.00  0.00     0.002 A 
HETATM    7  C15 UNL     1      21.437   1.241  52.585  1.00  0.00     0.018 A 
HETATM    8  C16 UNL     1      22.350   2.195  52.181  1.00  0.00     0.041 A 
HETATM    9  C17 UNL     1      22.178   3.476  51.506  1.00  0.00     0.254 A 
HETATM   10  O2  UNL     1      21.072   3.940  51.157  1.00  0.00    -0.267 OA
ENDROOT
BRANCH   4  11
HETATM   11  C7  UNL     1      25.535   0.530  53.340  1.00  0.00     0.257 C 
HETATM   12  O1  UNL     1      26.256   0.407  52.286  1.00  0.00    -0.267 OA
HETATM   13  N2  UNL     1      26.239   0.335  54.555  1.00  0.00    -0.307 N 
HETATM   14  H10 UNL     1      25.619   0.444  55.378  1.00  0.00     0.170 HD
BRANCH  13  15
HETATM   15  C8  UNL     1      27.593   0.047  54.144  1.00  0.00     0.129 A 
HETATM   16  C9  UNL     1      28.657   0.926  54.103  1.00  0.00     0.050 A 
HETATM   17  C10 UNL     1      29.850   0.386  53.664  1.00  0.00     0.005 A 
HETATM   18  C11 UNL     1      29.937  -0.943  53.300  1.00  0.00     0.019 A 
HETATM   19  C12 UNL     1      28.844  -1.790  53.356  1.00  0.00     0.119 A 
HETATM   20  N3  UNL     1      27.660  -1.266  53.790  1.00  0.00    -0.243 NA
ENDBRANCH  13  15
ENDBRANCH   4  11
BRANCH   1  21
HETATM   21  C3  UNL     1      23.648   5.332  50.693  1.00  0.00     0.126 C 
BRANCH  21  22
HETATM   22  C2  UNL     1      25.081   5.556  50.281  1.00  0.00     0.015 C 
HETATM   23  C1  UNL     1      25.155   6.170  48.897  1.00  0.00     0.006 C 
ENDBRANCH  21  22
ENDBRANCH   1  21
TORSDOF 4
ENDMDL
MODEL 7
REMARK VINA RESULT:      -7.5      3.007      6.611
REMARK  4 active torsions:
REMARK  status: ('A' for Active; 'I' for Inactive)
REMARK    1  A    between atoms: C2_2  and  C3_3 
REMARK    2  A    between atoms: C3_3  and  N1_4 
REMARK    3  A    between atoms: C6_7  and  C7_8 
REMARK       I    between atoms: C7_8  and  N2_10 
REMARK    4  A    between atoms: N2_10  and  C8_11 
ROOT
HETATM    1  N1  UNL     1      25.317   2.903  51.261  1.00  0.00    -0.344 N 
HETATM    2  C4  UNL     1      24.008   2.302  51.517  1.00  0.00     0.166 A 
HETATM    3  C5  UNL     1      24.284   1.211  52.489  1.00  0.00    -0.009 A 
HETATM    4  C6  UNL     1      23.424   0.311  53.085  1.00  0.00     0.041 A 
HETATM    5  C13 UNL     1      23.950  -0.631  53.974  1.00  0.00     0.018 A 
HETATM    6  C14 UNL     1      25.279  -0.694  54.274  1.00  0.00     0.002 A 
HETATM    7  C15 UNL     1      26.119   0.216  53.665  1.00  0.00     0.018 A 
HETATM    8  C16 UNL     1      25.639   1.162  52.783  1.00  0.00     0.041 A 
HETATM    9  C17 UNL     1      26.311   2.212  52.026  1.00  0.00     0.254 A 
HETATM   10  O2  UNL     1      27.540   2.431  52.074  1.00  0.00    -0.267 OA
ENDROOT
BRANCH   4  11
HETATM   11  C7  UNL     1      21.970   0.270  52.858  1.00  0.00     0.257 C 
HETATM   12  O1  UNL     1      21.646  -0.328  51.771  1.00  0.00    -0.267 OA
HETATM   13  N2  UNL     1      20.869   0.761  53.604  1.00  0.00    -0.307 N 
HETATM   14  H10 UNL     1      21.178   1.236  54.473  1.00  0.00     0.170 HD
BRANCH  13  15
HETATM   15  C8  UNL     1      19.712   0.392  52.825  1.00  0.00     0.129 A 
HETATM   16  C9  UNL     1      19.246   1.006  51.680  1.00  0.00     0.050 A 
HETATM   17  C10 UNL     1      18.107   0.447  51.133  1.00  0.00     0.005 A 
HETATM   18  C11 UNL     1      17.503  -0.649  51.717  1.00  0.00     0.019 A 
HETATM   19  C12 UNL     1      18.004  -1.235  52.867  1.00  0.00     0.119 A 
HETATM   20  N3  UNL     1      19.130  -0.690  53.415  1.00  0.00    -0.243 NA
ENDBRANCH  13  15
ENDBRANCH   4  11
BRANCH   1  21
HETATM   21  C3  UNL     1      25.665   4.004  50.401  1.00  0.00     0.126 C 
BRANCH  21  22
HETATM   22  C2  UNL     1      26.511   3.551  49.238  1.00  0.00     0.015 C 
HETATM   23  C1  UNL     1      27.460   4.650  48.801  1.00  0.00     0.006 C 
ENDBRANCH  21  22
ENDBRANCH   1  21
TORSDOF 4
ENDMDL
MODEL 8
REMARK VINA RESULT:      -7.4      3.088      5.565
REMARK  4 active torsions:
REMARK  status: ('A' for Active; 'I' for Inactive)
REMARK    1  A    between atoms: C2_2  and  C3_3 
REMARK    2  A    between atoms: C3_3  and  N1_4 
REMARK    3  A    between atoms: C6_7  and  C7_8 
REMARK       I    between atoms: C7_8  and  N2_10 
REMARK    4  A    between atoms: N2_10  and  C8_11 
ROOT
HETATM    1  N1  UNL     1      20.978  -0.211  53.428  1.00  0.00    -0.344 N 
HETATM    2  C4  UNL     1      21.715   0.864  52.763  1.00  0.00     0.166 A 
HETATM    3  C5  UNL     1      23.129   0.652  53.173  1.00  0.00    -0.009 A 
HETATM    4  C6  UNL     1      24.266   1.363  52.848  1.00  0.00     0.041 A 
HETATM    5  C13 UNL     1      25.491   0.950  53.380  1.00  0.00     0.018 A 
HETATM    6  C14 UNL     1      25.605  -0.130  54.207  1.00  0.00     0.002 A 
HETATM    7  C15 UNL     1      24.453  -0.825  54.518  1.00  0.00     0.018 A 
HETATM    8  C16 UNL     1      23.225  -0.448  54.012  1.00  0.00     0.041 A 
HETATM    9  C17 UNL     1      21.890  -1.009  54.189  1.00  0.00     0.254 A 
HETATM   10  O2  UNL     1      21.641  -2.012  54.891  1.00  0.00    -0.267 OA
ENDROOT
BRANCH   4  11
HETATM   11  C7  UNL     1      24.290   2.540  51.965  1.00  0.00     0.257 C 
HETATM   12  O1  UNL     1      24.287   2.237  50.718  1.00  0.00    -0.267 OA
HETATM   13  N2  UNL     1      24.316   3.934  52.226  1.00  0.00    -0.307 N 
HETATM   14  H10 UNL     1      24.318   4.132  53.243  1.00  0.00     0.170 HD
BRANCH  13  15
HETATM   15  C8  UNL     1      24.333   4.545  50.918  1.00  0.00     0.129 A 
HETATM   16  C9  UNL     1      25.438   4.801  50.131  1.00  0.00     0.050 A 
HETATM   17  C10 UNL     1      25.170   5.402  48.916  1.00  0.00     0.005 A 
HETATM   18  C11 UNL     1      23.875   5.713  48.548  1.00  0.00     0.019 A 
HETATM   19  C12 UNL     1      22.795   5.439  49.369  1.00  0.00     0.119 A 
HETATM   20  N3  UNL     1      23.051   4.844  50.572  1.00  0.00    -0.243 NA
ENDBRANCH  13  15
ENDBRANCH   4  11
BRANCH   1  21
HETATM   21  C3  UNL     1      19.570  -0.509  53.395  1.00  0.00     0.126 C 
BRANCH  21  22
HETATM   22  C2  UNL     1      18.948  -0.096  52.085  1.00  0.00     0.015 C 
HETATM   23  C1  UNL     1      17.526  -0.611  51.976  1.00  0.00     0.006 C 
ENDBRANCH  21  22
ENDBRANCH   1  21
TORSDOF 4
ENDMDL
MODEL 9
REMARK VINA RESULT:      -7.3      2.065      7.049
REMARK  4 active torsions:
REMARK  status: ('A' for Active; 'I' for Inactive)
REMARK    1  A    between atoms: C2_2  and  C3_3 
REMARK    2  A    between atoms: C3_3  and  N1_4 
REMARK    3  A    between atoms: C6_7  and  C7_8 
REMARK       I    between atoms: C7_8  and  N2_10 
REMARK    4  A    between atoms: N2_10  and  C8_11 
ROOT
HETATM    1  N1  UNL     1      25.313   0.587  52.450  1.00  0.00    -0.344 N 
HETATM    2  C4  UNL     1      24.066   1.277  52.121  1.00  0.00     0.166 A 
HETATM    3  C5  UNL     1      23.049   0.644  53.002  1.00  0.00    -0.009 A 
HETATM    4  C6  UNL     1      21.697   0.896  53.126  1.00  0.00     0.041 A 
HETATM    5  C13 UNL     1      20.956   0.144  54.041  1.00  0.00     0.018 A 
HETATM    6  C14 UNL     1      21.517  -0.828  54.817  1.00  0.00     0.002 A 
HETATM    7  C15 UNL     1      22.870  -1.061  54.676  1.00  0.00     0.018 A 
HETATM    8  C16 UNL     1      23.637  -0.340  53.783  1.00  0.00     0.041 A 
HETATM    9  C17 UNL     1      25.057  -0.397  53.458  1.00  0.00     0.254 A 
HETATM   10  O2  UNL     1      25.867  -1.184  53.994  1.00  0.00    -0.267 OA
ENDROOT
BRANCH   4  11
HETATM   11  C7  UNL     1      20.965   1.916  52.358  1.00  0.00     0.257 C 
HETATM   12  O1  UNL     1      20.415   1.452  51.297  1.00  0.00    -0.267 OA
HETATM   13  N2  UNL     1      20.754   3.303  52.566  1.00  0.00    -0.307 N 
HETATM   14  H10 UNL     1      21.215   3.634  53.433  1.00  0.00     0.170 HD
BRANCH  13  15
HETATM   15  C8  UNL     1      19.950   3.717  51.441  1.00  0.00     0.129 A 
HETATM   16  C9  UNL     1      18.574   3.691  51.344  1.00  0.00     0.050 A 
HETATM   17  C10 UNL     1      18.058   4.145  50.145  1.00  0.00     0.005 A 
HETATM   18  C11 UNL     1      18.891   4.587  49.135  1.00  0.00     0.019 A 
HETATM   19  C12 UNL     1      20.268   4.596  49.275  1.00  0.00     0.119 A 
HETATM   20  N3  UNL     1      20.787   4.149  50.457  1.00  0.00    -0.243 NA
ENDBRANCH  13  15
ENDBRANCH   4  11
BRANCH   1  21
HETATM   21  C3  UNL     1      26.634   0.781  51.911  1.00  0.00     0.126 C 
BRANCH  21  22
HETATM   22  C2  UNL     1      27.131   2.183  52.157  1.00  0.00     0.015 C 
HETATM   23  C1  UNL     1      28.080   2.219  53.338  1.00  0.00     0.006 C 
ENDBRANCH  21  22
ENDBRANCH   1  21
TORSDOF 4
ENDMDL
