MODEL 1
REMARK VINA RESULT:      -8.3      0.000      0.000
REMARK  3 active torsions:
REMARK  status: ('A' for Active; 'I' for Inactive)
REMARK    1  A    between atoms: P1_1  and  C1_2 
REMARK    2  A    between atoms: C9_11  and  N2_12 
REMARK    3  A    between atoms: N2_12  and  C10_13 
ROOT
HETATM    1  C1  UNL     1      26.515   6.685  48.751  1.00  0.00    -0.036 A 
HETATM    2  C2  UNL     1      25.384   7.147  49.396  1.00  0.00     0.014 A 
HETATM    3  C3  UNL     1      24.640   6.240  50.115  1.00  0.00     0.039 A 
HETATM    4  C4  UNL     1      24.916   4.899  50.256  1.00  0.00     0.086 A 
HETATM    5  C5  UNL     1      26.064   4.462  49.593  1.00  0.00    -0.006 A 
HETATM    6  C6  UNL     1      26.828   5.347  48.866  1.00  0.00     0.023 A 
HETATM    7  C7  UNL     1      26.642   3.105  49.534  1.00  0.00     0.161 C 
HETATM    8  N1  UNL     1      26.505   2.379  50.784  1.00  0.00    -0.379 N 
HETATM    9  C8  UNL     1      25.309   2.130  51.517  1.00  0.00     0.128 A 
HETATM   10  C9  UNL     1      25.386   0.907  52.151  1.00  0.00     0.157 A 
HETATM   11  N4  UNL     1      24.311   0.578  52.885  1.00  0.00    -0.222 NA
HETATM   12  C15 UNL     1      23.234   1.371  53.002  1.00  0.00     0.238 A 
HETATM   13  N5  UNL     1      23.140   2.579  52.384  1.00  0.00    -0.215 NA
HETATM   14  C16 UNL     1      24.196   2.958  51.633  1.00  0.00     0.202 A 
HETATM   15  O1  UNL     1      23.984   4.220  51.045  1.00  0.00    -0.289 OA
HETATM   16  H8  UNL     1      27.322   1.952  51.291  1.00  0.00     0.160 HD
ENDROOT
BRANCH  10  17
HETATM   17  N2  UNL     1      26.479   0.006  52.060  1.00  0.00    -0.350 N 
HETATM   18  H9  UNL     1      26.912  -0.450  51.233  1.00  0.00     0.163 HD
BRANCH  17  19
HETATM   19  C10 UNL     1      27.159  -0.406  53.290  1.00  0.00     0.210 A 
HETATM   20  C11 UNL     1      28.159   0.666  53.631  1.00  0.00     0.076 A 
HETATM   21  C12 UNL     1      29.546   0.181  53.764  1.00  0.00    -0.021 A 
HETATM   22  C13 UNL     1      30.069  -1.029  53.626  1.00  0.00     0.015 A 
HETATM   23  C14 UNL     1      29.020  -1.980  53.285  1.00  0.00     0.112 A 
HETATM   24  N3  UNL     1      27.796  -1.699  53.147  1.00  0.00    -0.276 NA
ENDBRANCH  17  19
ENDBRANCH  10  17
BRANCH   1  25
HETATM   25  P1  UNL     1      27.595   7.766  47.764  1.00  0.00    -0.106 P 
HETATM   26  H1  UNL     1      26.872   8.892  47.202  1.00  0.00     0.059 HD
HETATM   27  H2  UNL     1      28.381   7.060  46.794  1.00  0.00     0.059 HD
ENDBRANCH   1  25
TORSDOF 3
ENDMDL
MODEL 2
REMARK VINA RESULT:      -7.9      4.232      6.459
REMARK  3 active torsions:
REMARK  status: ('A' for Active; 'I' for Inactive)
REMARK    1  A    between atoms: P1_1  and  C1_2 
REMARK    2  A    between atoms: C9_11  and  N2_12 
REMARK    3  A    between atoms: N2_12  and  C10_13 
ROOT
HETATM    1  C1  UNL     1      18.501  -1.281  53.092  1.00  0.00    -0.036 A 
HETATM    2  C2  UNL     1      18.114  -0.291  52.210  1.00  0.00     0.014 A 
HETATM    3  C3  UNL     1      18.988   0.749  51.991  1.00  0.00     0.039 A 
HETATM    4  C4  UNL     1      20.225   0.903  52.573  1.00  0.00     0.086 A 
HETATM    5  C5  UNL     1      20.588  -0.113  53.459  1.00  0.00    -0.006 A 
HETATM    6  C6  UNL     1      19.735  -1.167  53.698  1.00  0.00     0.023 A 
HETATM    7  C7  UNL     1      21.828  -0.259  54.246  1.00  0.00     0.161 C 
HETATM    8  N1  UNL     1      23.007   0.196  53.530  1.00  0.00    -0.379 N 
HETATM    9  C8  UNL     1      23.219   1.469  52.928  1.00  0.00     0.128 A 
HETATM   10  C9  UNL     1      24.552   1.818  53.011  1.00  0.00     0.157 A 
HETATM   11  N4  UNL     1      24.865   3.001  52.458  1.00  0.00    -0.222 NA
HETATM   12  C15 UNL     1      23.960   3.795  51.866  1.00  0.00     0.238 A 
HETATM   13  N5  UNL     1      22.643   3.468  51.776  1.00  0.00    -0.215 NA
HETATM   14  C16 UNL     1      22.274   2.287  52.316  1.00  0.00     0.202 A 
HETATM   15  O1  UNL     1      20.893   2.059  52.163  1.00  0.00    -0.289 OA
HETATM   16  H8  UNL     1      23.855  -0.408  53.381  1.00  0.00     0.160 HD
ENDROOT
BRANCH  10  17
HETATM   17  N2  UNL     1      25.563   1.042  53.638  1.00  0.00    -0.350 N 
HETATM   18  H9  UNL     1      25.521   0.426  54.472  1.00  0.00     0.163 HD
BRANCH  17  19
HETATM   19  C10 UNL     1      26.918   1.069  53.083  1.00  0.00     0.210 A 
HETATM   20  C11 UNL     1      27.241  -0.328  52.621  1.00  0.00     0.076 A 
HETATM   21  C12 UNL     1      28.461  -0.897  53.222  1.00  0.00    -0.021 A 
HETATM   22  C13 UNL     1      29.317  -0.403  54.104  1.00  0.00     0.015 A 
HETATM   23  C14 UNL     1      28.903   0.939  54.490  1.00  0.00     0.112 A 
HETATM   24  N3  UNL     1      27.886   1.545  54.048  1.00  0.00    -0.276 NA
ENDBRANCH  17  19
ENDBRANCH  10  17
BRANCH   1  25
HETATM   25  P1  UNL     1      17.453  -2.717  53.481  1.00  0.00    -0.106 P 
HETATM   26  H1  UNL     1      16.086  -2.330  53.773  1.00  0.00     0.059 HD
HETATM   27  H2  UNL     1      18.017  -3.586  54.472  1.00  0.00     0.059 HD
ENDBRANCH   1  25
TORSDOF 3
ENDMDL
MODEL 3
REMARK VINA RESULT:      -7.9      3.129      6.745
REMARK  3 active torsions:
REMARK  status: ('A' for Active; 'I' for Inactive)
REMARK    1  A    between atoms: P1_1  and  C1_2 
REMARK    2  A    between atoms: C9_11  and  N2_12 
REMARK    3  A    between atoms: N2_12  and  C10_13 
ROOT
HETATM    1  C1  UNL     1      28.467  -1.050  53.251  1.00  0.00    -0.036 A 
HETATM    2  C2  UNL     1      27.325  -1.787  53.004  1.00  0.00     0.014 A 
HETATM    3  C3  UNL     1      26.199  -1.107  52.600  1.00  0.00     0.039 A 
HETATM    4  C4  UNL     1      26.097   0.253  52.416  1.00  0.00     0.086 A 
HETATM    5  C5  UNL     1      27.267   0.970  52.672  1.00  0.00    -0.006 A 
HETATM    6  C6  UNL     1      28.409   0.317  53.078  1.00  0.00     0.023 A 
HETATM    7  C7  UNL     1      27.504   2.423  52.576  1.00  0.00     0.161 C 
HETATM    8  N1  UNL     1      26.799   3.037  51.465  1.00  0.00    -0.379 N 
HETATM    9  C8  UNL     1      25.406   2.973  51.178  1.00  0.00     0.128 A 
HETATM   10  C9  UNL     1      24.987   4.150  50.591  1.00  0.00     0.157 A 
HETATM   11  N4  UNL     1      23.684   4.190  50.267  1.00  0.00    -0.222 NA
HETATM   12  C15 UNL     1      22.841   3.170  50.490  1.00  0.00     0.238 A 
HETATM   13  N5  UNL     1      23.237   2.004  51.068  1.00  0.00    -0.215 NA
HETATM   14  C16 UNL     1      24.539   1.910  51.414  1.00  0.00     0.202 A 
HETATM   15  O1  UNL     1      24.828   0.663  52.001  1.00  0.00    -0.289 OA
HETATM   16  H8  UNL     1      27.282   3.613  50.728  1.00  0.00     0.160 HD
ENDROOT
BRANCH  10  17
HETATM   17  N2  UNL     1      25.811   5.278  50.341  1.00  0.00    -0.350 N 
HETATM   18  H9  UNL     1      26.202   5.987  50.992  1.00  0.00     0.163 HD
BRANCH  17  19
HETATM   19  C10 UNL     1      26.215   5.565  48.963  1.00  0.00     0.210 A 
HETATM   20  C11 UNL     1      27.479   4.793  48.695  1.00  0.00     0.076 A 
HETATM   21  C12 UNL     1      28.615   5.624  48.254  1.00  0.00    -0.021 A 
HETATM   22  C13 UNL     1      28.722   6.931  48.062  1.00  0.00     0.015 A 
HETATM   23  C14 UNL     1      27.452   7.577  48.361  1.00  0.00     0.112 A 
HETATM   24  N3  UNL     1      26.403   6.984  48.741  1.00  0.00    -0.276 NA
ENDBRANCH  17  19
ENDBRANCH  10  17
BRANCH   1  25
HETATM   25  P1  UNL     1      30.030  -1.809  53.790  1.00  0.00    -0.106 P 
HETATM   26  H1  UNL     1      29.820  -3.095  54.427  1.00  0.00     0.059 HD
HETATM   27  H2  UNL     1      30.859  -0.928  54.560  1.00  0.00     0.059 HD
ENDBRANCH   1  25
TORSDOF 3
ENDMDL
MODEL 4
REMARK VINA RESULT:      -7.8      2.230      4.992
REMARK  3 active torsions:
REMARK  status: ('A' for Active; 'I' for Inactive)
REMARK    1  A    between atoms: P1_1  and  C1_2 
REMARK    2  A    between atoms: C9_11  and  N2_12 
REMARK    3  A    between atoms: N2_12  and  C10_13 
ROOT
HETATM    1  C1  UNL     1      25.748   6.007  48.842  1.00  0.00    -0.036 A 
HETATM    2  C2  UNL     1      26.921   5.319  48.594  1.00  0.00     0.014 A 
HETATM    3  C3  UNL     1      27.164   4.182  49.330  1.00  0.00     0.039 A 
HETATM    4  C4  UNL     1      26.343   3.656  50.301  1.00  0.00     0.086 A 
HETATM    5  C5  UNL     1      25.167   4.372  50.529  1.00  0.00    -0.006 A 
HETATM    6  C6  UNL     1      24.896   5.514  49.808  1.00  0.00     0.023 A 
HETATM    7  C7  UNL     1      24.080   4.092  51.486  1.00  0.00     0.161 C 
HETATM    8  N1  UNL     1      23.813   2.673  51.636  1.00  0.00    -0.379 N 
HETATM    9  C8  UNL     1      24.740   1.645  51.974  1.00  0.00     0.128 A 
HETATM   10  C9  UNL     1      24.114   0.666  52.717  1.00  0.00     0.157 A 
HETATM   11  N4  UNL     1      24.899  -0.362  53.079  1.00  0.00    -0.222 NA
HETATM   12  C15 UNL     1      26.198  -0.443  52.749  1.00  0.00     0.238 A 
HETATM   13  N5  UNL     1      26.831   0.513  52.019  1.00  0.00    -0.215 NA
HETATM   14  C16 UNL     1      26.086   1.570  51.629  1.00  0.00     0.202 A 
HETATM   15  O1  UNL     1      26.847   2.491  50.883  1.00  0.00    -0.289 OA
HETATM   16  H8  UNL     1      22.859   2.252  51.498  1.00  0.00     0.160 HD
ENDROOT
BRANCH  10  17
HETATM   17  N2  UNL     1      22.753   0.690  53.121  1.00  0.00    -0.350 N 
HETATM   18  H9  UNL     1      22.254   1.323  53.775  1.00  0.00     0.163 HD
BRANCH  17  19
HETATM   19  C10 UNL     1      21.838  -0.318  52.580  1.00  0.00     0.210 A 
HETATM   20  C11 UNL     1      21.229   0.256  51.328  1.00  0.00     0.076 A 
HETATM   21  C12 UNL     1      19.754   0.295  51.336  1.00  0.00    -0.021 A 
HETATM   22  C13 UNL     1      18.872  -0.075  52.253  1.00  0.00     0.015 A 
HETATM   23  C14 UNL     1      19.568  -0.600  53.419  1.00  0.00     0.112 A 
HETATM   24  N3  UNL     1      20.822  -0.695  53.540  1.00  0.00    -0.276 NA
ENDBRANCH  17  19
ENDBRANCH  10  17
BRANCH   1  25
HETATM   25  P1  UNL     1      25.291   7.525  47.949  1.00  0.00    -0.106 P 
HETATM   26  H1  UNL     1      26.453   8.220  47.426  1.00  0.00     0.059 HD
HETATM   27  H2  UNL     1      24.408   8.380  48.688  1.00  0.00     0.059 HD
ENDBRANCH   1  25
TORSDOF 3
ENDMDL
MODEL 5
REMARK VINA RESULT:      -7.8      4.452      7.006
REMARK  3 active torsions:
REMARK  status: ('A' for Active; 'I' for Inactive)
REMARK    1  A    between atoms: P1_1  and  C1_2 
REMARK    2  A    between atoms: C9_11  and  N2_12 
REMARK    3  A    between atoms: N2_12  and  C10_13 
ROOT
HETATM    1  C1  UNL     1      21.993   0.537  53.160  1.00  0.00    -0.036 A 
HETATM    2  C2  UNL     1      20.741   1.061  52.899  1.00  0.00     0.014 A 
HETATM    3  C3  UNL     1      20.665   2.381  52.519  1.00  0.00     0.039 A 
HETATM    4  C4  UNL     1      21.728   3.243  52.370  1.00  0.00     0.086 A 
HETATM    5  C5  UNL     1      22.980   2.685  52.640  1.00  0.00    -0.006 A 
HETATM    6  C6  UNL     1      23.086   1.367  53.023  1.00  0.00     0.023 A 
HETATM    7  C7  UNL     1      24.310   3.320  52.581  1.00  0.00     0.161 C 
HETATM    8  N1  UNL     1      24.434   4.269  51.489  1.00  0.00    -0.379 N 
HETATM    9  C8  UNL     1      23.593   5.383  51.207  1.00  0.00     0.128 A 
HETATM   10  C9  UNL     1      24.332   6.408  50.653  1.00  0.00     0.157 A 
HETATM   11  N4  UNL     1      23.629   7.508  50.336  1.00  0.00    -0.222 NA
HETATM   12  C15 UNL     1      22.306   7.615  50.536  1.00  0.00     0.238 A 
HETATM   13  N5  UNL     1      21.563   6.616  51.082  1.00  0.00    -0.215 NA
HETATM   14  C16 UNL     1      22.221   5.486  51.419  1.00  0.00     0.202 A 
HETATM   15  O1  UNL     1      21.351   4.527  51.972  1.00  0.00    -0.289 OA
HETATM   16  H8  UNL     1      25.197   4.214  50.766  1.00  0.00     0.160 HD
ENDROOT
BRANCH  10  17
HETATM   17  N2  UNL     1      25.733   6.378  50.429  1.00  0.00    -0.350 N 
HETATM   18  H9  UNL     1      26.525   6.394  51.100  1.00  0.00     0.163 HD
BRANCH  17  19
HETATM   19  C10 UNL     1      26.226   6.325  49.051  1.00  0.00     0.210 A 
HETATM   20  C11 UNL     1      26.930   5.005  48.877  1.00  0.00     0.076 A 
HETATM   21  C12 UNL     1      28.330   5.119  48.426  1.00  0.00    -0.021 A 
HETATM   22  C13 UNL     1      29.081   6.177  48.158  1.00  0.00     0.015 A 
HETATM   23  C14 UNL     1      28.308   7.394  48.371  1.00  0.00     0.112 A 
HETATM   24  N3  UNL     1      27.103   7.437  48.749  1.00  0.00    -0.276 NA
ENDBRANCH  17  19
ENDBRANCH  10  17
BRANCH   1  25
HETATM   25  P1  UNL     1      22.250  -1.189  53.672  1.00  0.00    -0.106 P 
HETATM   26  H1  UNL     1      22.368  -1.318  55.112  1.00  0.00     0.059 HD
HETATM   27  H2  UNL     1      23.305  -1.848  52.958  1.00  0.00     0.059 HD
ENDBRANCH   1  25
TORSDOF 3
ENDMDL
MODEL 6
REMARK VINA RESULT:      -7.7      3.796      7.214
REMARK  3 active torsions:
REMARK  status: ('A' for Active; 'I' for Inactive)
REMARK    1  A    between atoms: P1_1  and  C1_2 
REMARK    2  A    between atoms: C9_11  and  N2_12 
REMARK    3  A    between atoms: N2_12  and  C10_13 
ROOT
HETATM    1  C1  UNL     1      19.807  -0.901  53.307  1.00  0.00    -0.036 A 
HETATM    2  C2  UNL     1      20.451  -1.736  54.200  1.00  0.00     0.014 A 
HETATM    3  C3  UNL     1      21.821  -1.647  54.287  1.00  0.00     0.039 A 
HETATM    4  C4  UNL     1      22.624  -0.796  53.561  1.00  0.00     0.086 A 
HETATM    5  C5  UNL     1      21.946   0.035  52.668  1.00  0.00    -0.006 A 
HETATM    6  C6  UNL     1      20.575  -0.032  52.560  1.00  0.00     0.023 A 
HETATM    7  C7  UNL     1      22.492   1.051  51.748  1.00  0.00     0.161 C 
HETATM    8  N1  UNL     1      23.620   1.771  52.310  1.00  0.00    -0.379 N 
HETATM    9  C8  UNL     1      24.820   1.224  52.848  1.00  0.00     0.128 A 
HETATM   10  C9  UNL     1      25.881   2.070  52.601  1.00  0.00     0.157 A 
HETATM   11  N4  UNL     1      27.064   1.653  53.081  1.00  0.00    -0.222 NA
HETATM   12  C15 UNL     1      27.217   0.500  53.751  1.00  0.00     0.238 A 
HETATM   13  N5  UNL     1      26.184  -0.347  54.002  1.00  0.00    -0.215 NA
HETATM   14  C16 UNL     1      24.970   0.026  53.541  1.00  0.00     0.202 A 
HETATM   15  O1  UNL     1      23.983  -0.926  53.860  1.00  0.00    -0.289 OA
HETATM   16  H8  UNL     1      23.653   2.821  52.377  1.00  0.00     0.160 HD
ENDROOT
BRANCH  10  17
HETATM   17  N2  UNL     1      25.803   3.293  51.884  1.00  0.00    -0.350 N 
HETATM   18  H9  UNL     1      25.851   4.276  52.217  1.00  0.00     0.163 HD
BRANCH  17  19
HETATM   19  C10 UNL     1      25.614   3.249  50.433  1.00  0.00     0.210 A 
HETATM   20  C11 UNL     1      26.736   4.035  49.809  1.00  0.00     0.076 A 
HETATM   21  C12 UNL     1      26.291   5.136  48.934  1.00  0.00    -0.021 A 
HETATM   22  C13 UNL     1      25.080   5.562  48.608  1.00  0.00     0.015 A 
HETATM   23  C14 UNL     1      24.076   4.743  49.274  1.00  0.00     0.112 A 
HETATM   24  N3  UNL     1      24.320   3.770  50.042  1.00  0.00    -0.276 NA
ENDBRANCH  17  19
ENDBRANCH  10  17
BRANCH   1  25
HETATM   25  P1  UNL     1      18.002  -0.905  53.083  1.00  0.00    -0.106 P 
HETATM   26  H1  UNL     1      17.438  -2.234  53.225  1.00  0.00     0.059 HD
HETATM   27  H2  UNL     1      17.571  -0.235  51.890  1.00  0.00     0.059 HD
ENDBRANCH   1  25
TORSDOF 3
ENDMDL
MODEL 7
REMARK VINA RESULT:      -7.7      3.137      6.729
REMARK  3 active torsions:
REMARK  status: ('A' for Active; 'I' for Inactive)
REMARK    1  A    between atoms: P1_1  and  C1_2 
REMARK    2  A    between atoms: C9_11  and  N2_12 
REMARK    3  A    between atoms: N2_12  and  C10_13 
ROOT
HETATM    1  C1  UNL     1      27.977  -0.683  53.355  1.00  0.00    -0.036 A 
HETATM    2  C2  UNL     1      26.979  -1.589  53.050  1.00  0.00     0.014 A 
HETATM    3  C3  UNL     1      25.695  -1.111  52.933  1.00  0.00     0.039 A 
HETATM    4  C4  UNL     1      25.300   0.198  53.092  1.00  0.00     0.086 A 
HETATM    5  C5  UNL     1      26.330   1.090  53.398  1.00  0.00    -0.006 A 
HETATM    6  C6  UNL     1      27.626   0.640  53.522  1.00  0.00     0.023 A 
HETATM    7  C7  UNL     1      26.259   2.545  53.632  1.00  0.00     0.161 C 
HETATM    8  N1  UNL     1      25.292   3.207  52.774  1.00  0.00    -0.379 N 
HETATM    9  C8  UNL     1      23.912   2.893  52.617  1.00  0.00     0.128 A 
HETATM   10  C9  UNL     1      23.188   4.042  52.374  1.00  0.00     0.157 A 
HETATM   11  N4  UNL     1      21.870   3.856  52.197  1.00  0.00    -0.222 NA
HETATM   12  C15 UNL     1      21.287   2.647  52.249  1.00  0.00     0.238 A 
HETATM   13  N5  UNL     1      21.985   1.505  52.489  1.00  0.00    -0.215 NA
HETATM   14  C16 UNL     1      23.316   1.636  52.674  1.00  0.00     0.202 A 
HETATM   15  O1  UNL     1      23.929   0.391  52.913  1.00  0.00    -0.289 OA
HETATM   16  H8  UNL     1      25.539   4.021  52.155  1.00  0.00     0.160 HD
ENDROOT
BRANCH  10  17
HETATM   17  N2  UNL     1      23.728   5.354  52.324  1.00  0.00    -0.350 N 
HETATM   18  H9  UNL     1      24.132   5.947  53.074  1.00  0.00     0.163 HD
BRANCH  17  19
HETATM   19  C10 UNL     1      23.746   6.060  51.041  1.00  0.00     0.210 A 
HETATM   20  C11 UNL     1      24.081   5.049  49.976  1.00  0.00     0.076 A 
HETATM   21  C12 UNL     1      25.264   5.394  49.165  1.00  0.00    -0.021 A 
HETATM   22  C13 UNL     1      26.090   6.429  49.214  1.00  0.00     0.015 A 
HETATM   23  C14 UNL     1      25.682   7.331  50.282  1.00  0.00     0.112 A 
HETATM   24  N3  UNL     1      24.689   7.159  51.044  1.00  0.00    -0.276 NA
ENDBRANCH  17  19
ENDBRANCH  10  17
BRANCH   1  25
HETATM   25  P1  UNL     1      29.721  -1.166  53.541  1.00  0.00    -0.106 P 
HETATM   26  H1  UNL     1      30.273  -1.700  52.310  1.00  0.00     0.059 HD
HETATM   27  H2  UNL     1      29.964  -2.006  54.678  1.00  0.00     0.059 HD
ENDBRANCH   1  25
TORSDOF 3
ENDMDL
MODEL 8
REMARK VINA RESULT:      -7.5      4.278      5.335
REMARK  3 active torsions:
REMARK  status: ('A' for Active; 'I' for Inactive)
REMARK    1  A    between atoms: P1_1  and  C1_2 
REMARK    2  A    between atoms: C9_11  and  N2_12 
REMARK    3  A    between atoms: N2_12  and  C10_13 
ROOT
HETATM    1  C1  UNL     1      18.994   2.235  49.478  1.00  0.00    -0.036 A 
HETATM    2  C2  UNL     1      18.126   1.732  50.429  1.00  0.00     0.014 A 
HETATM    3  C3  UNL     1      18.657   0.958  51.434  1.00  0.00     0.039 A 
HETATM    4  C4  UNL     1      19.984   0.629  51.588  1.00  0.00     0.086 A 
HETATM    5  C5  UNL     1      20.836   1.152  50.613  1.00  0.00    -0.006 A 
HETATM    6  C6  UNL     1      20.334   1.931  49.595  1.00  0.00     0.023 A 
HETATM    7  C7  UNL     1      22.298   0.998  50.479  1.00  0.00     0.161 C 
HETATM    8  N1  UNL     1      22.983   0.988  51.758  1.00  0.00    -0.379 N 
HETATM    9  C8  UNL     1      22.726   0.141  52.875  1.00  0.00     0.128 A 
HETATM   10  C9  UNL     1      23.901  -0.128  53.548  1.00  0.00     0.157 A 
HETATM   11  N4  UNL     1      23.768  -0.911  54.630  1.00  0.00    -0.222 NA
HETATM   12  C15 UNL     1      22.588  -1.402  55.039  1.00  0.00     0.238 A 
HETATM   13  N5  UNL     1      21.421  -1.148  54.388  1.00  0.00    -0.215 NA
HETATM   14  C16 UNL     1      21.498  -0.364  53.291  1.00  0.00     0.202 A 
HETATM   15  O1  UNL     1      20.233  -0.173  52.704  1.00  0.00    -0.289 OA
HETATM   16  H8  UNL     1      23.774   1.643  51.990  1.00  0.00     0.160 HD
ENDROOT
BRANCH  10  17
HETATM   17  N2  UNL     1      25.187   0.337  53.167  1.00  0.00    -0.350 N 
HETATM   18  H9  UNL     1      25.645   0.368  52.235  1.00  0.00     0.163 HD
BRANCH  17  19
HETATM   19  C10 UNL     1      26.080   0.865  54.199  1.00  0.00     0.210 A 
HETATM   20  C11 UNL     1      26.692   2.130  53.659  1.00  0.00     0.076 A 
HETATM   21  C12 UNL     1      28.167   2.132  53.645  1.00  0.00    -0.021 A 
HETATM   22  C13 UNL     1      29.049   1.214  54.014  1.00  0.00     0.015 A 
HETATM   23  C14 UNL     1      28.351   0.034  54.506  1.00  0.00     0.112 A 
HETATM   24  N3  UNL     1      27.096  -0.096  54.577  1.00  0.00    -0.276 NA
ENDBRANCH  17  19
ENDBRANCH  10  17
BRANCH   1  25
HETATM   25  P1  UNL     1      18.439   3.274  48.091  1.00  0.00    -0.106 P 
HETATM   26  H1  UNL     1      17.146   3.880  48.348  1.00  0.00     0.059 HD
HETATM   27  H2  UNL     1      18.511   2.617  46.819  1.00  0.00     0.059 HD
ENDBRANCH   1  25
TORSDOF 3
ENDMDL
MODEL 9
REMARK VINA RESULT:      -7.4      1.784      2.673
REMARK  3 active torsions:
REMARK  status: ('A' for Active; 'I' for Inactive)
REMARK    1  A    between atoms: P1_1  and  C1_2 
REMARK    2  A    between atoms: C9_11  and  N2_12 
REMARK    3  A    between atoms: N2_12  and  C10_13 
ROOT
HETATM    1  C1  UNL     1      27.097   7.086  47.835  1.00  0.00    -0.036 A 
HETATM    2  C2  UNL     1      25.905   7.757  47.635  1.00  0.00     0.014 A 
HETATM    3  C3  UNL     1      24.764   7.212  48.175  1.00  0.00     0.039 A 
HETATM    4  C4  UNL     1      24.691   6.047  48.905  1.00  0.00     0.086 A 
HETATM    5  C5  UNL     1      25.910   5.392  49.091  1.00  0.00    -0.006 A 
HETATM    6  C6  UNL     1      27.069   5.915  48.562  1.00  0.00     0.023 A 
HETATM    7  C7  UNL     1      26.187   4.136  49.814  1.00  0.00     0.161 C 
HETATM    8  N1  UNL     1      25.373   3.980  51.006  1.00  0.00    -0.379 N 
HETATM    9  C8  UNL     1      23.953   4.036  51.101  1.00  0.00     0.128 A 
HETATM   10  C9  UNL     1      23.508   3.177  52.085  1.00  0.00     0.157 A 
HETATM   11  N4  UNL     1      22.178   3.162  52.267  1.00  0.00    -0.222 NA
HETATM   12  C15 UNL     1      21.332   3.920  51.552  1.00  0.00     0.238 A 
HETATM   13  N5  UNL     1      21.752   4.771  50.578  1.00  0.00    -0.215 NA
HETATM   14  C16 UNL     1      23.083   4.825  50.355  1.00  0.00     0.202 A 
HETATM   15  O1  UNL     1      23.397   5.737  49.328  1.00  0.00    -0.289 OA
HETATM   16  H8  UNL     1      25.781   3.805  51.959  1.00  0.00     0.160 HD
ENDROOT
BRANCH  10  17
HETATM   17  N2  UNL     1      24.336   2.330  52.867  1.00  0.00    -0.350 N 
HETATM   18  H9  UNL     1      24.829   2.507  53.763  1.00  0.00     0.163 HD
BRANCH  17  19
HETATM   19  C10 UNL     1      24.597   0.968  52.396  1.00  0.00     0.210 A 
HETATM   20  C11 UNL     1      24.468   0.050  53.582  1.00  0.00     0.076 A 
HETATM   21  C12 UNL     1      25.666  -0.770  53.846  1.00  0.00    -0.021 A 
HETATM   22  C13 UNL     1      26.837  -0.835  53.232  1.00  0.00     0.015 A 
HETATM   23  C14 UNL     1      26.857   0.098  52.114  1.00  0.00     0.112 A 
HETATM   24  N3  UNL     1      25.901   0.852  51.775  1.00  0.00    -0.276 NA
ENDBRANCH  17  19
ENDBRANCH  10  17
BRANCH   1  25
HETATM   25  P1  UNL     1      28.685   7.686  47.182  1.00  0.00    -0.106 P 
HETATM   26  H1  UNL     1      29.506   6.605  46.670  1.00  0.00     0.059 HD
HETATM   27  H2  UNL     1      29.388   8.548  48.088  1.00  0.00     0.059 HD
ENDBRANCH   1  25
TORSDOF 3
ENDMDL
