MODEL 1
REMARK VINA RESULT:      -9.8      0.000      0.000
REMARK  2 active torsions:
REMARK  status: ('A' for Active; 'I' for Inactive)
REMARK    1  A    between atoms: C4_5  and  N1_6 
REMARK    2  A    between atoms: N1_6  and  C5_7 
ROOT
HETATM    1  C5  UNL     1      26.773   6.681  48.700  1.00  0.00     0.142 A 
HETATM    2  N2  UNL     1      26.158   7.714  48.119  1.00  0.00    -0.224 NA
HETATM    3  C6  UNL     1      24.870   7.803  47.790  1.00  0.00     0.236 A 
HETATM    4  N3  UNL     1      24.101   6.732  48.071  1.00  0.00    -0.241 NA
HETATM    5  C7  UNL     1      24.633   5.627  48.663  1.00  0.00     0.075 A 
HETATM    6  C8  UNL     1      23.800   4.578  48.917  1.00  0.00     0.072 A 
HETATM    7  C9  UNL     1      24.248   3.418  49.510  1.00  0.00     0.104 A 
HETATM    8  C10 UNL     1      25.614   3.345  49.852  1.00  0.00     0.103 A 
HETATM    9  C11 UNL     1      26.399   4.435  49.567  1.00  0.00     0.057 A 
HETATM   10  C12 UNL     1      25.969   5.601  48.977  1.00  0.00     0.042 A 
HETATM   11  O1  UNL     1      26.072   2.218  50.432  1.00  0.00    -0.348 OA
HETATM   12  C13 UNL     1      26.660   1.970  51.670  1.00  0.00     0.177 C 
HETATM   13  C14 UNL     1      26.923   0.497  51.780  1.00  0.00     0.046 C 
HETATM   14  C15 UNL     1      27.329  -0.020  53.093  1.00  0.00     0.116 C 
HETATM   15  N4  UNL     1      26.495   0.244  54.184  1.00  0.00    -0.419 N 
HETATM   16  C16 UNL     1      25.197  -0.292  54.261  1.00  0.00     0.140 C 
HETATM   17  C17 UNL     1      24.151   0.438  53.455  1.00  0.00     0.186 C 
HETATM   18  O2  UNL     1      22.887  -0.080  53.472  1.00  0.00    -0.389 OA
HETATM   19  C18 UNL     1      21.914   0.629  52.797  1.00  0.00     0.169 C 
HETATM   20  C19 UNL     1      22.208   1.029  51.394  1.00  0.00     0.053 C 
HETATM   21  C20 UNL     1      23.053   2.229  51.186  1.00  0.00     0.178 C 
HETATM   22  O3  UNL     1      23.394   2.317  49.784  1.00  0.00    -0.348 OA
HETATM   23  H13 UNL     1      26.996   0.305  55.107  1.00  0.00     0.153 HD
ENDROOT
BRANCH   1  24
HETATM   24  N1  UNL     1      28.148   6.620  49.028  1.00  0.00    -0.340 N 
HETATM   25  H3  UNL     1      28.466   6.595  49.999  1.00  0.00     0.167 HD
BRANCH  24  26
HETATM   26  C4  UNL     1      29.296   6.585  48.193  1.00  0.00     0.035 A 
HETATM   27  C3  UNL     1      29.700   7.577  47.321  1.00  0.00     0.032 A 
HETATM   28  C2  UNL     1      30.831   7.472  46.546  1.00  0.00     0.046 A 
HETATM   29  C1  UNL     1      31.636   6.355  46.599  1.00  0.00     0.138 A 
HETATM   30  F1  UNL     1      32.707   6.408  45.775  1.00  0.00    -0.204 F 
HETATM   31  C22 UNL     1      31.261   5.341  47.462  1.00  0.00     0.074 A 
HETATM   32  C21 UNL     1      30.124   5.486  48.219  1.00  0.00     0.056 A 
HETATM   33 CL1  UNL     1      32.330   3.952  47.478  1.00  0.00    -0.081 Cl
ENDBRANCH  24  26
ENDBRANCH   1  24
TORSDOF 2
ENDMDL
MODEL 2
REMARK VINA RESULT:      -9.7      5.688      8.299
REMARK  2 active torsions:
REMARK  status: ('A' for Active; 'I' for Inactive)
REMARK    1  A    between atoms: C4_5  and  N1_6 
REMARK    2  A    between atoms: N1_6  and  C5_7 
ROOT
HETATM    1  C5  UNL     1      23.987  -0.140  53.452  1.00  0.00     0.142 A 
HETATM    2  N2  UNL     1      23.893  -0.988  54.480  1.00  0.00    -0.224 NA
HETATM    3  C6  UNL     1      22.815  -1.235  55.224  1.00  0.00     0.236 A 
HETATM    4  N3  UNL     1      21.696  -0.555  54.907  1.00  0.00    -0.241 NA
HETATM    5  C7  UNL     1      21.687   0.334  53.875  1.00  0.00     0.075 A 
HETATM    6  C8  UNL     1      20.521   0.990  53.610  1.00  0.00     0.072 A 
HETATM    7  C9  UNL     1      20.418   1.909  52.589  1.00  0.00     0.104 A 
HETATM    8  C10 UNL     1      21.570   2.155  51.813  1.00  0.00     0.103 A 
HETATM    9  C11 UNL     1      22.712   1.463  52.133  1.00  0.00     0.057 A 
HETATM   10  C12 UNL     1      22.833   0.541  53.148  1.00  0.00     0.042 A 
HETATM   11  O1  UNL     1      21.489   3.051  50.810  1.00  0.00    -0.348 OA
HETATM   12  C13 UNL     1      21.667   2.939  49.433  1.00  0.00     0.177 C 
HETATM   13  C14 UNL     1      21.401   4.279  48.813  1.00  0.00     0.046 C 
HETATM   14  C15 UNL     1      21.306   4.339  47.349  1.00  0.00     0.116 C 
HETATM   15  N4  UNL     1      20.381   3.501  46.720  1.00  0.00    -0.419 N 
HETATM   16  C16 UNL     1      18.997   3.658  46.917  1.00  0.00     0.140 C 
HETATM   17  C17 UNL     1      18.459   3.070  48.199  1.00  0.00     0.186 C 
HETATM   18  O2  UNL     1      17.126   3.241  48.444  1.00  0.00    -0.389 OA
HETATM   19  C18 UNL     1      16.619   2.639  49.578  1.00  0.00     0.169 C 
HETATM   20  C19 UNL     1      17.337   2.878  50.859  1.00  0.00     0.053 C 
HETATM   21  C20 UNL     1      18.553   2.071  51.124  1.00  0.00     0.178 C 
HETATM   22  O3  UNL     1      19.212   2.600  52.297  1.00  0.00    -0.348 OA
HETATM   23  H13 UNL     1      20.651   3.210  45.746  1.00  0.00     0.153 HD
ENDROOT
BRANCH   1  24
HETATM   24  N1  UNL     1      25.154   0.103  52.690  1.00  0.00    -0.340 N 
HETATM   25  H3  UNL     1      25.106   0.509  51.753  1.00  0.00     0.167 HD
BRANCH  24  26
HETATM   26  C4  UNL     1      26.521  -0.131  52.995  1.00  0.00     0.035 A 
HETATM   27  C3  UNL     1      27.208  -1.314  52.806  1.00  0.00     0.032 A 
HETATM   28  C2  UNL     1      28.538  -1.462  53.121  1.00  0.00     0.046 A 
HETATM   29  C1  UNL     1      29.270  -0.422  53.651  1.00  0.00     0.138 A 
HETATM   30  F1  UNL     1      30.561  -0.730  53.907  1.00  0.00    -0.204 F 
HETATM   31  C22 UNL     1      28.613   0.780  53.855  1.00  0.00     0.074 A 
HETATM   32  C21 UNL     1      27.284   0.885  53.525  1.00  0.00     0.056 A 
HETATM   33 CL1  UNL     1      29.604   2.057  54.530  1.00  0.00    -0.081 Cl
ENDBRANCH  24  26
ENDBRANCH   1  24
TORSDOF 2
ENDMDL
MODEL 3
REMARK VINA RESULT:      -9.3      3.485      5.937
REMARK  2 active torsions:
REMARK  status: ('A' for Active; 'I' for Inactive)
REMARK    1  A    between atoms: C4_5  and  N1_6 
REMARK    2  A    between atoms: N1_6  and  C5_7 
ROOT
HETATM    1  C5  UNL     1      25.932   2.859  50.772  1.00  0.00     0.142 A 
HETATM    2  N2  UNL     1      27.096   2.456  51.289  1.00  0.00    -0.224 NA
HETATM    3  C6  UNL     1      27.277   1.686  52.361  1.00  0.00     0.236 A 
HETATM    4  N3  UNL     1      26.164   1.267  52.997  1.00  0.00    -0.241 NA
HETATM    5  C7  UNL     1      24.928   1.624  52.549  1.00  0.00     0.075 A 
HETATM    6  C8  UNL     1      23.845   1.167  53.240  1.00  0.00     0.072 A 
HETATM    7  C9  UNL     1      22.557   1.478  52.864  1.00  0.00     0.104 A 
HETATM    8  C10 UNL     1      22.387   2.295  51.726  1.00  0.00     0.103 A 
HETATM    9  C11 UNL     1      23.519   2.721  51.076  1.00  0.00     0.057 A 
HETATM   10  C12 UNL     1      24.813   2.420  51.436  1.00  0.00     0.042 A 
HETATM   11  O1  UNL     1      21.135   2.610  51.343  1.00  0.00    -0.348 OA
HETATM   12  C13 UNL     1      20.417   2.360  50.176  1.00  0.00     0.177 C 
HETATM   13  C14 UNL     1      19.037   2.922  50.341  1.00  0.00     0.046 C 
HETATM   14  C15 UNL     1      18.038   2.572  49.323  1.00  0.00     0.116 C 
HETATM   15  N4  UNL     1      17.808   1.216  49.075  1.00  0.00    -0.419 N 
HETATM   16  C16 UNL     1      17.252   0.374  50.055  1.00  0.00     0.140 C 
HETATM   17  C17 UNL     1      18.220  -0.118  51.104  1.00  0.00     0.186 C 
HETATM   18  O2  UNL     1      17.706  -0.903  52.097  1.00  0.00    -0.389 OA
HETATM   19  C18 UNL     1      18.603  -1.415  53.013  1.00  0.00     0.169 C 
HETATM   20  C19 UNL     1      19.550  -0.461  53.650  1.00  0.00     0.053 C 
HETATM   21  C20 UNL     1      20.753  -0.069  52.877  1.00  0.00     0.178 C 
HETATM   22  O3  UNL     1      21.417   1.011  53.571  1.00  0.00    -0.348 OA
HETATM   23  H13 UNL     1      17.500   1.001  48.092  1.00  0.00     0.153 HD
ENDROOT
BRANCH   1  24
HETATM   24  N1  UNL     1      25.780   3.687  49.635  1.00  0.00    -0.340 N 
HETATM   25  H3  UNL     1      25.109   3.464  48.897  1.00  0.00     0.167 HD
BRANCH  24  26
HETATM   26  C4  UNL     1      26.443   4.889  49.271  1.00  0.00     0.035 A 
HETATM   27  C3  UNL     1      27.636   4.986  48.581  1.00  0.00     0.032 A 
HETATM   28  C2  UNL     1      28.215   6.191  48.260  1.00  0.00     0.046 A 
HETATM   29  C1  UNL     1      27.628   7.386  48.615  1.00  0.00     0.138 A 
HETATM   30  F1  UNL     1      28.324   8.479  48.227  1.00  0.00    -0.204 F 
HETATM   31  C22 UNL     1      26.432   7.327  49.309  1.00  0.00     0.074 A 
HETATM   32  C21 UNL     1      25.887   6.102  49.609  1.00  0.00     0.056 A 
HETATM   33 CL1  UNL     1      25.744   8.883  49.727  1.00  0.00    -0.081 Cl
ENDBRANCH  24  26
ENDBRANCH   1  24
TORSDOF 2
ENDMDL
MODEL 4
REMARK VINA RESULT:      -9.3      4.671      7.900
REMARK  2 active torsions:
REMARK  status: ('A' for Active; 'I' for Inactive)
REMARK    1  A    between atoms: C4_5  and  N1_6 
REMARK    2  A    between atoms: N1_6  and  C5_7 
ROOT
HETATM    1  C5  UNL     1      24.574   1.139  53.299  1.00  0.00     0.142 A 
HETATM    2  N2  UNL     1      24.159  -0.107  53.544  1.00  0.00    -0.224 NA
HETATM    3  C6  UNL     1      22.933  -0.597  53.361  1.00  0.00     0.236 A 
HETATM    4  N3  UNL     1      22.009   0.255  52.875  1.00  0.00    -0.241 NA
HETATM    5  C7  UNL     1      22.333   1.548  52.593  1.00  0.00     0.075 A 
HETATM    6  C8  UNL     1      21.349   2.358  52.107  1.00  0.00     0.072 A 
HETATM    7  C9  UNL     1      21.581   3.680  51.795  1.00  0.00     0.104 A 
HETATM    8  C10 UNL     1      22.884   4.179  51.996  1.00  0.00     0.103 A 
HETATM    9  C11 UNL     1      23.828   3.311  52.489  1.00  0.00     0.057 A 
HETATM   10  C12 UNL     1      23.615   1.989  52.804  1.00  0.00     0.042 A 
HETATM   11  O1  UNL     1      23.131   5.470  51.697  1.00  0.00    -0.348 OA
HETATM   12  C13 UNL     1      23.993   6.076  50.788  1.00  0.00     0.177 C 
HETATM   13  C14 UNL     1      23.799   7.561  50.872  1.00  0.00     0.046 C 
HETATM   14  C15 UNL     1      24.441   8.386  49.840  1.00  0.00     0.116 C 
HETATM   15  N4  UNL     1      24.155   8.096  48.503  1.00  0.00    -0.419 N 
HETATM   16  C16 UNL     1      22.862   8.264  47.976  1.00  0.00     0.140 C 
HETATM   17  C17 UNL     1      21.892   7.150  48.286  1.00  0.00     0.186 C 
HETATM   18  O2  UNL     1      20.615   7.300  47.826  1.00  0.00    -0.389 OA
HETATM   19  C18 UNL     1      19.747   6.248  48.044  1.00  0.00     0.169 C 
HETATM   20  C19 UNL     1      19.658   5.710  49.428  1.00  0.00     0.053 C 
HETATM   21  C20 UNL     1      20.715   4.767  49.867  1.00  0.00     0.178 C 
HETATM   22  O3  UNL     1      20.569   4.537  51.287  1.00  0.00    -0.348 OA
HETATM   23  H13 UNL     1      24.931   8.332  47.833  1.00  0.00     0.153 HD
ENDROOT
BRANCH   1  24
HETATM   24  N1  UNL     1      25.885   1.627  53.515  1.00  0.00    -0.340 N 
HETATM   25  H3  UNL     1      26.069   2.623  53.653  1.00  0.00     0.167 HD
BRANCH  24  26
HETATM   26  C4  UNL     1      27.126   0.940  53.583  1.00  0.00     0.035 A 
HETATM   27  C3  UNL     1      28.338   1.483  53.965  1.00  0.00     0.032 A 
HETATM   28  C2  UNL     1      29.500   0.750  54.011  1.00  0.00     0.046 A 
HETATM   29  C1  UNL     1      29.520  -0.586  53.675  1.00  0.00     0.138 A 
HETATM   30  F1  UNL     1      30.740  -1.161  53.771  1.00  0.00    -0.204 F 
HETATM   31  C22 UNL     1      28.323  -1.163  53.287  1.00  0.00     0.074 A 
HETATM   32  C21 UNL     1      27.185  -0.395  53.255  1.00  0.00     0.056 A 
HETATM   33 CL1  UNL     1      28.423  -2.863  52.874  1.00  0.00    -0.081 Cl
ENDBRANCH  24  26
ENDBRANCH   1  24
TORSDOF 2
ENDMDL
MODEL 5
REMARK VINA RESULT:      -9.2      4.611      9.110
REMARK  2 active torsions:
REMARK  status: ('A' for Active; 'I' for Inactive)
REMARK    1  A    between atoms: C4_5  and  N1_6 
REMARK    2  A    between atoms: N1_6  and  C5_7 
ROOT
HETATM    1  C5  UNL     1      26.921   5.559  48.808  1.00  0.00     0.142 A 
HETATM    2  N2  UNL     1      25.768   6.191  48.573  1.00  0.00    -0.224 NA
HETATM    3  C6  UNL     1      25.587   7.286  47.835  1.00  0.00     0.236 A 
HETATM    4  N3  UNL     1      26.686   7.817  47.264  1.00  0.00    -0.241 NA
HETATM    5  C7  UNL     1      27.910   7.247  47.444  1.00  0.00     0.075 A 
HETATM    6  C8  UNL     1      28.981   7.837  46.839  1.00  0.00     0.072 A 
HETATM    7  C9  UNL     1      30.257   7.334  46.966  1.00  0.00     0.104 A 
HETATM    8  C10 UNL     1      30.427   6.174  47.750  1.00  0.00     0.103 A 
HETATM    9  C11 UNL     1      29.308   5.631  48.332  1.00  0.00     0.057 A 
HETATM   10  C12 UNL     1      28.027   6.118  48.216  1.00  0.00     0.042 A 
HETATM   11  O1  UNL     1      31.668   5.667  47.886  1.00  0.00    -0.348 OA
HETATM   12  C13 UNL     1      32.226   4.440  47.537  1.00  0.00     0.177 C 
HETATM   13  C14 UNL     1      33.682   4.463  47.900  1.00  0.00     0.046 C 
HETATM   14  C15 UNL     1      34.517   3.359  47.412  1.00  0.00     0.116 C 
HETATM   15  N4  UNL     1      34.530   3.108  46.037  1.00  0.00    -0.419 N 
HETATM   16  C16 UNL     1      35.055   4.042  45.126  1.00  0.00     0.140 C 
HETATM   17  C17 UNL     1      34.135   5.186  44.775  1.00  0.00     0.186 C 
HETATM   18  O2  UNL     1      34.628   6.135  43.925  1.00  0.00    -0.389 OA
HETATM   19  C18 UNL     1      33.762   7.140  43.544  1.00  0.00     0.169 C 
HETATM   20  C19 UNL     1      33.025   7.853  44.622  1.00  0.00     0.053 C 
HETATM   21  C20 UNL     1      31.819   7.194  45.179  1.00  0.00     0.178 C 
HETATM   22  O3  UNL     1      31.383   7.934  46.343  1.00  0.00    -0.348 OA
HETATM   23  H13 UNL     1      34.708   2.103  45.781  1.00  0.00     0.153 HD
ENDROOT
BRANCH   1  24
HETATM   24  N1  UNL     1      27.076   4.401  49.606  1.00  0.00    -0.340 N 
HETATM   25  H3  UNL     1      28.000   4.054  49.872  1.00  0.00     0.167 HD
BRANCH  24  26
HETATM   26  C4  UNL     1      26.105   3.530  50.168  1.00  0.00     0.035 A 
HETATM   27  C3  UNL     1      24.754   3.521  49.882  1.00  0.00     0.032 A 
HETATM   28  C2  UNL     1      23.875   2.640  50.466  1.00  0.00     0.046 A 
HETATM   29  C1  UNL     1      24.300   1.702  51.381  1.00  0.00     0.138 A 
HETATM   30  F1  UNL     1      23.313   0.913  51.862  1.00  0.00    -0.204 F 
HETATM   31  C22 UNL     1      25.648   1.682  51.693  1.00  0.00     0.074 A 
HETATM   32  C21 UNL     1      26.493   2.580  51.086  1.00  0.00     0.056 A 
HETATM   33 CL1  UNL     1      26.118   0.466  52.863  1.00  0.00    -0.081 Cl
ENDBRANCH  24  26
ENDBRANCH   1  24
TORSDOF 2
ENDMDL
MODEL 6
REMARK VINA RESULT:      -9.1      3.904      8.061
REMARK  2 active torsions:
REMARK  status: ('A' for Active; 'I' for Inactive)
REMARK    1  A    between atoms: C4_5  and  N1_6 
REMARK    2  A    between atoms: N1_6  and  C5_7 
ROOT
HETATM    1  C5  UNL     1      23.262   0.964  52.194  1.00  0.00     0.142 A 
HETATM    2  N2  UNL     1      22.278   0.168  52.618  1.00  0.00    -0.224 NA
HETATM    3  C6  UNL     1      21.018   0.514  52.880  1.00  0.00     0.236 A 
HETATM    4  N3  UNL     1      20.700   1.811  52.698  1.00  0.00    -0.241 NA
HETATM    5  C7  UNL     1      21.633   2.705  52.268  1.00  0.00     0.075 A 
HETATM    6  C8  UNL     1      21.245   4.003  52.107  1.00  0.00     0.072 A 
HETATM    7  C9  UNL     1      22.119   4.977  51.679  1.00  0.00     0.104 A 
HETATM    8  C10 UNL     1      23.448   4.590  51.407  1.00  0.00     0.103 A 
HETATM    9  C11 UNL     1      23.774   3.268  51.590  1.00  0.00     0.057 A 
HETATM   10  C12 UNL     1      22.914   2.281  52.016  1.00  0.00     0.042 A 
HETATM   11  O1  UNL     1      24.318   5.529  50.988  1.00  0.00    -0.348 OA
HETATM   12  C13 UNL     1      25.056   5.670  49.815  1.00  0.00     0.177 C 
HETATM   13  C14 UNL     1      25.828   6.954  49.896  1.00  0.00     0.046 C 
HETATM   14  C15 UNL     1      26.497   7.418  48.674  1.00  0.00     0.116 C 
HETATM   15  N4  UNL     1      25.717   7.579  47.525  1.00  0.00    -0.419 N 
HETATM   16  C16 UNL     1      24.701   8.549  47.457  1.00  0.00     0.140 C 
HETATM   17  C17 UNL     1      23.402   8.166  48.124  1.00  0.00     0.186 C 
HETATM   18  O2  UNL     1      22.406   9.102  48.116  1.00  0.00    -0.389 OA
HETATM   19  C18 UNL     1      21.194   8.726  48.658  1.00  0.00     0.169 C 
HETATM   20  C19 UNL     1      21.211   8.112  50.013  1.00  0.00     0.053 C 
HETATM   21  C20 UNL     1      21.561   6.674  50.110  1.00  0.00     0.178 C 
HETATM   22  O3  UNL     1      21.732   6.333  51.505  1.00  0.00    -0.348 OA
HETATM   23  H13 UNL     1      26.239   7.433  46.623  1.00  0.00     0.153 HD
ENDROOT
BRANCH   1  24
HETATM   24  N1  UNL     1      24.593   0.561  51.935  1.00  0.00    -0.340 N 
HETATM   25  H3  UNL     1      24.899   0.294  50.996  1.00  0.00     0.167 HD
BRANCH  24  26
HETATM   26  C4  UNL     1      25.707   0.434  52.807  1.00  0.00     0.035 A 
HETATM   27  C3  UNL     1      25.965   1.213  53.918  1.00  0.00     0.032 A 
HETATM   28  C2  UNL     1      27.066   1.026  54.720  1.00  0.00     0.046 A 
HETATM   29  C1  UNL     1      27.985   0.034  54.456  1.00  0.00     0.138 A 
HETATM   30  F1  UNL     1      29.010  -0.017  55.337  1.00  0.00    -0.204 F 
HETATM   31  C22 UNL     1      27.759  -0.766  53.349  1.00  0.00     0.074 A 
HETATM   32  C21 UNL     1      26.646  -0.545  52.575  1.00  0.00     0.056 A 
HETATM   33 CL1  UNL     1      28.967  -2.005  53.074  1.00  0.00    -0.081 Cl
ENDBRANCH  24  26
ENDBRANCH   1  24
TORSDOF 2
ENDMDL
MODEL 7
REMARK VINA RESULT:      -9.0      3.083      4.901
REMARK  2 active torsions:
REMARK  status: ('A' for Active; 'I' for Inactive)
REMARK    1  A    between atoms: C4_5  and  N1_6 
REMARK    2  A    between atoms: N1_6  and  C5_7 
ROOT
HETATM    1  C5  UNL     1      31.197   7.360  47.983  1.00  0.00     0.142 A 
HETATM    2  N2  UNL     1      31.748   8.506  47.572  1.00  0.00    -0.224 NA
HETATM    3  C6  UNL     1      31.113   9.590  47.127  1.00  0.00     0.236 A 
HETATM    4  N3  UNL     1      29.767   9.525  47.085  1.00  0.00    -0.241 NA
HETATM    5  C7  UNL     1      29.109   8.400  47.482  1.00  0.00     0.075 A 
HETATM    6  C8  UNL     1      27.747   8.401  47.412  1.00  0.00     0.072 A 
HETATM    7  C9  UNL     1      26.998   7.309  47.789  1.00  0.00     0.104 A 
HETATM    8  C10 UNL     1      27.689   6.172  48.257  1.00  0.00     0.103 A 
HETATM    9  C11 UNL     1      29.060   6.236  48.302  1.00  0.00     0.057 A 
HETATM   10  C12 UNL     1      29.825   7.318  47.931  1.00  0.00     0.042 A 
HETATM   11  O1  UNL     1      26.973   5.094  48.631  1.00  0.00    -0.348 OA
HETATM   12  C13 UNL     1      26.847   4.423  49.844  1.00  0.00     0.177 C 
HETATM   13  C14 UNL     1      25.862   3.305  49.666  1.00  0.00     0.046 C 
HETATM   14  C15 UNL     1      25.404   2.609  50.874  1.00  0.00     0.116 C 
HETATM   15  N4  UNL     1      24.840   3.379  51.896  1.00  0.00    -0.419 N 
HETATM   16  C16 UNL     1      23.628   4.069  51.712  1.00  0.00     0.140 C 
HETATM   17  C17 UNL     1      23.740   5.378  50.968  1.00  0.00     0.186 C 
HETATM   18  O2  UNL     1      22.577   6.054  50.734  1.00  0.00    -0.389 OA
HETATM   19  C18 UNL     1      22.686   7.286  50.121  1.00  0.00     0.169 C 
HETATM   20  C19 UNL     1      23.500   7.363  48.878  1.00  0.00     0.053 C 
HETATM   21  C20 UNL     1      24.974   7.444  49.027  1.00  0.00     0.178 C 
HETATM   22  O3  UNL     1      25.579   7.293  47.723  1.00  0.00    -0.348 OA
HETATM   23  H13 UNL     1      24.971   2.981  52.861  1.00  0.00     0.153 HD
ENDROOT
BRANCH   1  24
HETATM   24  N1  UNL     1      31.906   6.225  48.442  1.00  0.00    -0.340 N 
HETATM   25  H3  UNL     1      31.892   5.946  49.425  1.00  0.00     0.167 HD
BRANCH  24  26
HETATM   26  C4  UNL     1      32.722   5.299  47.738  1.00  0.00     0.035 A 
HETATM   27  C3  UNL     1      33.917   5.582  47.105  1.00  0.00     0.032 A 
HETATM   28  C2  UNL     1      34.655   4.627  46.447  1.00  0.00     0.046 A 
HETATM   29  C1  UNL     1      34.237   3.316  46.382  1.00  0.00     0.138 A 
HETATM   30  F1  UNL     1      35.074   2.503  45.698  1.00  0.00    -0.204 F 
HETATM   31  C22 UNL     1      33.044   2.996  47.006  1.00  0.00     0.074 A 
HETATM   32  C21 UNL     1      32.337   3.981  47.653  1.00  0.00     0.056 A 
HETATM   33 CL1  UNL     1      32.575   1.312  46.884  1.00  0.00    -0.081 Cl
ENDBRANCH  24  26
ENDBRANCH   1  24
TORSDOF 2
ENDMDL
MODEL 8
REMARK VINA RESULT:      -8.8      5.008      9.855
REMARK  2 active torsions:
REMARK  status: ('A' for Active; 'I' for Inactive)
REMARK    1  A    between atoms: C4_5  and  N1_6 
REMARK    2  A    between atoms: N1_6  and  C5_7 
ROOT
HETATM    1  C5  UNL     1      23.355   0.749  53.229  1.00  0.00     0.142 A 
HETATM    2  N2  UNL     1      24.037  -0.205  53.870  1.00  0.00    -0.224 NA
HETATM    3  C6  UNL     1      25.299  -0.574  53.655  1.00  0.00     0.236 A 
HETATM    4  N3  UNL     1      25.963   0.085  52.685  1.00  0.00    -0.241 NA
HETATM    5  C7  UNL     1      25.356   1.076  51.973  1.00  0.00     0.075 A 
HETATM    6  C8  UNL     1      26.085   1.700  51.004  1.00  0.00     0.072 A 
HETATM    7  C9  UNL     1      25.556   2.710  50.231  1.00  0.00     0.104 A 
HETATM    8  C10 UNL     1      24.218   3.086  50.475  1.00  0.00     0.103 A 
HETATM    9  C11 UNL     1      23.540   2.417  51.464  1.00  0.00     0.057 A 
HETATM   10  C12 UNL     1      24.052   1.407  52.245  1.00  0.00     0.042 A 
HETATM   11  O1  UNL     1      23.682   4.072  49.729  1.00  0.00    -0.348 OA
HETATM   12  C13 UNL     1      23.163   5.322  50.056  1.00  0.00     0.177 C 
HETATM   13  C14 UNL     1      22.747   6.006  48.787  1.00  0.00     0.046 C 
HETATM   14  C15 UNL     1      22.383   7.426  48.874  1.00  0.00     0.116 C 
HETATM   15  N4  UNL     1      23.318   8.306  49.426  1.00  0.00    -0.419 N 
HETATM   16  C16 UNL     1      24.551   8.557  48.797  1.00  0.00     0.140 C 
HETATM   17  C17 UNL     1      25.610   7.503  49.016  1.00  0.00     0.186 C 
HETATM   18  O2  UNL     1      26.806   7.692  48.385  1.00  0.00    -0.389 OA
HETATM   19  C18 UNL     1      27.800   6.770  48.646  1.00  0.00     0.169 C 
HETATM   20  C19 UNL     1      27.450   5.330  48.508  1.00  0.00     0.053 C 
HETATM   21  C20 UNL     1      26.730   4.689  49.635  1.00  0.00     0.178 C 
HETATM   22  O3  UNL     1      26.300   3.373  49.220  1.00  0.00    -0.348 OA
HETATM   23  H13 UNL     1      22.896   9.144  49.903  1.00  0.00     0.153 HD
ENDROOT
BRANCH   1  24
HETATM   24  N1  UNL     1      22.009   1.108  53.480  1.00  0.00    -0.340 N 
HETATM   25  H3  UNL     1      21.765   1.828  54.163  1.00  0.00     0.167 HD
BRANCH  24  26
HETATM   26  C4  UNL     1      20.802   0.615  52.916  1.00  0.00     0.035 A 
HETATM   27  C3  UNL     1      20.177   1.093  51.781  1.00  0.00     0.032 A 
HETATM   28  C2  UNL     1      19.009   0.558  51.293  1.00  0.00     0.046 A 
HETATM   29  C1  UNL     1      18.388  -0.501  51.919  1.00  0.00     0.138 A 
HETATM   30  F1  UNL     1      17.249  -0.908  51.315  1.00  0.00    -0.204 F 
HETATM   31  C22 UNL     1      18.986  -1.005  53.060  1.00  0.00     0.074 A 
HETATM   32  C21 UNL     1      20.154  -0.442  53.514  1.00  0.00     0.056 A 
HETATM   33 CL1  UNL     1      18.143  -2.350  53.803  1.00  0.00    -0.081 Cl
ENDBRANCH  24  26
ENDBRANCH   1  24
TORSDOF 2
ENDMDL
MODEL 9
REMARK VINA RESULT:      -8.8      5.401      7.935
REMARK  2 active torsions:
REMARK  status: ('A' for Active; 'I' for Inactive)
REMARK    1  A    between atoms: C4_5  and  N1_6 
REMARK    2  A    between atoms: N1_6  and  C5_7 
ROOT
HETATM    1  C5  UNL     1      23.205   3.097  52.461  1.00  0.00     0.142 A 
HETATM    2  N2  UNL     1      23.930   4.218  52.461  1.00  0.00    -0.224 NA
HETATM    3  C6  UNL     1      23.559   5.417  52.013  1.00  0.00     0.236 A 
HETATM    4  N3  UNL     1      22.316   5.511  51.502  1.00  0.00    -0.241 NA
HETATM    5  C7  UNL     1      21.496   4.424  51.455  1.00  0.00     0.075 A 
HETATM    6  C8  UNL     1      20.251   4.588  50.923  1.00  0.00     0.072 A 
HETATM    7  C9  UNL     1      19.355   3.546  50.832  1.00  0.00     0.104 A 
HETATM    8  C10 UNL     1      19.767   2.286  51.312  1.00  0.00     0.103 A 
HETATM    9  C11 UNL     1      21.033   2.188  51.835  1.00  0.00     0.057 A 
HETATM   10  C12 UNL     1      21.941   3.217  51.935  1.00  0.00     0.042 A 
HETATM   11  O1  UNL     1      18.904   1.254  51.232  1.00  0.00    -0.348 OA
HETATM   12  C13 UNL     1      18.315   0.443  52.198  1.00  0.00     0.177 C 
HETATM   13  C14 UNL     1      17.396  -0.521  51.509  1.00  0.00     0.046 C 
HETATM   14  C15 UNL     1      16.498  -1.320  52.352  1.00  0.00     0.116 C 
HETATM   15  N4  UNL     1      15.652  -0.638  53.232  1.00  0.00    -0.419 N 
HETATM   16  C16 UNL     1      14.627   0.203  52.761  1.00  0.00     0.140 C 
HETATM   17  C17 UNL     1      15.072   1.580  52.331  1.00  0.00     0.186 C 
HETATM   18  O2  UNL     1      14.110   2.409  51.828  1.00  0.00    -0.389 OA
HETATM   19  C18 UNL     1      14.501   3.693  51.505  1.00  0.00     0.169 C 
HETATM   20  C19 UNL     1      15.708   3.846  50.648  1.00  0.00     0.053 C 
HETATM   21  C20 UNL     1      17.034   3.739  51.305  1.00  0.00     0.178 C 
HETATM   22  O3  UNL     1      18.054   3.699  50.282  1.00  0.00    -0.348 OA
HETATM   23  H13 UNL     1      15.407  -1.175  54.103  1.00  0.00     0.153 HD
ENDROOT
BRANCH   1  24
HETATM   24  N1  UNL     1      23.637   1.837  52.939  1.00  0.00    -0.340 N 
HETATM   25  H3  UNL     1      22.984   1.170  53.354  1.00  0.00     0.167 HD
BRANCH  24  26
HETATM   26  C4  UNL     1      24.931   1.253  52.963  1.00  0.00     0.035 A 
HETATM   27  C3  UNL     1      25.235  -0.068  52.698  1.00  0.00     0.032 A 
HETATM   28  C2  UNL     1      26.518  -0.559  52.737  1.00  0.00     0.046 A 
HETATM   29  C1  UNL     1      27.588   0.251  53.045  1.00  0.00     0.138 A 
HETATM   30  F1  UNL     1      28.782  -0.384  53.042  1.00  0.00    -0.204 F 
HETATM   31  C22 UNL     1      27.321   1.582  53.317  1.00  0.00     0.074 A 
HETATM   32  C21 UNL     1      26.024   2.032  53.267  1.00  0.00     0.056 A 
HETATM   33 CL1  UNL     1      28.728   2.554  53.701  1.00  0.00    -0.081 Cl
ENDBRANCH  24  26
ENDBRANCH   1  24
TORSDOF 2
ENDMDL
