MODEL 1
REMARK VINA RESULT:      -8.7      0.000      0.000
REMARK  2 active torsions:
REMARK  status: ('A' for Active; 'I' for Inactive)
REMARK    1  A    between atoms: C6_8  and  C7_9 
REMARK    2  A    between atoms: C9_11  and  C10_12 
ROOT
HETATM    1  C1  UNL     1      25.828   8.101  47.577  1.00  0.00     0.046 C 
HETATM    2  C2  UNL     1      24.868   7.101  48.200  1.00  0.00    -0.058 C 
HETATM    3  C3  UNL     1      25.336   6.081  48.942  1.00  0.00     0.037 C 
HETATM    4  C4  UNL     1      25.288   4.861  49.781  1.00  0.00     0.069 A 
HETATM    5  N1  UNL     1      26.263   4.013  49.418  1.00  0.00    -0.241 NA
HETATM    6  C5  UNL     1      26.591   2.839  49.880  1.00  0.00     0.234 A 
HETATM    7  N2  UNL     1      25.794   2.501  50.853  1.00  0.00    -0.245 NA
HETATM    8  C6  UNL     1      24.793   3.234  51.314  1.00  0.00     0.052 A 
HETATM    9  C17 UNL     1      24.471   4.461  50.810  1.00  0.00     0.026 A 
HETATM   10  C18 UNL     1      23.240   5.075  51.481  1.00  0.00     0.187 C 
HETATM   11  C19 UNL     1      22.514   5.735  50.358  1.00  0.00     0.309 C 
HETATM   12  N3  UNL     1      21.167   5.352  50.068  1.00  0.00     0.095 N 
HETATM   13  C20 UNL     1      20.912   5.299  48.671  1.00  0.00     0.298 C 
HETATM   14  C21 UNL     1      22.108   5.816  47.862  1.00  0.00     0.198 C 
HETATM   15  O1  UNL     1      22.440   7.067  48.210  1.00  0.00    -0.385 OA
HETATM   16  C22 UNL     1      23.551   7.658  47.784  1.00  0.00     0.201 C 
HETATM   17  C23 UNL     1      20.682   4.261  50.818  1.00  0.00     0.298 C 
HETATM   18  C24 UNL     1      21.228   4.322  52.248  1.00  0.00     0.199 C 
HETATM   19  O2  UNL     1      22.567   4.177  52.212  1.00  0.00    -0.378 OA
ENDROOT
BRANCH   8  20
HETATM   20  C7  UNL     1      24.050   2.576  52.435  1.00  0.00     0.048 A 
HETATM   21  C8  UNL     1      24.609   1.499  53.246  1.00  0.00     0.021 A 
HETATM   22  C9  UNL     1      23.631   1.136  52.210  1.00  0.00     0.030 A 
BRANCH  22  23
HETATM   23  C10 UNL     1      22.253   0.704  52.503  1.00  0.00    -0.047 A 
HETATM   24  C11 UNL     1      21.738   0.342  53.736  1.00  0.00     0.008 A 
HETATM   25  C12 UNL     1      20.389  -0.033  53.780  1.00  0.00     0.001 A 
HETATM   26  C13 UNL     1      19.568  -0.060  52.687  1.00  0.00     0.001 A 
HETATM   27  C14 UNL     1      20.090   0.303  51.458  1.00  0.00     0.007 A 
HETATM   28  C15 UNL     1      21.413   0.671  51.416  1.00  0.00    -0.055 A 
HETATM   29  C16 UNL     1      21.855   1.038  50.024  1.00  0.00     0.049 C 
ENDBRANCH  22  23
ENDBRANCH   8  20
TORSDOF 2
ENDMDL
MODEL 2
REMARK VINA RESULT:      -8.7      1.701      6.412
REMARK  2 active torsions:
REMARK  status: ('A' for Active; 'I' for Inactive)
REMARK    1  A    between atoms: C6_8  and  C7_9 
REMARK    2  A    between atoms: C9_11  and  C10_12 
ROOT
HETATM    1  C1  UNL     1      21.712  -1.667  54.205  1.00  0.00     0.046 C 
HETATM    2  C2  UNL     1      21.788  -0.367  53.421  1.00  0.00    -0.058 C 
HETATM    3  C3  UNL     1      22.980   0.134  53.049  1.00  0.00     0.037 C 
HETATM    4  C4  UNL     1      23.937   1.079  52.428  1.00  0.00     0.069 A 
HETATM    5  N1  UNL     1      24.993   1.263  53.234  1.00  0.00    -0.241 NA
HETATM    6  C5  UNL     1      26.061   1.996  53.091  1.00  0.00     0.234 A 
HETATM    7  N2  UNL     1      26.024   2.626  51.951  1.00  0.00    -0.245 NA
HETATM    8  C6  UNL     1      25.048   2.542  51.061  1.00  0.00     0.052 A 
HETATM    9  C17 UNL     1      23.939   1.765  51.238  1.00  0.00     0.026 A 
HETATM   10  C18 UNL     1      22.938   1.887  50.086  1.00  0.00     0.187 C 
HETATM   11  C19 UNL     1      21.610   1.865  50.765  1.00  0.00     0.309 C 
HETATM   12  N3  UNL     1      20.713   2.965  50.595  1.00  0.00     0.095 N 
HETATM   13  C20 UNL     1      20.028   3.291  51.797  1.00  0.00     0.298 C 
HETATM   14  C21 UNL     1      20.324   2.273  52.906  1.00  0.00     0.198 C 
HETATM   15  O1  UNL     1      20.008   1.025  52.532  1.00  0.00    -0.385 OA
HETATM   16  C22 UNL     1      20.345  -0.043  53.247  1.00  0.00     0.201 C 
HETATM   17  C23 UNL     1      21.240   4.060  49.879  1.00  0.00     0.298 C 
HETATM   18  C24 UNL     1      22.151   3.562  48.752  1.00  0.00     0.199 C 
HETATM   19  O2  UNL     1      23.211   2.931  49.293  1.00  0.00    -0.378 OA
ENDROOT
BRANCH   8  20
HETATM   20  C7  UNL     1      25.284   3.389  49.849  1.00  0.00     0.048 A 
HETATM   21  C8  UNL     1      26.611   3.799  49.401  1.00  0.00     0.021 A 
HETATM   22  C9  UNL     1      25.788   4.796  50.101  1.00  0.00     0.030 A 
BRANCH  22  23
HETATM   23  C10 UNL     1      25.156   5.947  49.433  1.00  0.00    -0.047 A 
HETATM   24  C11 UNL     1      25.457   6.451  48.178  1.00  0.00     0.008 A 
HETATM   25  C12 UNL     1      24.719   7.559  47.741  1.00  0.00     0.001 A 
HETATM   26  C13 UNL     1      23.734   8.159  48.475  1.00  0.00     0.001 A 
HETATM   27  C14 UNL     1      23.439   7.650  49.727  1.00  0.00     0.007 A 
HETATM   28  C15 UNL     1      24.163   6.563  50.156  1.00  0.00    -0.055 A 
HETATM   29  C16 UNL     1      23.747   6.112  51.531  1.00  0.00     0.049 C 
ENDBRANCH  22  23
ENDBRANCH   8  20
TORSDOF 2
ENDMDL
MODEL 3
REMARK VINA RESULT:      -8.6      2.632      6.587
REMARK  2 active torsions:
REMARK  status: ('A' for Active; 'I' for Inactive)
REMARK    1  A    between atoms: C6_8  and  C7_9 
REMARK    2  A    between atoms: C9_11  and  C10_12 
ROOT
HETATM    1  C1  UNL     1      16.227  -1.203  51.964  1.00  0.00     0.046 C 
HETATM    2  C2  UNL     1      17.347  -0.240  51.607  1.00  0.00    -0.058 C 
HETATM    3  C3  UNL     1      18.549  -0.345  52.202  1.00  0.00     0.037 C 
HETATM    4  C4  UNL     1      19.959  -0.013  52.512  1.00  0.00     0.069 A 
HETATM    5  N1  UNL     1      20.172  -0.096  53.835  1.00  0.00    -0.241 NA
HETATM    6  C5  UNL     1      21.249   0.105  54.541  1.00  0.00     0.234 A 
HETATM    7  N2  UNL     1      22.240   0.438  53.765  1.00  0.00    -0.245 NA
HETATM    8  C6  UNL     1      22.175   0.560  52.449  1.00  0.00     0.052 A 
HETATM    9  C17 UNL     1      21.032   0.344  51.733  1.00  0.00     0.026 A 
HETATM   10  C18 UNL     1      21.211   0.605  50.235  1.00  0.00     0.187 C 
HETATM   11  C19 UNL     1      19.931   1.256  49.832  1.00  0.00     0.309 C 
HETATM   12  N3  UNL     1      19.959   2.558  49.242  1.00  0.00     0.095 N 
HETATM   13  C20 UNL     1      18.890   3.377  49.696  1.00  0.00     0.298 C 
HETATM   14  C21 UNL     1      17.912   2.588  50.576  1.00  0.00     0.198 C 
HETATM   15  O1  UNL     1      17.418   1.519  49.935  1.00  0.00    -0.385 OA
HETATM   16  C22 UNL     1      16.701   0.585  50.549  1.00  0.00     0.201 C 
HETATM   17  C23 UNL     1      21.228   3.173  49.212  1.00  0.00     0.298 C 
HETATM   18  C24 UNL     1      22.313   2.127  48.943  1.00  0.00     0.199 C 
HETATM   19  O2  UNL     1      22.349   1.258  49.972  1.00  0.00    -0.378 OA
ENDROOT
BRANCH   8  20
HETATM   20  C7  UNL     1      23.478   0.964  51.831  1.00  0.00     0.048 A 
HETATM   21  C8  UNL     1      24.758   0.876  52.526  1.00  0.00     0.021 A 
HETATM   22  C9  UNL     1      24.137   2.203  52.404  1.00  0.00     0.030 A 
BRANCH  22  23
HETATM   23  C10 UNL     1      24.642   3.261  51.511  1.00  0.00    -0.047 A 
HETATM   24  C11 UNL     1      25.739   3.189  50.669  1.00  0.00     0.008 A 
HETATM   25  C12 UNL     1      26.033   4.324  49.903  1.00  0.00     0.001 A 
HETATM   26  C13 UNL     1      25.306   5.482  49.943  1.00  0.00     0.001 A 
HETATM   27  C14 UNL     1      24.212   5.547  50.787  1.00  0.00     0.007 A 
HETATM   28  C15 UNL     1      23.924   4.432  51.538  1.00  0.00    -0.055 A 
HETATM   29  C16 UNL     1      22.714   4.636  52.413  1.00  0.00     0.049 C 
ENDBRANCH  22  23
ENDBRANCH   8  20
TORSDOF 2
ENDMDL
MODEL 4
REMARK VINA RESULT:      -8.4      2.380      5.627
REMARK  2 active torsions:
REMARK  status: ('A' for Active; 'I' for Inactive)
REMARK    1  A    between atoms: C6_8  and  C7_9 
REMARK    2  A    between atoms: C9_11  and  C10_12 
ROOT
HETATM    1  C1  UNL     1      27.722   0.279  54.749  1.00  0.00     0.046 C 
HETATM    2  C2  UNL     1      26.782   0.880  53.716  1.00  0.00    -0.058 C 
HETATM    3  C3  UNL     1      25.473   0.571  53.727  1.00  0.00     0.037 C 
HETATM    4  C4  UNL     1      24.056   0.587  53.292  1.00  0.00     0.069 A 
HETATM    5  N1  UNL     1      23.547  -0.654  53.339  1.00  0.00    -0.241 NA
HETATM    6  C5  UNL     1      22.356  -1.100  53.052  1.00  0.00     0.234 A 
HETATM    7  N2  UNL     1      21.591  -0.119  52.663  1.00  0.00    -0.245 NA
HETATM    8  C6  UNL     1      21.958   1.148  52.567  1.00  0.00     0.052 A 
HETATM    9  C17 UNL     1      23.215   1.588  52.874  1.00  0.00     0.026 A 
HETATM   10  C18 UNL     1      23.397   3.087  52.626  1.00  0.00     0.187 C 
HETATM   11  C19 UNL     1      24.777   3.192  52.072  1.00  0.00     0.309 C 
HETATM   12  N3  UNL     1      24.976   3.773  50.781  1.00  0.00     0.095 N 
HETATM   13  C20 UNL     1      25.972   3.090  50.031  1.00  0.00     0.298 C 
HETATM   14  C21 UNL     1      26.668   2.013  50.873  1.00  0.00     0.198 C 
HETATM   15  O1  UNL     1      27.215   2.526  51.984  1.00  0.00    -0.385 OA
HETATM   16  C22 UNL     1      27.707   1.766  52.956  1.00  0.00     0.201 C 
HETATM   17  C23 UNL     1      23.794   4.088  50.080  1.00  0.00     0.298 C 
HETATM   18  C24 UNL     1      22.724   4.595  51.052  1.00  0.00     0.199 C 
HETATM   19  O2  UNL     1      22.396   3.601  51.899  1.00  0.00    -0.378 OA
ENDROOT
BRANCH   8  20
HETATM   20  C7  UNL     1      20.861   2.044  52.084  1.00  0.00     0.048 A 
HETATM   21  C8  UNL     1      19.447   1.686  52.143  1.00  0.00     0.021 A 
HETATM   22  C9  UNL     1      20.121   1.589  50.841  1.00  0.00     0.030 A 
BRANCH  22  23
HETATM   23  C10 UNL     1      19.885   2.525  49.727  1.00  0.00    -0.047 A 
HETATM   24  C11 UNL     1      18.978   3.571  49.696  1.00  0.00     0.008 A 
HETATM   25  C12 UNL     1      18.927   4.338  48.525  1.00  0.00     0.001 A 
HETATM   26  C13 UNL     1      19.713   4.111  47.429  1.00  0.00     0.001 A 
HETATM   27  C14 UNL     1      20.616   3.064  47.467  1.00  0.00     0.007 A 
HETATM   28  C15 UNL     1      20.665   2.312  48.617  1.00  0.00    -0.055 A 
HETATM   29  C16 UNL     1      21.684   1.206  48.527  1.00  0.00     0.049 C 
ENDBRANCH  22  23
ENDBRANCH   8  20
TORSDOF 2
ENDMDL
MODEL 5
REMARK VINA RESULT:      -8.2      8.063     10.801
REMARK  2 active torsions:
REMARK  status: ('A' for Active; 'I' for Inactive)
REMARK    1  A    between atoms: C6_8  and  C7_9 
REMARK    2  A    between atoms: C9_11  and  C10_12 
ROOT
HETATM    1  C1  UNL     1      28.241  12.930  48.562  1.00  0.00     0.046 C 
HETATM    2  C2  UNL     1      28.795  11.536  48.317  1.00  0.00    -0.058 C 
HETATM    3  C3  UNL     1      30.120  11.344  48.185  1.00  0.00     0.037 C 
HETATM    4  C4  UNL     1      31.384  10.600  47.975  1.00  0.00     0.069 A 
HETATM    5  N1  UNL     1      32.196  11.291  47.160  1.00  0.00    -0.241 NA
HETATM    6  C5  UNL     1      33.390  11.021  46.713  1.00  0.00     0.234 A 
HETATM    7  N2  UNL     1      33.795   9.873  47.179  1.00  0.00    -0.245 NA
HETATM    8  C6  UNL     1      33.103   9.087  47.988  1.00  0.00     0.052 A 
HETATM    9  C17 UNL     1      31.851   9.395  48.439  1.00  0.00     0.026 A 
HETATM   10  C18 UNL     1      31.248   8.294  49.315  1.00  0.00     0.187 C 
HETATM   11  C19 UNL     1      29.811   8.269  48.917  1.00  0.00     0.309 C 
HETATM   12  N3  UNL     1      29.242   7.060  48.408  1.00  0.00     0.095 N 
HETATM   13  C20 UNL     1      28.339   7.299  47.337  1.00  0.00     0.298 C 
HETATM   14  C21 UNL     1      28.106   8.801  47.124  1.00  0.00     0.198 C 
HETATM   15  O1  UNL     1      27.652   9.395  48.237  1.00  0.00    -0.385 OA
HETATM   16  C22 UNL     1      27.553  10.715  48.354  1.00  0.00     0.201 C 
HETATM   17  C23 UNL     1      30.159   6.007  48.208  1.00  0.00     0.298 C 
HETATM   18  C24 UNL     1      31.217   6.013  49.315  1.00  0.00     0.199 C 
HETATM   19  O2  UNL     1      31.936   7.149  49.227  1.00  0.00    -0.378 OA
ENDROOT
BRANCH   8  20
HETATM   20  C7  UNL     1      33.828   7.828  48.347  1.00  0.00     0.048 A 
HETATM   21  C8  UNL     1      35.270   7.661  48.196  1.00  0.00     0.021 A 
HETATM   22  C9  UNL     1      34.401   7.030  47.192  1.00  0.00     0.030 A 
BRANCH  22  23
HETATM   23  C10 UNL     1      34.177   5.576  47.104  1.00  0.00    -0.047 A 
HETATM   24  C11 UNL     1      34.791   4.591  47.859  1.00  0.00     0.008 A 
HETATM   25  C12 UNL     1      34.417   3.265  47.606  1.00  0.00     0.001 A 
HETATM   26  C13 UNL     1      33.493   2.898  46.667  1.00  0.00     0.001 A 
HETATM   27  C14 UNL     1      32.884   3.888  45.916  1.00  0.00     0.007 A 
HETATM   28  C15 UNL     1      33.251   5.189  46.166  1.00  0.00    -0.055 A 
HETATM   29  C16 UNL     1      32.518   6.164  45.282  1.00  0.00     0.049 C 
ENDBRANCH  22  23
ENDBRANCH   8  20
TORSDOF 2
ENDMDL
MODEL 6
REMARK VINA RESULT:      -8.1      1.795      6.265
REMARK  2 active torsions:
REMARK  status: ('A' for Active; 'I' for Inactive)
REMARK    1  A    between atoms: C6_8  and  C7_9 
REMARK    2  A    between atoms: C9_11  and  C10_12 
ROOT
HETATM    1  C1  UNL     1      18.603  -0.308  51.948  1.00  0.00     0.046 C 
HETATM    2  C2  UNL     1      19.389   0.898  51.463  1.00  0.00    -0.058 C 
HETATM    3  C3  UNL     1      20.733   0.900  51.515  1.00  0.00     0.037 C 
HETATM    4  C4  UNL     1      22.111   1.419  51.351  1.00  0.00     0.069 A 
HETATM    5  N1  UNL     1      22.852   1.108  52.426  1.00  0.00    -0.241 NA
HETATM    6  C5  UNL     1      24.101   1.357  52.704  1.00  0.00     0.234 A 
HETATM    7  N2  UNL     1      24.655   2.021  51.730  1.00  0.00    -0.245 NA
HETATM    8  C6  UNL     1      24.047   2.395  50.615  1.00  0.00     0.052 A 
HETATM    9  C17 UNL     1      22.736   2.121  50.349  1.00  0.00     0.026 A 
HETATM   10  C18 UNL     1      22.263   2.710  49.018  1.00  0.00     0.187 C 
HETATM   11  C19 UNL     1      20.878   3.181  49.309  1.00  0.00     0.309 C 
HETATM   12  N3  UNL     1      20.546   4.557  49.114  1.00  0.00     0.095 N 
HETATM   13  C20 UNL     1      19.687   5.053  50.132  1.00  0.00     0.298 C 
HETATM   14  C21 UNL     1      19.228   3.932  51.074  1.00  0.00     0.198 C 
HETATM   15  O1  UNL     1      18.614   2.944  50.408  1.00  0.00    -0.385 OA
HETATM   16  C22 UNL     1      18.296   1.787  50.979  1.00  0.00     0.201 C 
HETATM   17  C23 UNL     1      21.632   5.391  48.774  1.00  0.00     0.298 C 
HETATM   18  C24 UNL     1      22.602   4.643  47.854  1.00  0.00     0.199 C 
HETATM   19  O2  UNL     1      23.132   3.604  48.529  1.00  0.00    -0.378 OA
ENDROOT
BRANCH   8  20
HETATM   20  C7  UNL     1      24.942   3.152  49.684  1.00  0.00     0.048 A 
HETATM   21  C8  UNL     1      26.399   3.111  49.759  1.00  0.00     0.021 A 
HETATM   22  C9  UNL     1      25.722   4.303  50.289  1.00  0.00     0.030 A 
BRANCH  22  23
HETATM   23  C10 UNL     1      25.747   5.619  49.625  1.00  0.00    -0.047 A 
HETATM   24  C11 UNL     1      26.505   5.984  48.526  1.00  0.00     0.008 A 
HETATM   25  C12 UNL     1      26.364   7.297  48.060  1.00  0.00     0.001 A 
HETATM   26  C13 UNL     1      25.530   8.223  48.623  1.00  0.00     0.001 A 
HETATM   27  C14 UNL     1      24.776   7.851  49.722  1.00  0.00     0.007 A 
HETATM   28  C15 UNL     1      24.915   6.562  50.179  1.00  0.00    -0.055 A 
HETATM   29  C16 UNL     1      24.043   6.289  51.376  1.00  0.00     0.049 C 
ENDBRANCH  22  23
ENDBRANCH   8  20
TORSDOF 2
ENDMDL
MODEL 7
REMARK VINA RESULT:      -7.7      1.992      4.384
REMARK  2 active torsions:
REMARK  status: ('A' for Active; 'I' for Inactive)
REMARK    1  A    between atoms: C6_8  and  C7_9 
REMARK    2  A    between atoms: C9_11  and  C10_12 
ROOT
HETATM    1  C1  UNL     1      19.299   8.378  48.573  1.00  0.00     0.046 C 
HETATM    2  C2  UNL     1      20.344   7.467  49.196  1.00  0.00    -0.058 C 
HETATM    3  C3  UNL     1      20.017   6.221  49.581  1.00  0.00     0.037 C 
HETATM    4  C4  UNL     1      20.209   4.866  50.150  1.00  0.00     0.069 A 
HETATM    5  N1  UNL     1      19.162   4.537  50.922  1.00  0.00    -0.241 NA
HETATM    6  C5  UNL     1      18.910   3.457  51.606  1.00  0.00     0.234 A 
HETATM    7  N2  UNL     1      19.883   2.600  51.467  1.00  0.00    -0.245 NA
HETATM    8  C6  UNL     1      20.973   2.790  50.741  1.00  0.00     0.052 A 
HETATM    9  C17 UNL     1      21.211   3.934  50.035  1.00  0.00     0.026 A 
HETATM   10  C18 UNL     1      22.567   3.922  49.324  1.00  0.00     0.187 C 
HETATM   11  C19 UNL     1      23.061   5.321  49.477  1.00  0.00     0.309 C 
HETATM   12  N3  UNL     1      24.311   5.559  50.130  1.00  0.00     0.095 N 
HETATM   13  C20 UNL     1      24.272   6.711  50.962  1.00  0.00     0.298 C 
HETATM   14  C21 UNL     1      22.947   7.469  50.810  1.00  0.00     0.198 C 
HETATM   15  O1  UNL     1      22.722   7.826  49.538  1.00  0.00    -0.385 OA
HETATM   16  C22 UNL     1      21.560   8.325  49.130  1.00  0.00     0.201 C 
HETATM   17  C23 UNL     1      24.915   4.418  50.696  1.00  0.00     0.298 C 
HETATM   18  C24 UNL     1      24.676   3.197  49.803  1.00  0.00     0.199 C 
HETATM   19  O2  UNL     1      23.356   2.934  49.765  1.00  0.00    -0.378 OA
ENDROOT
BRANCH   8  20
HETATM   20  C7  UNL     1      21.915   1.627  50.781  1.00  0.00     0.048 A 
HETATM   21  C8  UNL     1      21.478   0.236  50.720  1.00  0.00     0.021 A 
HETATM   22  C9  UNL     1      21.872   0.771  52.032  1.00  0.00     0.030 A 
BRANCH  22  23
HETATM   23  C10 UNL     1      23.118   0.397  52.724  1.00  0.00    -0.047 A 
HETATM   24  C11 UNL     1      24.405   0.789  52.395  1.00  0.00     0.008 A 
HETATM   25  C12 UNL     1      25.445   0.311  53.202  1.00  0.00     0.001 A 
HETATM   26  C13 UNL     1      25.259  -0.507  54.282  1.00  0.00     0.001 A 
HETATM   27  C14 UNL     1      23.971  -0.895  54.605  1.00  0.00     0.007 A 
HETATM   28  C15 UNL     1      22.951  -0.426  53.812  1.00  0.00    -0.055 A 
HETATM   29  C16 UNL     1      21.605  -0.923  54.269  1.00  0.00     0.049 C 
ENDBRANCH  22  23
ENDBRANCH   8  20
TORSDOF 2
ENDMDL
MODEL 8
REMARK VINA RESULT:      -7.6      2.079      6.869
REMARK  2 active torsions:
REMARK  status: ('A' for Active; 'I' for Inactive)
REMARK    1  A    between atoms: C6_8  and  C7_9 
REMARK    2  A    between atoms: C9_11  and  C10_12 
ROOT
HETATM    1  C1  UNL     1      16.553   2.584  51.678  1.00  0.00     0.046 C 
HETATM    2  C2  UNL     1      18.048   2.564  51.407  1.00  0.00    -0.058 C 
HETATM    3  C3  UNL     1      18.692   3.694  51.062  1.00  0.00     0.037 C 
HETATM    4  C4  UNL     1      19.831   4.560  50.676  1.00  0.00     0.069 A 
HETATM    5  N1  UNL     1      19.456   5.407  49.705  1.00  0.00    -0.241 NA
HETATM    6  C5  UNL     1      20.122   6.335  49.077  1.00  0.00     0.234 A 
HETATM    7  N2  UNL     1      21.347   6.387  49.520  1.00  0.00    -0.245 NA
HETATM    8  C6  UNL     1      21.852   5.615  50.468  1.00  0.00     0.052 A 
HETATM    9  C17 UNL     1      21.131   4.649  51.110  1.00  0.00     0.026 A 
HETATM   10  C18 UNL     1      21.963   3.861  52.124  1.00  0.00     0.187 C 
HETATM   11  C19 UNL     1      21.474   2.460  51.975  1.00  0.00     0.309 C 
HETATM   12  N3  UNL     1      22.396   1.425  51.625  1.00  0.00     0.095 N 
HETATM   13  C20 UNL     1      21.835   0.492  50.712  1.00  0.00     0.298 C 
HETATM   14  C21 UNL     1      20.345   0.765  50.474  1.00  0.00     0.198 C 
HETATM   15  O1  UNL     1      19.647   0.748  51.619  1.00  0.00    -0.385 OA
HETATM   16  C22 UNL     1      18.379   1.140  51.690  1.00  0.00     0.201 C 
HETATM   17  C23 UNL     1      23.701   1.866  51.322  1.00  0.00     0.298 C 
HETATM   18  C24 UNL     1      24.086   3.035  52.234  1.00  0.00     0.199 C 
HETATM   19  O2  UNL     1      23.276   4.079  51.974  1.00  0.00    -0.378 OA
ENDROOT
BRANCH   8  20
HETATM   20  C7  UNL     1      23.292   5.905  50.757  1.00  0.00     0.048 A 
HETATM   21  C8  UNL     1      23.841   7.256  50.827  1.00  0.00     0.021 A 
HETATM   22  C9  UNL     1      24.106   6.474  49.611  1.00  0.00     0.030 A 
BRANCH  22  23
HETATM   23  C10 UNL     1      25.423   5.905  49.276  1.00  0.00    -0.047 A 
HETATM   24  C11 UNL     1      25.851   4.607  49.497  1.00  0.00     0.008 A 
HETATM   25  C12 UNL     1      27.153   4.285  49.091  1.00  0.00     0.001 A 
HETATM   26  C13 UNL     1      28.009   5.171  48.498  1.00  0.00     0.001 A 
HETATM   27  C14 UNL     1      27.575   6.467  48.282  1.00  0.00     0.007 A 
HETATM   28  C15 UNL     1      26.298   6.781  48.680  1.00  0.00    -0.055 A 
HETATM   29  C16 UNL     1      25.952   8.219  48.390  1.00  0.00     0.049 C 
ENDBRANCH  22  23
ENDBRANCH   8  20
TORSDOF 2
ENDMDL
MODEL 9
REMARK VINA RESULT:      -7.6      2.020      7.203
REMARK  2 active torsions:
REMARK  status: ('A' for Active; 'I' for Inactive)
REMARK    1  A    between atoms: C6_8  and  C7_9 
REMARK    2  A    between atoms: C9_11  and  C10_12 
ROOT
HETATM    1  C1  UNL     1      17.899  -0.769  52.623  1.00  0.00     0.046 C 
HETATM    2  C2  UNL     1      19.290  -0.180  52.457  1.00  0.00    -0.058 C 
HETATM    3  C3  UNL     1      19.511   0.805  51.569  1.00  0.00     0.037 C 
HETATM    4  C4  UNL     1      20.277   1.818  50.806  1.00  0.00     0.069 A 
HETATM    5  N1  UNL     1      19.903   1.805  49.517  1.00  0.00    -0.241 NA
HETATM    6  C5  UNL     1      20.305   2.520  48.504  1.00  0.00     0.234 A 
HETATM    7  N2  UNL     1      21.222   3.364  48.884  1.00  0.00    -0.245 NA
HETATM    8  C6  UNL     1      21.686   3.486  50.117  1.00  0.00     0.052 A 
HETATM    9  C17 UNL     1      21.248   2.722  51.161  1.00  0.00     0.026 A 
HETATM   10  C18 UNL     1      21.984   3.024  52.469  1.00  0.00     0.187 C 
HETATM   11  C19 UNL     1      22.150   1.684  53.101  1.00  0.00     0.309 C 
HETATM   12  N3  UNL     1      23.463   1.209  53.410  1.00  0.00     0.095 N 
HETATM   13  C20 UNL     1      23.609  -0.180  53.146  1.00  0.00     0.298 C 
HETATM   14  C21 UNL     1      22.272  -0.819  52.747  1.00  0.00     0.198 C 
HETATM   15  O1  UNL     1      21.334  -0.637  53.688  1.00  0.00    -0.385 OA
HETATM   16  C22 UNL     1      20.054  -0.935  53.490  1.00  0.00     0.201 C 
HETATM   17  C23 UNL     1      24.517   2.029  52.957  1.00  0.00     0.298 C 
HETATM   18  C24 UNL     1      24.127   3.505  53.085  1.00  0.00     0.199 C 
HETATM   19  O2  UNL     1      23.087   3.755  52.266  1.00  0.00    -0.378 OA
ENDROOT
BRANCH   8  20
HETATM   20  C7  UNL     1      22.743   4.539  50.245  1.00  0.00     0.048 A 
HETATM   21  C8  UNL     1      22.594   5.894  49.726  1.00  0.00     0.021 A 
HETATM   22  C9  UNL     1      23.432   4.959  48.961  1.00  0.00     0.030 A 
BRANCH  22  23
HETATM   23  C10 UNL     1      24.901   5.045  48.896  1.00  0.00    -0.047 A 
HETATM   24  C11 UNL     1      25.812   4.094  49.323  1.00  0.00     0.008 A 
HETATM   25  C12 UNL     1      27.171   4.391  49.158  1.00  0.00     0.001 A 
HETATM   26  C13 UNL     1      27.638   5.551  48.604  1.00  0.00     0.001 A 
HETATM   27  C14 UNL     1      26.722   6.497  48.180  1.00  0.00     0.007 A 
HETATM   28  C15 UNL     1      25.389   6.205  48.343  1.00  0.00    -0.055 A 
HETATM   29  C16 UNL     1      24.501   7.315  47.844  1.00  0.00     0.049 C 
ENDBRANCH  22  23
ENDBRANCH   8  20
TORSDOF 2
ENDMDL
