MODEL 1
REMARK VINA RESULT:      -8.5      0.000      0.000
REMARK  8 active torsions:
REMARK  status: ('A' for Active; 'I' for Inactive)
REMARK    1  A    between atoms: C8_8  and  C9_9 
REMARK    2  A    between atoms: C9_9  and  N1_10 
REMARK    3  A    between atoms: C13_14  and  C14_15 
REMARK    4  A    between atoms: C15_16  and  C16_17 
REMARK    5  A    between atoms: C16_17  and  C17_18 
REMARK    6  A    between atoms: C17_18  and  C18_19 
REMARK    7  A    between atoms: C18_19  and  N2_21 
REMARK    8  A    between atoms: C20_23  and  N4_24 
ROOT
HETATM    1  C1  UNL     1      29.437   2.076  54.558  1.00  0.00     0.018 C 
HETATM    2  C2  UNL     1      29.016   1.033  54.139  1.00  0.00    -0.077 C 
HETATM    3  C3  UNL     1      28.478  -0.229  53.633  1.00  0.00     0.024 A 
HETATM    4  C4  UNL     1      29.378  -1.230  53.579  1.00  0.00     0.021 A 
HETATM    5  C5  UNL     1      28.952  -2.440  53.074  1.00  0.00     0.002 A 
HETATM    6  C6  UNL     1      27.631  -2.521  52.661  1.00  0.00     0.001 A 
HETATM    7  C7  UNL     1      26.770  -1.467  52.743  1.00  0.00     0.010 A 
HETATM    8  C8  UNL     1      27.123  -0.206  53.246  1.00  0.00    -0.021 A 
ENDROOT
BRANCH   8   9
HETATM    9  C9  UNL     1      26.323   1.005  53.487  1.00  0.00     0.170 C 
BRANCH   9  10
HETATM   10  N1  UNL     1      24.973   0.738  53.125  1.00  0.00    -0.336 N 
HETATM   11  C10 UNL     1      24.215  -0.170  53.814  1.00  0.00     0.094 A 
HETATM   12  C11 UNL     1      22.975  -0.290  53.218  1.00  0.00     0.035 A 
HETATM   13  C12 UNL     1      23.018   0.573  52.157  1.00  0.00     0.041 A 
HETATM   14  C13 UNL     1      22.003   0.869  51.235  1.00  0.00     0.090 A 
HETATM   15  C21 UNL     1      24.234   1.202  52.095  1.00  0.00     0.162 A 
HETATM   16  N3  UNL     1      22.284   1.802  50.274  1.00  0.00    -0.062 NA
HETATM   17  C20 UNL     1      23.487   2.409  50.223  1.00  0.00     0.722 A 
HETATM   18  N5  UNL     1      24.458   2.119  51.119  1.00  0.00    -0.044 NA
BRANCH  14  19
HETATM   19  C14 UNL     1      20.625   0.332  51.326  1.00  0.00     0.033 C 
HETATM   20  C15 UNL     1      19.695   0.951  50.664  1.00  0.00     0.002 C 
BRANCH  20  21
HETATM   21  C16 UNL     1      18.329   0.436  50.753  1.00  0.00     0.002 C 
BRANCH  21  22
HETATM   22  C17 UNL     1      18.087  -0.463  51.684  1.00  0.00     0.022 C 
BRANCH  22  23
HETATM   23  C18 UNL     1      17.907  -1.253  52.877  1.00  0.00    -0.004 C 
HETATM   24  C19 UNL     1      18.279  -2.136  53.758  1.00  0.00     0.036 C 
BRANCH  23  25
HETATM   25  N2  UNL     1      16.605  -0.842  53.356  1.00  0.00    -0.303 NA
HETATM   26  H16 UNL     1      15.752  -0.581  53.941  1.00  0.00     0.124 HD
HETATM   27  H17 UNL     1      16.121  -0.722  54.287  1.00  0.00     0.124 HD
ENDBRANCH  23  25
ENDBRANCH  22  23
ENDBRANCH  21  22
ENDBRANCH  20  21
ENDBRANCH  14  19
BRANCH  17  28
HETATM   28  N4  UNL     1      23.731   3.375  49.215  1.00  0.00    -0.231 N 
HETATM   29  H18 UNL     1      23.176   4.251  49.163  1.00  0.00     0.174 HD
HETATM   30  H19 UNL     1      24.498   3.170  48.514  1.00  0.00     0.174 HD
ENDBRANCH  17  28
ENDBRANCH   9  10
ENDBRANCH   8   9
TORSDOF 8
ENDMDL
MODEL 2
REMARK VINA RESULT:      -8.1      4.519      8.450
REMARK  8 active torsions:
REMARK  status: ('A' for Active; 'I' for Inactive)
REMARK    1  A    between atoms: C8_8  and  C9_9 
REMARK    2  A    between atoms: C9_9  and  N1_10 
REMARK    3  A    between atoms: C13_14  and  C14_15 
REMARK    4  A    between atoms: C15_16  and  C16_17 
REMARK    5  A    between atoms: C16_17  and  C17_18 
REMARK    6  A    between atoms: C17_18  and  C18_19 
REMARK    7  A    between atoms: C18_19  and  N2_21 
REMARK    8  A    between atoms: C20_23  and  N4_24 
ROOT
HETATM    1  C1  UNL     1      21.739  -0.219  52.323  1.00  0.00     0.018 C 
HETATM    2  C2  UNL     1      22.811   0.064  52.780  1.00  0.00    -0.077 C 
HETATM    3  C3  UNL     1      24.120   0.430  53.320  1.00  0.00     0.024 A 
HETATM    4  C4  UNL     1      24.702  -0.537  54.056  1.00  0.00     0.021 A 
HETATM    5  C5  UNL     1      25.921  -0.248  54.632  1.00  0.00     0.002 A 
HETATM    6  C6  UNL     1      26.442   1.016  54.405  1.00  0.00     0.001 A 
HETATM    7  C7  UNL     1      25.799   1.951  53.648  1.00  0.00     0.010 A 
HETATM    8  C8  UNL     1      24.561   1.737  53.028  1.00  0.00    -0.021 A 
ENDROOT
BRANCH   8   9
HETATM    9  C9  UNL     1      23.767   2.580  52.120  1.00  0.00     0.170 C 
BRANCH   9  10
HETATM   10  N1  UNL     1      24.646   3.188  51.180  1.00  0.00    -0.336 N 
HETATM   11  C10 UNL     1      25.529   2.446  50.444  1.00  0.00     0.094 A 
HETATM   12  C11 UNL     1      26.306   3.282  49.666  1.00  0.00     0.035 A 
HETATM   13  C12 UNL     1      25.858   4.542  49.961  1.00  0.00     0.041 A 
HETATM   14  C13 UNL     1      26.282   5.764  49.420  1.00  0.00     0.090 A 
HETATM   15  C21 UNL     1      24.846   4.490  50.884  1.00  0.00     0.162 A 
HETATM   16  N3  UNL     1      25.648   6.895  49.858  1.00  0.00    -0.062 NA
HETATM   17  C20 UNL     1      24.657   6.829  50.770  1.00  0.00     0.722 A 
HETATM   18  N5  UNL     1      24.253   5.644  51.283  1.00  0.00    -0.044 NA
BRANCH  14  19
HETATM   19  C14 UNL     1      27.270   5.881  48.321  1.00  0.00     0.033 C 
HETATM   20  C15 UNL     1      28.372   6.519  48.572  1.00  0.00     0.002 C 
BRANCH  20  21
HETATM   21  C16 UNL     1      29.352   6.648  47.494  1.00  0.00     0.002 C 
BRANCH  21  22
HETATM   22  C17 UNL     1      30.425   5.888  47.566  1.00  0.00     0.022 C 
BRANCH  22  23
HETATM   23  C18 UNL     1      31.434   4.858  47.559  1.00  0.00    -0.004 C 
HETATM   24  C19 UNL     1      32.136   3.916  46.997  1.00  0.00     0.036 C 
BRANCH  23  25
HETATM   25  N2  UNL     1      31.947   4.883  48.912  1.00  0.00    -0.303 NA
HETATM   26  H16 UNL     1      32.217   4.666  49.921  1.00  0.00     0.124 HD
HETATM   27  H17 UNL     1      31.945   4.248  49.756  1.00  0.00     0.124 HD
ENDBRANCH  23  25
ENDBRANCH  22  23
ENDBRANCH  21  22
ENDBRANCH  20  21
ENDBRANCH  14  19
BRANCH  17  28
HETATM   28  N4  UNL     1      24.024   8.025  51.189  1.00  0.00    -0.231 N 
HETATM   29  H18 UNL     1      24.577   8.868  51.441  1.00  0.00     0.174 HD
HETATM   30  H19 UNL     1      22.965   8.030  51.240  1.00  0.00     0.174 HD
ENDBRANCH  17  28
ENDBRANCH   9  10
ENDBRANCH   8   9
TORSDOF 8
ENDMDL
MODEL 3
REMARK VINA RESULT:      -8.0      2.080      3.756
REMARK  8 active torsions:
REMARK  status: ('A' for Active; 'I' for Inactive)
REMARK    1  A    between atoms: C8_8  and  C9_9 
REMARK    2  A    between atoms: C9_9  and  N1_10 
REMARK    3  A    between atoms: C13_14  and  C14_15 
REMARK    4  A    between atoms: C15_16  and  C16_17 
REMARK    5  A    between atoms: C16_17  and  C17_18 
REMARK    6  A    between atoms: C17_18  and  C18_19 
REMARK    7  A    between atoms: C18_19  and  N2_21 
REMARK    8  A    between atoms: C20_23  and  N4_24 
ROOT
HETATM    1  C1  UNL     1      29.432   2.103  54.589  1.00  0.00     0.018 C 
HETATM    2  C2  UNL     1      29.013   1.057  54.175  1.00  0.00    -0.077 C 
HETATM    3  C3  UNL     1      28.479  -0.210  53.679  1.00  0.00     0.024 A 
HETATM    4  C4  UNL     1      29.413  -1.157  53.465  1.00  0.00     0.021 A 
HETATM    5  C5  UNL     1      28.987  -2.365  52.957  1.00  0.00     0.002 A 
HETATM    6  C6  UNL     1      27.630  -2.502  52.708  1.00  0.00     0.001 A 
HETATM    7  C7  UNL     1      26.735  -1.501  52.947  1.00  0.00     0.010 A 
HETATM    8  C8  UNL     1      27.086  -0.245  53.463  1.00  0.00    -0.021 A 
ENDROOT
BRANCH   8   9
HETATM    9  C9  UNL     1      26.264   0.909  53.859  1.00  0.00     0.170 C 
BRANCH   9  10
HETATM   10  N1  UNL     1      25.129   0.975  53.003  1.00  0.00    -0.336 N 
HETATM   11  C10 UNL     1      25.120   1.770  51.890  1.00  0.00     0.094 A 
HETATM   12  C11 UNL     1      23.882   1.704  51.280  1.00  0.00     0.035 A 
HETATM   13  C12 UNL     1      23.158   0.846  52.062  1.00  0.00     0.041 A 
HETATM   14  C13 UNL     1      21.843   0.397  51.874  1.00  0.00     0.090 A 
HETATM   15  C21 UNL     1      23.914   0.399  53.115  1.00  0.00     0.162 A 
HETATM   16  N3  UNL     1      21.350  -0.495  52.787  1.00  0.00    -0.062 NA
HETATM   17  C20 UNL     1      22.104  -0.923  53.819  1.00  0.00     0.722 A 
HETATM   18  N5  UNL     1      23.373  -0.487  53.990  1.00  0.00    -0.044 NA
BRANCH  14  19
HETATM   19  C14 UNL     1      21.020   0.730  50.687  1.00  0.00     0.033 C 
HETATM   20  C15 UNL     1      19.936   1.417  50.882  1.00  0.00     0.002 C 
BRANCH  20  21
HETATM   21  C16 UNL     1      19.112   1.745  49.719  1.00  0.00     0.002 C 
BRANCH  21  22
HETATM   22  C17 UNL     1      19.711   2.342  48.710  1.00  0.00     0.022 C 
BRANCH  22  23
HETATM   23  C18 UNL     1      20.122   2.983  47.485  1.00  0.00    -0.004 C 
HETATM   24  C19 UNL     1      20.972   3.613  46.727  1.00  0.00     0.036 C 
BRANCH  23  25
HETATM   25  N2  UNL     1      18.957   2.861  46.637  1.00  0.00    -0.303 NA
HETATM   26  H16 UNL     1      18.275   2.758  45.823  1.00  0.00     0.124 HD
HETATM   27  H17 UNL     1      18.753   2.762  45.605  1.00  0.00     0.124 HD
ENDBRANCH  23  25
ENDBRANCH  22  23
ENDBRANCH  21  22
ENDBRANCH  20  21
ENDBRANCH  14  19
BRANCH  17  28
HETATM   28  N4  UNL     1      21.554  -1.853  54.736  1.00  0.00    -0.231 N 
HETATM   29  H18 UNL     1      22.043  -2.743  54.958  1.00  0.00     0.174 HD
HETATM   30  H19 UNL     1      20.626  -1.611  55.186  1.00  0.00     0.174 HD
ENDBRANCH  17  28
ENDBRANCH   9  10
ENDBRANCH   8   9
TORSDOF 8
ENDMDL
MODEL 4
REMARK VINA RESULT:      -7.9      3.154      4.321
REMARK  8 active torsions:
REMARK  status: ('A' for Active; 'I' for Inactive)
REMARK    1  A    between atoms: C8_8  and  C9_9 
REMARK    2  A    between atoms: C9_9  and  N1_10 
REMARK    3  A    between atoms: C13_14  and  C14_15 
REMARK    4  A    between atoms: C15_16  and  C16_17 
REMARK    5  A    between atoms: C16_17  and  C17_18 
REMARK    6  A    between atoms: C17_18  and  C18_19 
REMARK    7  A    between atoms: C18_19  and  N2_21 
REMARK    8  A    between atoms: C20_23  and  N4_24 
ROOT
HETATM    1  C1  UNL     1      29.647   2.008  54.584  1.00  0.00     0.018 C 
HETATM    2  C2  UNL     1      29.119   1.016  54.163  1.00  0.00    -0.077 C 
HETATM    3  C3  UNL     1      28.453  -0.184  53.659  1.00  0.00     0.024 A 
HETATM    4  C4  UNL     1      29.290  -1.198  53.366  1.00  0.00     0.021 A 
HETATM    5  C5  UNL     1      28.736  -2.348  52.847  1.00  0.00     0.002 A 
HETATM    6  C6  UNL     1      27.361  -2.361  52.668  1.00  0.00     0.001 A 
HETATM    7  C7  UNL     1      26.569  -1.298  52.985  1.00  0.00     0.010 A 
HETATM    8  C8  UNL     1      27.052  -0.095  53.519  1.00  0.00    -0.021 A 
ENDROOT
BRANCH   8   9
HETATM    9  C9  UNL     1      26.355   1.110  53.994  1.00  0.00     0.170 C 
BRANCH   9  10
HETATM   10  N1  UNL     1      25.350   1.457  53.047  1.00  0.00    -0.336 N 
HETATM   11  C10 UNL     1      24.068   0.997  53.165  1.00  0.00     0.094 A 
HETATM   12  C11 UNL     1      23.318   1.421  52.085  1.00  0.00     0.035 A 
HETATM   13  C12 UNL     1      24.193   2.146  51.322  1.00  0.00     0.041 A 
HETATM   14  C13 UNL     1      23.941   2.835  50.127  1.00  0.00     0.090 A 
HETATM   15  C21 UNL     1      25.434   2.171  51.904  1.00  0.00     0.162 A 
HETATM   16  N3  UNL     1      24.985   3.520  49.568  1.00  0.00    -0.062 NA
HETATM   17  C20 UNL     1      26.201   3.532  50.150  1.00  0.00     0.722 A 
HETATM   18  N5  UNL     1      26.434   2.868  51.306  1.00  0.00    -0.044 NA
BRANCH  14  19
HETATM   19  C14 UNL     1      22.596   2.965  49.519  1.00  0.00     0.033 C 
HETATM   20  C15 UNL     1      22.336   2.235  48.477  1.00  0.00     0.002 C 
BRANCH  20  21
HETATM   21  C16 UNL     1      21.014   2.360  47.863  1.00  0.00     0.002 C 
BRANCH  21  22
HETATM   22  C17 UNL     1      20.908   3.170  46.831  1.00  0.00     0.022 C 
BRANCH  22  23
HETATM   23  C18 UNL     1      20.568   3.913  45.643  1.00  0.00    -0.004 C 
HETATM   24  C19 UNL     1      19.771   4.628  44.902  1.00  0.00     0.036 C 
BRANCH  23  25
HETATM   25  N2  UNL     1      21.761   3.809  44.831  1.00  0.00    -0.303 NA
HETATM   26  H16 UNL     1      22.688   3.968  44.328  1.00  0.00     0.124 HD
HETATM   27  H17 UNL     1      22.602   4.406  44.604  1.00  0.00     0.124 HD
ENDBRANCH  23  25
ENDBRANCH  22  23
ENDBRANCH  21  22
ENDBRANCH  20  21
ENDBRANCH  14  19
BRANCH  17  28
HETATM   28  N4  UNL     1      27.251   4.263  49.540  1.00  0.00    -0.231 N 
HETATM   29  H18 UNL     1      27.497   5.220  49.858  1.00  0.00     0.174 HD
HETATM   30  H19 UNL     1      27.775   3.798  48.745  1.00  0.00     0.174 HD
ENDBRANCH  17  28
ENDBRANCH   9  10
ENDBRANCH   8   9
TORSDOF 8
ENDMDL
MODEL 5
REMARK VINA RESULT:      -7.8      4.406      8.021
REMARK  8 active torsions:
REMARK  status: ('A' for Active; 'I' for Inactive)
REMARK    1  A    between atoms: C8_8  and  C9_9 
REMARK    2  A    between atoms: C9_9  and  N1_10 
REMARK    3  A    between atoms: C13_14  and  C14_15 
REMARK    4  A    between atoms: C15_16  and  C16_17 
REMARK    5  A    between atoms: C16_17  and  C17_18 
REMARK    6  A    between atoms: C17_18  and  C18_19 
REMARK    7  A    between atoms: C18_19  and  N2_21 
REMARK    8  A    between atoms: C20_23  and  N4_24 
ROOT
HETATM    1  C1  UNL     1      24.044   8.451  50.108  1.00  0.00     0.018 C 
HETATM    2  C2  UNL     1      25.174   8.263  49.752  1.00  0.00    -0.077 C 
HETATM    3  C3  UNL     1      26.546   8.007  49.315  1.00  0.00     0.024 A 
HETATM    4  C4  UNL     1      27.420   8.976  49.648  1.00  0.00     0.021 A 
HETATM    5  C5  UNL     1      28.726   8.823  49.232  1.00  0.00     0.002 A 
HETATM    6  C6  UNL     1      29.026   7.683  48.503  1.00  0.00     0.001 A 
HETATM    7  C7  UNL     1      28.090   6.738  48.199  1.00  0.00     0.010 A 
HETATM    8  C8  UNL     1      26.745   6.817  48.585  1.00  0.00    -0.021 A 
ENDROOT
BRANCH   8   9
HETATM    9  C9  UNL     1      25.628   5.873  48.426  1.00  0.00     0.170 C 
BRANCH   9  10
HETATM   10  N1  UNL     1      25.780   4.825  49.378  1.00  0.00    -0.336 N 
HETATM   11  C10 UNL     1      26.776   3.895  49.264  1.00  0.00     0.094 A 
HETATM   12  C11 UNL     1      26.656   2.956  50.270  1.00  0.00     0.035 A 
HETATM   13  C12 UNL     1      25.559   3.356  50.984  1.00  0.00     0.041 A 
HETATM   14  C13 UNL     1      25.014   2.775  52.138  1.00  0.00     0.090 A 
HETATM   15  C21 UNL     1      25.021   4.495  50.444  1.00  0.00     0.162 A 
HETATM   16  N3  UNL     1      23.923   3.388  52.691  1.00  0.00    -0.062 NA
HETATM   17  C20 UNL     1      23.402   4.506  52.146  1.00  0.00     0.722 A 
HETATM   18  N5  UNL     1      23.937   5.062  51.035  1.00  0.00    -0.044 NA
BRANCH  14  19
HETATM   19  C14 UNL     1      25.625   1.629  52.852  1.00  0.00     0.033 C 
HETATM   20  C15 UNL     1      25.322   0.436  52.441  1.00  0.00     0.002 C 
BRANCH  20  21
HETATM   21  C16 UNL     1      25.913  -0.703  53.143  1.00  0.00     0.002 C 
BRANCH  21  22
HETATM   22  C17 UNL     1      27.182  -0.605  53.481  1.00  0.00     0.022 C 
BRANCH  22  23
HETATM   23  C18 UNL     1      28.544  -0.237  53.778  1.00  0.00    -0.004 C 
HETATM   24  C19 UNL     1      29.827  -0.242  53.561  1.00  0.00     0.036 C 
BRANCH  23  25
HETATM   25  N2  UNL     1      28.417   0.588  54.959  1.00  0.00    -0.303 NA
HETATM   26  H16 UNL     1      28.087   1.091  55.841  1.00  0.00     0.124 HD
HETATM   27  H17 UNL     1      27.681   0.795  55.689  1.00  0.00     0.124 HD
ENDBRANCH  23  25
ENDBRANCH  22  23
ENDBRANCH  21  22
ENDBRANCH  20  21
ENDBRANCH  14  19
BRANCH  17  28
HETATM   28  N4  UNL     1      22.276   5.112  52.757  1.00  0.00    -0.231 N 
HETATM   29  H18 UNL     1      22.385   5.781  53.544  1.00  0.00     0.174 HD
HETATM   30  H19 UNL     1      21.317   4.856  52.385  1.00  0.00     0.174 HD
ENDBRANCH  17  28
ENDBRANCH   9  10
ENDBRANCH   8   9
TORSDOF 8
ENDMDL
MODEL 6
REMARK VINA RESULT:      -7.8      2.327      4.615
REMARK  8 active torsions:
REMARK  status: ('A' for Active; 'I' for Inactive)
REMARK    1  A    between atoms: C8_8  and  C9_9 
REMARK    2  A    between atoms: C9_9  and  N1_10 
REMARK    3  A    between atoms: C13_14  and  C14_15 
REMARK    4  A    between atoms: C15_16  and  C16_17 
REMARK    5  A    between atoms: C16_17  and  C17_18 
REMARK    6  A    between atoms: C17_18  and  C18_19 
REMARK    7  A    between atoms: C18_19  and  N2_21 
REMARK    8  A    between atoms: C20_23  and  N4_24 
ROOT
HETATM    1  C1  UNL     1      29.552   2.010  54.615  1.00  0.00     0.018 C 
HETATM    2  C2  UNL     1      29.078   0.994  54.186  1.00  0.00    -0.077 C 
HETATM    3  C3  UNL     1      28.475  -0.236  53.674  1.00  0.00     0.024 A 
HETATM    4  C4  UNL     1      29.363  -1.211  53.398  1.00  0.00     0.021 A 
HETATM    5  C5  UNL     1      28.870  -2.386  52.872  1.00  0.00     0.002 A 
HETATM    6  C6  UNL     1      27.501  -2.462  52.669  1.00  0.00     0.001 A 
HETATM    7  C7  UNL     1      26.656  -1.435  52.970  1.00  0.00     0.010 A 
HETATM    8  C8  UNL     1      27.075  -0.211  53.509  1.00  0.00    -0.021 A 
ENDROOT
BRANCH   8   9
HETATM    9  C9  UNL     1      26.315   0.962  53.969  1.00  0.00     0.170 C 
BRANCH   9  10
HETATM   10  N1  UNL     1      25.506   1.429  52.895  1.00  0.00    -0.336 N 
HETATM   11  C10 UNL     1      25.986   2.318  51.973  1.00  0.00     0.094 A 
HETATM   12  C11 UNL     1      24.983   2.659  51.087  1.00  0.00     0.035 A 
HETATM   13  C12 UNL     1      23.894   1.946  51.510  1.00  0.00     0.041 A 
HETATM   14  C13 UNL     1      22.614   1.895  50.939  1.00  0.00     0.090 A 
HETATM   15  C21 UNL     1      24.207   1.196  52.613  1.00  0.00     0.162 A 
HETATM   16  N3  UNL     1      21.696   1.073  51.535  1.00  0.00    -0.062 NA
HETATM   17  C20 UNL     1      22.018   0.343  52.622  1.00  0.00     0.722 A 
HETATM   18  N5  UNL     1      23.257   0.397  53.163  1.00  0.00    -0.044 NA
BRANCH  14  19
HETATM   19  C14 UNL     1      22.249   2.570  49.671  1.00  0.00     0.033 C 
HETATM   20  C15 UNL     1      22.307   1.869  48.581  1.00  0.00     0.002 C 
BRANCH  20  21
HETATM   21  C16 UNL     1      21.956   2.526  47.321  1.00  0.00     0.002 C 
BRANCH  21  22
HETATM   22  C17 UNL     1      22.163   3.824  47.246  1.00  0.00     0.022 C 
BRANCH  22  23
HETATM   23  C18 UNL     1      22.601   5.196  47.328  1.00  0.00    -0.004 C 
HETATM   24  C19 UNL     1      23.168   6.206  47.922  1.00  0.00     0.036 C 
BRANCH  23  25
HETATM   25  N2  UNL     1      22.186   5.755  46.060  1.00  0.00    -0.303 NA
HETATM   26  H16 UNL     1      21.796   5.926  45.082  1.00  0.00     0.124 HD
HETATM   27  H17 UNL     1      21.716   5.416  45.176  1.00  0.00     0.124 HD
ENDBRANCH  23  25
ENDBRANCH  22  23
ENDBRANCH  21  22
ENDBRANCH  20  21
ENDBRANCH  14  19
BRANCH  17  28
HETATM   28  N4  UNL     1      21.038  -0.501  53.202  1.00  0.00    -0.231 N 
HETATM   29  H18 UNL     1      20.315  -0.967  52.619  1.00  0.00     0.174 HD
HETATM   30  H19 UNL     1      21.066  -0.638  54.252  1.00  0.00     0.174 HD
ENDBRANCH  17  28
ENDBRANCH   9  10
ENDBRANCH   8   9
TORSDOF 8
ENDMDL
MODEL 7
REMARK VINA RESULT:      -7.7      3.672      8.327
REMARK  8 active torsions:
REMARK  status: ('A' for Active; 'I' for Inactive)
REMARK    1  A    between atoms: C8_8  and  C9_9 
REMARK    2  A    between atoms: C9_9  and  N1_10 
REMARK    3  A    between atoms: C13_14  and  C14_15 
REMARK    4  A    between atoms: C15_16  and  C16_17 
REMARK    5  A    between atoms: C16_17  and  C17_18 
REMARK    6  A    between atoms: C17_18  and  C18_19 
REMARK    7  A    between atoms: C18_19  and  N2_21 
REMARK    8  A    between atoms: C20_23  and  N4_24 
ROOT
HETATM    1  C1  UNL     1      18.485  -0.154  52.421  1.00  0.00     0.018 C 
HETATM    2  C2  UNL     1      19.666  -0.188  52.628  1.00  0.00    -0.077 C 
HETATM    3  C3  UNL     1      21.110  -0.220  52.857  1.00  0.00     0.024 A 
HETATM    4  C4  UNL     1      21.486  -0.984  53.900  1.00  0.00     0.021 A 
HETATM    5  C5  UNL     1      22.831  -1.029  54.201  1.00  0.00     0.002 A 
HETATM    6  C6  UNL     1      23.681  -0.280  53.403  1.00  0.00     0.001 A 
HETATM    7  C7  UNL     1      23.234   0.475  52.359  1.00  0.00     0.010 A 
HETATM    8  C8  UNL     1      21.886   0.573  51.986  1.00  0.00    -0.021 A 
ENDROOT
BRANCH   8   9
HETATM    9  C9  UNL     1      21.234   1.257  50.859  1.00  0.00     0.170 C 
BRANCH   9  10
HETATM   10  N1  UNL     1      22.174   2.143  50.260  1.00  0.00    -0.336 N 
HETATM   11  C10 UNL     1      22.564   1.996  48.957  1.00  0.00     0.094 A 
HETATM   12  C11 UNL     1      23.530   2.935  48.650  1.00  0.00     0.035 A 
HETATM   13  C12 UNL     1      23.700   3.644  49.808  1.00  0.00     0.041 A 
HETATM   14  C13 UNL     1      24.541   4.743  50.039  1.00  0.00     0.090 A 
HETATM   15  C21 UNL     1      22.877   3.164  50.793  1.00  0.00     0.162 A 
HETATM   16  N3  UNL     1      24.507   5.304  51.286  1.00  0.00    -0.062 NA
HETATM   17  C20 UNL     1      23.695   4.819  52.247  1.00  0.00     0.722 A 
HETATM   18  N5  UNL     1      22.884   3.761  52.013  1.00  0.00    -0.044 NA
BRANCH  14  19
HETATM   19  C14 UNL     1      25.351   5.397  48.984  1.00  0.00     0.033 C 
HETATM   20  C15 UNL     1      26.611   5.587  49.228  1.00  0.00     0.002 C 
BRANCH  20  21
HETATM   21  C16 UNL     1      27.420   6.239  48.198  1.00  0.00     0.002 C 
BRANCH  21  22
HETATM   22  C17 UNL     1      28.657   5.814  48.049  1.00  0.00     0.022 C 
BRANCH  22  23
HETATM   23  C18 UNL     1      30.073   5.540  48.070  1.00  0.00    -0.004 C 
HETATM   24  C19 UNL     1      31.193   5.148  47.536  1.00  0.00     0.036 C 
BRANCH  23  25
HETATM   25  N2  UNL     1      30.462   5.896  49.417  1.00  0.00    -0.303 NA
HETATM   26  H16 UNL     1      30.511   6.073  50.468  1.00  0.00     0.124 HD
HETATM   27  H17 UNL     1      30.029   5.882  50.381  1.00  0.00     0.124 HD
ENDBRANCH  23  25
ENDBRANCH  22  23
ENDBRANCH  21  22
ENDBRANCH  20  21
ENDBRANCH  14  19
BRANCH  17  28
HETATM   28  N4  UNL     1      23.687   5.438  53.522  1.00  0.00    -0.231 N 
HETATM   29  H18 UNL     1      22.918   6.075  53.807  1.00  0.00     0.174 HD
HETATM   30  H19 UNL     1      24.496   5.229  54.174  1.00  0.00     0.174 HD
ENDBRANCH  17  28
ENDBRANCH   9  10
ENDBRANCH   8   9
TORSDOF 8
ENDMDL
MODEL 8
REMARK VINA RESULT:      -7.7      3.511      6.162
REMARK  8 active torsions:
REMARK  status: ('A' for Active; 'I' for Inactive)
REMARK    1  A    between atoms: C8_8  and  C9_9 
REMARK    2  A    between atoms: C9_9  and  N1_10 
REMARK    3  A    between atoms: C13_14  and  C14_15 
REMARK    4  A    between atoms: C15_16  and  C16_17 
REMARK    5  A    between atoms: C16_17  and  C17_18 
REMARK    6  A    between atoms: C17_18  and  C18_19 
REMARK    7  A    between atoms: C18_19  and  N2_21 
REMARK    8  A    between atoms: C20_23  and  N4_24 
ROOT
HETATM    1  C1  UNL     1      22.344  -0.925  54.596  1.00  0.00     0.018 C 
HETATM    2  C2  UNL     1      23.325  -0.593  53.991  1.00  0.00    -0.077 C 
HETATM    3  C3  UNL     1      24.506  -0.173  53.238  1.00  0.00     0.024 A 
HETATM    4  C4  UNL     1      25.579  -0.969  53.405  1.00  0.00     0.021 A 
HETATM    5  C5  UNL     1      26.742  -0.612  52.757  1.00  0.00     0.002 A 
HETATM    6  C6  UNL     1      26.707   0.542  51.989  1.00  0.00     0.001 A 
HETATM    7  C7  UNL     1      25.584   1.306  51.862  1.00  0.00     0.010 A 
HETATM    8  C8  UNL     1      24.363   1.011  52.485  1.00  0.00    -0.021 A 
ENDROOT
BRANCH   8   9
HETATM    9  C9  UNL     1      23.045   1.658  52.400  1.00  0.00     0.170 C 
BRANCH   9  10
HETATM   10  N1  UNL     1      22.989   2.420  51.198  1.00  0.00    -0.336 N 
HETATM   11  C10 UNL     1      22.611   1.855  50.011  1.00  0.00     0.094 A 
HETATM   12  C11 UNL     1      22.711   2.789  48.998  1.00  0.00     0.035 A 
HETATM   13  C12 UNL     1      23.158   3.924  49.618  1.00  0.00     0.041 A 
HETATM   14  C13 UNL     1      23.396   5.186  49.055  1.00  0.00     0.090 A 
HETATM   15  C21 UNL     1      23.331   3.704  50.960  1.00  0.00     0.162 A 
HETATM   16  N3  UNL     1      23.813   6.178  49.900  1.00  0.00    -0.062 NA
HETATM   17  C20 UNL     1      23.982   5.946  51.217  1.00  0.00     0.722 A 
HETATM   18  N5  UNL     1      23.746   4.726  51.752  1.00  0.00    -0.044 NA
BRANCH  14  19
HETATM   19  C14 UNL     1      23.099   5.529  47.644  1.00  0.00     0.033 C 
HETATM   20  C15 UNL     1      22.238   6.475  47.426  1.00  0.00     0.002 C 
BRANCH  20  21
HETATM   21  C16 UNL     1      21.930   6.817  46.037  1.00  0.00     0.002 C 
BRANCH  21  22
HETATM   22  C17 UNL     1      21.622   5.824  45.230  1.00  0.00     0.022 C 
BRANCH  22  23
HETATM   23  C18 UNL     1      21.175   4.623  44.569  1.00  0.00    -0.004 C 
HETATM   24  C19 UNL     1      20.433   3.961  43.730  1.00  0.00     0.036 C 
BRANCH  23  25
HETATM   25  N2  UNL     1      21.999   3.590  45.159  1.00  0.00    -0.303 NA
HETATM   26  H16 UNL     1      22.576   2.716  45.363  1.00  0.00     0.124 HD
HETATM   27  H17 UNL     1      22.395   2.653  44.874  1.00  0.00     0.124 HD
ENDBRANCH  23  25
ENDBRANCH  22  23
ENDBRANCH  21  22
ENDBRANCH  20  21
ENDBRANCH  14  19
BRANCH  17  28
HETATM   28  N4  UNL     1      24.408   7.006  52.056  1.00  0.00    -0.231 N 
HETATM   29  H18 UNL     1      24.899   7.836  51.669  1.00  0.00     0.174 HD
HETATM   30  H19 UNL     1      24.209   6.923  53.093  1.00  0.00     0.174 HD
ENDBRANCH  17  28
ENDBRANCH   9  10
ENDBRANCH   8   9
TORSDOF 8
ENDMDL
MODEL 9
REMARK VINA RESULT:      -7.6      3.932      7.427
REMARK  8 active torsions:
REMARK  status: ('A' for Active; 'I' for Inactive)
REMARK    1  A    between atoms: C8_8  and  C9_9 
REMARK    2  A    between atoms: C9_9  and  N1_10 
REMARK    3  A    between atoms: C13_14  and  C14_15 
REMARK    4  A    between atoms: C15_16  and  C16_17 
REMARK    5  A    between atoms: C16_17  and  C17_18 
REMARK    6  A    between atoms: C17_18  and  C18_19 
REMARK    7  A    between atoms: C18_19  and  N2_21 
REMARK    8  A    between atoms: C20_23  and  N4_24 
ROOT
HETATM    1  C1  UNL     1      22.287  -0.950  54.800  1.00  0.00     0.018 C 
HETATM    2  C2  UNL     1      23.260  -0.680  54.153  1.00  0.00    -0.077 C 
HETATM    3  C3  UNL     1      24.433  -0.333  53.350  1.00  0.00     0.024 A 
HETATM    4  C4  UNL     1      25.419  -1.249  53.391  1.00  0.00     0.021 A 
HETATM    5  C5  UNL     1      26.573  -0.970  52.690  1.00  0.00     0.002 A 
HETATM    6  C6  UNL     1      26.620   0.234  52.005  1.00  0.00     0.001 A 
HETATM    7  C7  UNL     1      25.582   1.119  52.005  1.00  0.00     0.010 A 
HETATM    8  C8  UNL     1      24.376   0.911  52.688  1.00  0.00    -0.021 A 
ENDROOT
BRANCH   8   9
HETATM    9  C9  UNL     1      23.135   1.698  52.736  1.00  0.00     0.170 C 
BRANCH   9  10
HETATM   10  N1  UNL     1      23.363   2.946  52.090  1.00  0.00    -0.336 N 
HETATM   11  C10 UNL     1      23.741   4.056  52.794  1.00  0.00     0.094 A 
HETATM   12  C11 UNL     1      23.825   5.142  51.944  1.00  0.00     0.035 A 
HETATM   13  C12 UNL     1      23.487   4.643  50.715  1.00  0.00     0.041 A 
HETATM   14  C13 UNL     1      23.447   5.315  49.484  1.00  0.00     0.090 A 
HETATM   15  C21 UNL     1      23.203   3.305  50.798  1.00  0.00     0.162 A 
HETATM   16  N3  UNL     1      23.107   4.581  48.382  1.00  0.00    -0.062 NA
HETATM   17  C20 UNL     1      22.827   3.266  48.480  1.00  0.00     0.722 A 
HETATM   18  N5  UNL     1      22.872   2.625  49.671  1.00  0.00    -0.044 NA
BRANCH  14  19
HETATM   19  C14 UNL     1      23.875   6.722  49.300  1.00  0.00     0.033 C 
HETATM   20  C15 UNL     1      25.004   6.931  48.696  1.00  0.00     0.002 C 
BRANCH  20  21
HETATM   21  C16 UNL     1      25.441   8.316  48.515  1.00  0.00     0.002 C 
BRANCH  21  22
HETATM   22  C17 UNL     1      26.635   8.631  48.973  1.00  0.00     0.022 C 
BRANCH  22  23
HETATM   23  C18 UNL     1      27.817   9.198  49.574  1.00  0.00    -0.004 C 
HETATM   24  C19 UNL     1      29.045   9.629  49.551  1.00  0.00     0.036 C 
BRANCH  23  25
HETATM   25  N2  UNL     1      27.426   9.399  50.953  1.00  0.00    -0.303 NA
HETATM   26  H16 UNL     1      26.911   9.611  51.863  1.00  0.00     0.124 HD
HETATM   27  H17 UNL     1      26.564   9.706  51.480  1.00  0.00     0.124 HD
ENDBRANCH  23  25
ENDBRANCH  22  23
ENDBRANCH  21  22
ENDBRANCH  20  21
ENDBRANCH  14  19
BRANCH  17  28
HETATM   28  N4  UNL     1      22.487   2.543  47.309  1.00  0.00    -0.231 N 
HETATM   29  H18 UNL     1      22.612   2.957  46.365  1.00  0.00     0.174 HD
HETATM   30  H19 UNL     1      22.099   1.564  47.431  1.00  0.00     0.174 HD
ENDBRANCH  17  28
ENDBRANCH   9  10
ENDBRANCH   8   9
TORSDOF 8
ENDMDL
