MODEL 1
REMARK VINA RESULT:      -8.8      0.000      0.000
REMARK  7 active torsions:
REMARK  status: ('A' for Active; 'I' for Inactive)
REMARK    1  A    between atoms: O1_2  and  C2_3 
REMARK    2  A    between atoms: C6_7  and  N1_9 
REMARK    3  A    between atoms: N1_9  and  C7_10 
REMARK    4  A    between atoms: C7_10  and  C8_11 
REMARK    5  A    between atoms: C14_19  and  C15_20 
REMARK    6  A    between atoms: C15_20  and  N3_21 
REMARK       I    between atoms: N3_21  and  C16_22 
REMARK    7  A    between atoms: C16_22  and  C17_24 
ROOT
HETATM    1  C2  UNL     1      26.003   0.247  52.708  1.00  0.00     0.072 A 
HETATM    2  C3  UNL     1      26.882   1.044  52.082  1.00  0.00     0.015 A 
HETATM    3  C4  UNL     1      26.467   2.342  51.523  1.00  0.00     0.072 A 
HETATM    4  C5  UNL     1      25.029   2.620  51.740  1.00  0.00    -0.016 A 
HETATM    5  C6  UNL     1      24.547   3.763  51.279  1.00  0.00     0.106 C 
HETATM    6 CL1  UNL     1      22.894   4.261  51.437  1.00  0.00    -0.064 Cl
HETATM    7  C13 UNL     1      24.114   1.721  52.427  1.00  0.00     0.022 A 
HETATM    8  C14 UNL     1      24.591   0.568  52.897  1.00  0.00    -0.007 A 
ENDROOT
BRANCH   5   9
HETATM    9  N1  UNL     1      25.287   4.743  50.595  1.00  0.00    -0.376 N 
HETATM   10  H7  UNL     1      25.921   4.980  51.394  1.00  0.00     0.160 HD
BRANCH   9  11
HETATM   11  C7  UNL     1      25.243   5.288  49.240  1.00  0.00     0.159 C 
BRANCH  11  12
HETATM   12  C8  UNL     1      26.575   5.800  48.860  1.00  0.00    -0.004 C 
HETATM   13  C9  UNL     1      27.539   4.920  48.630  1.00  0.00     0.124 C 
HETATM   14  F1  UNL     1      27.391   3.585  48.718  1.00  0.00    -0.206 F 
HETATM   15  C10 UNL     1      28.840   5.464  48.259  1.00  0.00     0.076 C 
HETATM   16  C11 UNL     1      29.025   6.755  48.279  1.00  0.00     0.082 C 
HETATM   17  N2  UNL     1      28.180   7.595  48.664  1.00  0.00    -0.283 NA
HETATM   18  C12 UNL     1      26.751   7.273  48.760  1.00  0.00     0.188 C 
ENDBRANCH  11  12
ENDBRANCH   9  11
ENDBRANCH   5   9
BRANCH   8  19
HETATM   19  C15 UNL     1      23.688  -0.377  53.604  1.00  0.00     0.164 C 
BRANCH  19  20
HETATM   20  N3  UNL     1      22.283  -0.020  53.382  1.00  0.00    -0.355 N 
HETATM   21  C16 UNL     1      21.375  -0.782  54.146  1.00  0.00     0.242 C 
HETATM   22  O2  UNL     1      21.573  -1.713  54.980  1.00  0.00    -0.271 OA
HETATM   23  H16 UNL     1      21.890   0.708  52.747  1.00  0.00     0.162 HD
BRANCH  21  24
HETATM   24  C17 UNL     1      19.904  -0.517  54.013  1.00  0.00     0.203 C 
HETATM   25  C18 UNL     1      19.655  -0.061  52.582  1.00  0.00     0.215 C 
HETATM   26  O3  UNL     1      18.353  -0.524  52.341  1.00  0.00    -0.301 OA
HETATM   27  C19 UNL     1      18.070  -1.617  53.147  1.00  0.00     0.361 C 
HETATM   28  O4  UNL     1      17.034  -2.330  53.109  1.00  0.00    -0.238 OA
HETATM   29  N4  UNL     1      19.180  -1.774  54.023  1.00  0.00    -0.322 N 
HETATM   30  H20 UNL     1      19.376  -2.668  54.549  1.00  0.00     0.165 HD
ENDBRANCH  21  24
ENDBRANCH  19  20
ENDBRANCH   8  19
BRANCH   1  31
HETATM   31  O1  UNL     1      26.437  -0.967  53.220  1.00  0.00    -0.356 OA
HETATM   32  C1  UNL     1      26.852  -2.013  52.384  1.00  0.00     0.210 C 
ENDBRANCH   1  31
TORSDOF 7
ENDMDL
MODEL 2
REMARK VINA RESULT:      -8.4      3.444      5.519
REMARK  7 active torsions:
REMARK  status: ('A' for Active; 'I' for Inactive)
REMARK    1  A    between atoms: O1_2  and  C2_3 
REMARK    2  A    between atoms: C6_7  and  N1_9 
REMARK    3  A    between atoms: N1_9  and  C7_10 
REMARK    4  A    between atoms: C7_10  and  C8_11 
REMARK    5  A    between atoms: C14_19  and  C15_20 
REMARK    6  A    between atoms: C15_20  and  N3_21 
REMARK       I    between atoms: N3_21  and  C16_22 
REMARK    7  A    between atoms: C16_22  and  C17_24 
ROOT
HETATM    1  C2  UNL     1      21.534   0.195  52.751  1.00  0.00     0.072 A 
HETATM    2  C3  UNL     1      22.624   0.391  53.509  1.00  0.00     0.015 A 
HETATM    3  C4  UNL     1      23.742   1.222  53.033  1.00  0.00     0.072 A 
HETATM    4  C5  UNL     1      23.503   1.773  51.680  1.00  0.00    -0.016 A 
HETATM    5  C6  UNL     1      24.445   2.538  51.151  1.00  0.00     0.106 C 
HETATM    6 CL1  UNL     1      24.343   3.271  49.583  1.00  0.00    -0.064 Cl
HETATM    7  C13 UNL     1      22.301   1.531  50.895  1.00  0.00     0.022 A 
HETATM    8  C14 UNL     1      21.345   0.762  51.419  1.00  0.00    -0.007 A 
ENDROOT
BRANCH   5   9
HETATM    9  N1  UNL     1      25.662   2.874  51.767  1.00  0.00    -0.376 N 
HETATM   10  H7  UNL     1      25.245   3.478  52.514  1.00  0.00     0.160 HD
BRANCH   9  11
HETATM   11  C7  UNL     1      27.060   2.533  51.510  1.00  0.00     0.159 C 
BRANCH  11  12
HETATM   12  C8  UNL     1      27.581   1.688  52.604  1.00  0.00    -0.004 C 
HETATM   13  C9  UNL     1      27.265   0.401  52.601  1.00  0.00     0.124 C 
HETATM   14  F1  UNL     1      26.500  -0.196  51.669  1.00  0.00    -0.206 F 
HETATM   15  C10 UNL     1      27.798  -0.400  53.698  1.00  0.00     0.076 C 
HETATM   16  C11 UNL     1      28.446   0.188  54.665  1.00  0.00     0.082 C 
HETATM   17  N2  UNL     1      28.603   1.424  54.777  1.00  0.00    -0.283 NA
HETATM   18  C12 UNL     1      28.428   2.337  53.639  1.00  0.00     0.188 C 
ENDBRANCH  11  12
ENDBRANCH   9  11
ENDBRANCH   5   9
BRANCH   8  19
HETATM   19  C15 UNL     1      20.103   0.491  50.651  1.00  0.00     0.164 C 
BRANCH  19  20
HETATM   20  N3  UNL     1      19.031   1.407  51.055  1.00  0.00    -0.355 N 
HETATM   21  C16 UNL     1      18.576   2.244  50.015  1.00  0.00     0.242 C 
HETATM   22  O2  UNL     1      18.940   2.333  48.806  1.00  0.00    -0.271 OA
HETATM   23  H16 UNL     1      18.580   1.507  51.990  1.00  0.00     0.162 HD
BRANCH  21  24
HETATM   24  C17 UNL     1      17.480   3.230  50.295  1.00  0.00     0.203 C 
HETATM   25  C18 UNL     1      16.164   2.466  50.253  1.00  0.00     0.215 C 
HETATM   26  O3  UNL     1      15.373   3.178  51.166  1.00  0.00    -0.301 OA
HETATM   27  C19 UNL     1      16.172   3.821  52.100  1.00  0.00     0.361 C 
HETATM   28  O4  UNL     1      15.779   4.458  53.113  1.00  0.00    -0.238 OA
HETATM   29  N4  UNL     1      17.519   3.619  51.692  1.00  0.00    -0.322 N 
HETATM   30  H20 UNL     1      18.343   3.747  52.340  1.00  0.00     0.165 HD
ENDBRANCH  21  24
ENDBRANCH  19  20
ENDBRANCH   8  19
BRANCH   1  31
HETATM   31  O1  UNL     1      20.504  -0.595  53.241  1.00  0.00    -0.356 OA
HETATM   32  C1  UNL     1      20.723  -1.559  54.235  1.00  0.00     0.210 C 
ENDBRANCH   1  31
TORSDOF 7
ENDMDL
MODEL 3
REMARK VINA RESULT:      -8.4      5.237      9.993
REMARK  7 active torsions:
REMARK  status: ('A' for Active; 'I' for Inactive)
REMARK    1  A    between atoms: O1_2  and  C2_3 
REMARK    2  A    between atoms: C6_7  and  N1_9 
REMARK    3  A    between atoms: N1_9  and  C7_10 
REMARK    4  A    between atoms: C7_10  and  C8_11 
REMARK    5  A    between atoms: C14_19  and  C15_20 
REMARK    6  A    between atoms: C15_20  and  N3_21 
REMARK       I    between atoms: N3_21  and  C16_22 
REMARK    7  A    between atoms: C16_22  and  C17_24 
ROOT
HETATM    1  C2  UNL     1      26.847   5.000  49.042  1.00  0.00     0.072 A 
HETATM    2  C3  UNL     1      27.033   3.678  49.176  1.00  0.00     0.015 A 
HETATM    3  C4  UNL     1      26.151   2.870  50.034  1.00  0.00     0.072 A 
HETATM    4  C5  UNL     1      25.097   3.679  50.686  1.00  0.00    -0.016 A 
HETATM    5  C6  UNL     1      24.244   3.053  51.482  1.00  0.00     0.106 C 
HETATM    6 CL1  UNL     1      22.947   3.831  52.330  1.00  0.00    -0.064 Cl
HETATM    7  C13 UNL     1      24.936   5.115  50.509  1.00  0.00     0.022 A 
HETATM    8  C14 UNL     1      25.790   5.754  49.709  1.00  0.00    -0.007 A 
ENDROOT
BRANCH   5   9
HETATM    9  N1  UNL     1      24.253   1.676  51.763  1.00  0.00    -0.376 N 
HETATM   10  H7  UNL     1      23.987   1.365  50.799  1.00  0.00     0.160 HD
BRANCH   9  11
HETATM   11  C7  UNL     1      24.529   0.886  52.961  1.00  0.00     0.159 C 
BRANCH  11  12
HETATM   12  C8  UNL     1      25.986   0.827  53.199  1.00  0.00    -0.004 C 
HETATM   13  C9  UNL     1      26.628  -0.285  52.870  1.00  0.00     0.124 C 
HETATM   14  F1  UNL     1      26.044  -1.372  52.332  1.00  0.00    -0.206 F 
HETATM   15  C10 UNL     1      28.064  -0.304  53.122  1.00  0.00     0.076 C 
HETATM   16  C11 UNL     1      28.619   0.699  53.744  1.00  0.00     0.082 C 
HETATM   17  N2  UNL     1      28.003   1.679  54.220  1.00  0.00    -0.283 NA
HETATM   18  C12 UNL     1      26.641   2.023  53.792  1.00  0.00     0.188 C 
ENDBRANCH  11  12
ENDBRANCH   9  11
ENDBRANCH   5   9
BRANCH   8  19
HETATM   19  C15 UNL     1      25.660   7.220  49.502  1.00  0.00     0.164 C 
BRANCH  19  20
HETATM   20  N3  UNL     1      26.791   7.933  50.105  1.00  0.00    -0.355 N 
HETATM   21  C16 UNL     1      27.448   8.810  49.218  1.00  0.00     0.242 C 
HETATM   22  O2  UNL     1      27.224   9.078  48.002  1.00  0.00    -0.271 OA
HETATM   23  H16 UNL     1      27.155   7.869  51.081  1.00  0.00     0.162 HD
BRANCH  21  24
HETATM   24  C17 UNL     1      28.625   9.602  49.708  1.00  0.00     0.203 C 
HETATM   25  C18 UNL     1      29.853   9.092  48.966  1.00  0.00     0.215 C 
HETATM   26  O3  UNL     1      30.662  10.236  48.901  1.00  0.00    -0.301 OA
HETATM   27  C19 UNL     1      29.884  11.382  48.956  1.00  0.00     0.361 C 
HETATM   28  O4  UNL     1      30.284  12.568  48.818  1.00  0.00    -0.238 OA
HETATM   29  N4  UNL     1      28.548  10.957  49.197  1.00  0.00    -0.322 N 
HETATM   30  H20 UNL     1      27.708  11.569  49.014  1.00  0.00     0.165 HD
ENDBRANCH  21  24
ENDBRANCH  19  20
ENDBRANCH   8  19
BRANCH   1  31
HETATM   31  O1  UNL     1      27.703   5.723  48.222  1.00  0.00    -0.356 OA
HETATM   32  C1  UNL     1      29.084   5.486  48.208  1.00  0.00     0.210 C 
ENDBRANCH   1  31
TORSDOF 7
ENDMDL
MODEL 4
REMARK VINA RESULT:      -8.3      4.923      7.539
REMARK  7 active torsions:
REMARK  status: ('A' for Active; 'I' for Inactive)
REMARK    1  A    between atoms: O1_2  and  C2_3 
REMARK    2  A    between atoms: C6_7  and  N1_9 
REMARK    3  A    between atoms: N1_9  and  C7_10 
REMARK    4  A    between atoms: C7_10  and  C8_11 
REMARK    5  A    between atoms: C14_19  and  C15_20 
REMARK    6  A    between atoms: C15_20  and  N3_21 
REMARK       I    between atoms: N3_21  and  C16_22 
REMARK    7  A    between atoms: C16_22  and  C17_24 
ROOT
HETATM    1  C2  UNL     1      26.001   6.160  49.129  1.00  0.00     0.072 A 
HETATM    2  C3  UNL     1      26.455   7.331  48.659  1.00  0.00     0.015 A 
HETATM    3  C4  UNL     1      27.811   7.452  48.099  1.00  0.00     0.072 A 
HETATM    4  C5  UNL     1      28.553   6.171  48.130  1.00  0.00    -0.016 A 
HETATM    5  C6  UNL     1      29.787   6.163  47.649  1.00  0.00     0.106 C 
HETATM    6 CL1  UNL     1      30.807   4.762  47.601  1.00  0.00    -0.064 Cl
HETATM    7  C13 UNL     1      28.016   4.923  48.652  1.00  0.00     0.022 A 
HETATM    8  C14 UNL     1      26.774   4.921  49.137  1.00  0.00    -0.007 A 
ENDROOT
BRANCH   5   9
HETATM    9  N1  UNL     1      30.458   7.273  47.109  1.00  0.00    -0.376 N 
HETATM   10  H7  UNL     1      29.757   7.471  46.356  1.00  0.00     0.160 HD
BRANCH   9  11
HETATM   11  C7  UNL     1      31.702   7.966  47.434  1.00  0.00     0.159 C 
BRANCH  11  12
HETATM   12  C8  UNL     1      31.426   9.389  47.718  1.00  0.00    -0.004 C 
HETATM   13  C9  UNL     1      30.853   9.696  48.873  1.00  0.00     0.124 C 
HETATM   14  F1  UNL     1      30.502   8.798  49.813  1.00  0.00    -0.206 F 
HETATM   15  C10 UNL     1      30.597  11.111  49.114  1.00  0.00     0.076 C 
HETATM   16  C11 UNL     1      30.830  11.976  48.167  1.00  0.00     0.082 C 
HETATM   17  N2  UNL     1      31.204  11.688  47.008  1.00  0.00    -0.283 NA
HETATM   18  C12 UNL     1      31.811  10.390  46.687  1.00  0.00     0.188 C 
ENDBRANCH  11  12
ENDBRANCH   9  11
ENDBRANCH   5   9
BRANCH   8  19
HETATM   19  C15 UNL     1      26.189   3.667  49.679  1.00  0.00     0.164 C 
BRANCH  19  20
HETATM   20  N3  UNL     1      26.863   3.274  50.922  1.00  0.00    -0.355 N 
HETATM   21  C16 UNL     1      26.117   2.375  51.712  1.00  0.00     0.242 C 
HETATM   22  O2  UNL     1      24.976   1.860  51.526  1.00  0.00    -0.271 OA
HETATM   23  H16 UNL     1      27.797   3.571  51.277  1.00  0.00     0.162 HD
BRANCH  21  24
HETATM   24  C17 UNL     1      26.692   1.892  53.012  1.00  0.00     0.203 C 
HETATM   25  C18 UNL     1      27.500   0.637  52.710  1.00  0.00     0.215 C 
HETATM   26  O3  UNL     1      28.504   0.684  53.687  1.00  0.00    -0.301 OA
HETATM   27  C19 UNL     1      28.729   1.992  54.089  1.00  0.00     0.361 C 
HETATM   28  O4  UNL     1      29.629   2.392  54.873  1.00  0.00    -0.238 OA
HETATM   29  N4  UNL     1      27.745   2.791  53.443  1.00  0.00    -0.322 N 
HETATM   30  H20 UNL     1      27.833   3.837  53.335  1.00  0.00     0.165 HD
ENDBRANCH  21  24
ENDBRANCH  19  20
ENDBRANCH   8  19
BRANCH   1  31
HETATM   31  O1  UNL     1      24.715   6.092  49.647  1.00  0.00    -0.356 OA
HETATM   32  C1  UNL     1      24.370   6.729  50.847  1.00  0.00     0.210 C 
ENDBRANCH   1  31
TORSDOF 7
ENDMDL
MODEL 5
REMARK VINA RESULT:      -8.2      5.071     10.696
REMARK  7 active torsions:
REMARK  status: ('A' for Active; 'I' for Inactive)
REMARK    1  A    between atoms: O1_2  and  C2_3 
REMARK    2  A    between atoms: C6_7  and  N1_9 
REMARK    3  A    between atoms: N1_9  and  C7_10 
REMARK    4  A    between atoms: C7_10  and  C8_11 
REMARK    5  A    between atoms: C14_19  and  C15_20 
REMARK    6  A    between atoms: C15_20  and  N3_21 
REMARK       I    between atoms: N3_21  and  C16_22 
REMARK    7  A    between atoms: C16_22  and  C17_24 
ROOT
HETATM    1  C2  UNL     1      26.786   5.216  49.012  1.00  0.00     0.072 A 
HETATM    2  C3  UNL     1      26.816   3.879  49.118  1.00  0.00     0.015 A 
HETATM    3  C4  UNL     1      25.833   3.159  49.945  1.00  0.00     0.072 A 
HETATM    4  C5  UNL     1      24.868   4.070  50.600  1.00  0.00    -0.016 A 
HETATM    5  C6  UNL     1      23.935   3.530  51.369  1.00  0.00     0.106 C 
HETATM    6 CL1  UNL     1      22.721   4.434  52.215  1.00  0.00    -0.064 Cl
HETATM    7  C13 UNL     1      24.876   5.518  50.453  1.00  0.00     0.022 A 
HETATM    8  C14 UNL     1      25.810   6.072  49.680  1.00  0.00    -0.007 A 
ENDROOT
BRANCH   5   9
HETATM    9  N1  UNL     1      23.782   2.156  51.619  1.00  0.00    -0.376 N 
HETATM   10  H7  UNL     1      23.191   1.955  50.778  1.00  0.00     0.160 HD
BRANCH   9  11
HETATM   11  C7  UNL     1      24.255   1.255  52.667  1.00  0.00     0.159 C 
BRANCH  11  12
HETATM   12  C8  UNL     1      23.123   0.478  53.212  1.00  0.00    -0.004 C 
HETATM   13  C9  UNL     1      23.394  -0.534  54.024  1.00  0.00     0.124 C 
HETATM   14  F1  UNL     1      24.634  -0.908  54.390  1.00  0.00    -0.206 F 
HETATM   15  C10 UNL     1      22.250  -1.277  54.540  1.00  0.00     0.076 C 
HETATM   16  C11 UNL     1      21.053  -0.994  54.105  1.00  0.00     0.082 C 
HETATM   17  N2  UNL     1      20.793  -0.162  53.207  1.00  0.00    -0.283 NA
HETATM   18  C12 UNL     1      21.748   0.882  52.815  1.00  0.00     0.188 C 
ENDBRANCH  11  12
ENDBRANCH   9  11
ENDBRANCH   5   9
BRANCH   8  19
HETATM   19  C15 UNL     1      25.852   7.547  49.505  1.00  0.00     0.164 C 
BRANCH  19  20
HETATM   20  N3  UNL     1      27.089   8.103  50.065  1.00  0.00    -0.355 N 
HETATM   21  C16 UNL     1      27.793   8.937  49.173  1.00  0.00     0.242 C 
HETATM   22  O2  UNL     1      27.535   9.280  47.982  1.00  0.00    -0.271 OA
HETATM   23  H16 UNL     1      27.495   7.957  51.015  1.00  0.00     0.162 HD
BRANCH  21  24
HETATM   24  C17 UNL     1      29.078   9.571  49.621  1.00  0.00     0.203 C 
HETATM   25  C18 UNL     1      30.166   9.113  48.659  1.00  0.00     0.215 C 
HETATM   26  O3  UNL     1      31.048  10.203  48.662  1.00  0.00    -0.301 OA
HETATM   27  C19 UNL     1      30.374  11.371  48.988  1.00  0.00     0.361 C 
HETATM   28  O4  UNL     1      30.846  12.538  48.979  1.00  0.00    -0.238 OA
HETATM   29  N4  UNL     1      29.047  10.992  49.332  1.00  0.00    -0.322 N 
HETATM   30  H20 UNL     1      28.241  11.673  49.353  1.00  0.00     0.165 HD
ENDBRANCH  21  24
ENDBRANCH  19  20
ENDBRANCH   8  19
BRANCH   1  31
HETATM   31  O1  UNL     1      27.732   5.852  48.221  1.00  0.00    -0.356 OA
HETATM   32  C1  UNL     1      29.088   5.502  48.268  1.00  0.00     0.210 C 
ENDBRANCH   1  31
TORSDOF 7
ENDMDL
MODEL 6
REMARK VINA RESULT:      -8.1      4.759      7.306
REMARK  7 active torsions:
REMARK  status: ('A' for Active; 'I' for Inactive)
REMARK    1  A    between atoms: O1_2  and  C2_3 
REMARK    2  A    between atoms: C6_7  and  N1_9 
REMARK    3  A    between atoms: N1_9  and  C7_10 
REMARK    4  A    between atoms: C7_10  and  C8_11 
REMARK    5  A    between atoms: C14_19  and  C15_20 
REMARK    6  A    between atoms: C15_20  and  N3_21 
REMARK       I    between atoms: N3_21  and  C16_22 
REMARK    7  A    between atoms: C16_22  and  C17_24 
ROOT
HETATM    1  C2  UNL     1      25.900   5.815  48.985  1.00  0.00     0.072 A 
HETATM    2  C3  UNL     1      26.140   7.036  48.482  1.00  0.00     0.015 A 
HETATM    3  C4  UNL     1      27.466   7.391  47.949  1.00  0.00     0.072 A 
HETATM    4  C5  UNL     1      28.432   6.273  48.042  1.00  0.00    -0.016 A 
HETATM    5  C6  UNL     1      29.659   6.481  47.589  1.00  0.00     0.106 C 
HETATM    6 CL1  UNL     1      30.924   5.295  47.614  1.00  0.00    -0.064 Cl
HETATM    7  C13 UNL     1      28.122   4.964  48.597  1.00  0.00     0.022 A 
HETATM    8  C14 UNL     1      26.890   4.745  49.055  1.00  0.00    -0.007 A 
ENDROOT
BRANCH   5   9
HETATM    9  N1  UNL     1      30.126   7.679  47.023  1.00  0.00    -0.376 N 
HETATM   10  H7  UNL     1      29.828   7.463  46.043  1.00  0.00     0.160 HD
BRANCH   9  11
HETATM   11  C7  UNL     1      30.801   8.860  47.558  1.00  0.00     0.159 C 
BRANCH  11  12
HETATM   12  C8  UNL     1      32.263   8.652  47.544  1.00  0.00    -0.004 C 
HETATM   13  C9  UNL     1      32.821   8.078  48.600  1.00  0.00     0.124 C 
HETATM   14  F1  UNL     1      32.148   7.667  49.691  1.00  0.00    -0.206 F 
HETATM   15  C10 UNL     1      34.267   7.891  48.549  1.00  0.00     0.076 C 
HETATM   16  C11 UNL     1      34.942   8.385  47.548  1.00  0.00     0.082 C 
HETATM   17  N2  UNL     1      34.458   9.084  46.630  1.00  0.00    -0.283 NA
HETATM   18  C12 UNL     1      33.018   9.102  46.344  1.00  0.00     0.188 C 
ENDBRANCH  11  12
ENDBRANCH   9  11
ENDBRANCH   5   9
BRANCH   8  19
HETATM   19  C15 UNL     1      26.533   3.421  49.629  1.00  0.00     0.164 C 
BRANCH  19  20
HETATM   20  N3  UNL     1      26.750   3.408  51.080  1.00  0.00    -0.355 N 
HETATM   21  C16 UNL     1      26.716   2.118  51.648  1.00  0.00     0.242 C 
HETATM   22  O2  UNL     1      26.530   0.985  51.117  1.00  0.00    -0.271 OA
HETATM   23  H16 UNL     1      26.920   4.215  51.719  1.00  0.00     0.162 HD
BRANCH  21  24
HETATM   24  C17 UNL     1      26.922   1.963  53.127  1.00  0.00     0.203 C 
HETATM   25  C18 UNL     1      25.742   1.165  53.666  1.00  0.00     0.215 C 
HETATM   26  O3  UNL     1      26.312   0.481  54.749  1.00  0.00    -0.301 OA
HETATM   27  C19 UNL     1      27.675   0.316  54.555  1.00  0.00     0.361 C 
HETATM   28  O4  UNL     1      28.463  -0.342  55.284  1.00  0.00    -0.238 OA
HETATM   29  N4  UNL     1      28.008   1.034  53.373  1.00  0.00    -0.322 N 
HETATM   30  H20 UNL     1      28.897   0.867  52.829  1.00  0.00     0.165 HD
ENDBRANCH  21  24
ENDBRANCH  19  20
ENDBRANCH   8  19
BRANCH   1  31
HETATM   31  O1  UNL     1      24.635   5.525  49.477  1.00  0.00    -0.356 OA
HETATM   32  C1  UNL     1      24.151   6.107  50.656  1.00  0.00     0.210 C 
ENDBRANCH   1  31
TORSDOF 7
ENDMDL
MODEL 7
REMARK VINA RESULT:      -8.1      3.934      9.287
REMARK  7 active torsions:
REMARK  status: ('A' for Active; 'I' for Inactive)
REMARK    1  A    between atoms: O1_2  and  C2_3 
REMARK    2  A    between atoms: C6_7  and  N1_9 
REMARK    3  A    between atoms: N1_9  and  C7_10 
REMARK    4  A    between atoms: C7_10  and  C8_11 
REMARK    5  A    between atoms: C14_19  and  C15_20 
REMARK    6  A    between atoms: C15_20  and  N3_21 
REMARK       I    between atoms: N3_21  and  C16_22 
REMARK    7  A    between atoms: C16_22  and  C17_24 
ROOT
HETATM    1  C2  UNL     1      26.490   1.740  52.703  1.00  0.00     0.072 A 
HETATM    2  C3  UNL     1      25.842   1.000  53.617  1.00  0.00     0.015 A 
HETATM    3  C4  UNL     1      24.441   0.597  53.414  1.00  0.00     0.072 A 
HETATM    4  C5  UNL     1      23.887   1.097  52.135  1.00  0.00    -0.016 A 
HETATM    5  C6  UNL     1      22.631   0.792  51.847  1.00  0.00     0.106 C 
HETATM    6 CL1  UNL     1      21.812   1.286  50.401  1.00  0.00    -0.064 Cl
HETATM    7  C13 UNL     1      24.631   1.898  51.174  1.00  0.00     0.022 A 
HETATM    8  C14 UNL     1      25.897   2.209  51.454  1.00  0.00    -0.007 A 
ENDROOT
BRANCH   5   9
HETATM    9  N1  UNL     1      21.772   0.030  52.658  1.00  0.00    -0.376 N 
HETATM   10  H7  UNL     1      22.172  -0.902  52.398  1.00  0.00     0.160 HD
BRANCH   9  11
HETATM   11  C7  UNL     1      20.680   0.359  53.571  1.00  0.00     0.159 C 
BRANCH  11  12
HETATM   12  C8  UNL     1      19.455  -0.365  53.172  1.00  0.00    -0.004 C 
HETATM   13  C9  UNL     1      18.678   0.185  52.250  1.00  0.00     0.124 C 
HETATM   14  F1  UNL     1      18.925   1.363  51.647  1.00  0.00    -0.206 F 
HETATM   15  C10 UNL     1      17.479  -0.560  51.884  1.00  0.00     0.076 C 
HETATM   16  C11 UNL     1      17.173  -1.645  52.540  1.00  0.00     0.082 C 
HETATM   17  N2  UNL     1      17.798  -2.086  53.531  1.00  0.00    -0.283 NA
HETATM   18  C12 UNL     1      19.173  -1.668  53.831  1.00  0.00     0.188 C 
ENDBRANCH  11  12
ENDBRANCH   9  11
ENDBRANCH   5   9
BRANCH   8  19
HETATM   19  C15 UNL     1      26.691   3.025  50.500  1.00  0.00     0.164 C 
BRANCH  19  20
HETATM   20  N3  UNL     1      26.162   4.391  50.418  1.00  0.00    -0.355 N 
HETATM   21  C16 UNL     1      26.681   5.138  49.340  1.00  0.00     0.242 C 
HETATM   22  O2  UNL     1      27.519   4.825  48.444  1.00  0.00    -0.271 OA
HETATM   23  H16 UNL     1      25.470   4.859  51.043  1.00  0.00     0.162 HD
BRANCH  21  24
HETATM   24  C17 UNL     1      26.223   6.553  49.141  1.00  0.00     0.203 C 
HETATM   25  C18 UNL     1      25.137   6.825  50.174  1.00  0.00     0.215 C 
HETATM   26  O3  UNL     1      25.290   8.198  50.416  1.00  0.00    -0.301 OA
HETATM   27  C19 UNL     1      26.591   8.595  50.148  1.00  0.00     0.361 C 
HETATM   28  O4  UNL     1      27.087   9.734  50.358  1.00  0.00    -0.238 OA
HETATM   29  N4  UNL     1      27.255   7.467  49.592  1.00  0.00    -0.322 N 
HETATM   30  H20 UNL     1      28.306   7.381  49.549  1.00  0.00     0.165 HD
ENDBRANCH  21  24
ENDBRANCH  19  20
ENDBRANCH   8  19
BRANCH   1  31
HETATM   31  O1  UNL     1      27.811   2.096  52.936  1.00  0.00    -0.356 OA
HETATM   32  C1  UNL     1      28.644   1.336  53.768  1.00  0.00     0.210 C 
ENDBRANCH   1  31
TORSDOF 7
ENDMDL
MODEL 8
REMARK VINA RESULT:      -8.0      4.090      6.047
REMARK  7 active torsions:
REMARK  status: ('A' for Active; 'I' for Inactive)
REMARK    1  A    between atoms: O1_2  and  C2_3 
REMARK    2  A    between atoms: C6_7  and  N1_9 
REMARK    3  A    between atoms: N1_9  and  C7_10 
REMARK    4  A    between atoms: C7_10  and  C8_11 
REMARK    5  A    between atoms: C14_19  and  C15_20 
REMARK    6  A    between atoms: C15_20  and  N3_21 
REMARK       I    between atoms: N3_21  and  C16_22 
REMARK    7  A    between atoms: C16_22  and  C17_24 
ROOT
HETATM    1  C2  UNL     1      21.521   0.111  52.650  1.00  0.00     0.072 A 
HETATM    2  C3  UNL     1      22.610   0.286  53.415  1.00  0.00     0.015 A 
HETATM    3  C4  UNL     1      23.721   1.145  52.971  1.00  0.00     0.072 A 
HETATM    4  C5  UNL     1      23.476   1.747  51.641  1.00  0.00    -0.016 A 
HETATM    5  C6  UNL     1      24.412   2.540  51.143  1.00  0.00     0.106 C 
HETATM    6 CL1  UNL     1      24.303   3.334  49.606  1.00  0.00    -0.064 Cl
HETATM    7  C13 UNL     1      22.276   1.526  50.848  1.00  0.00     0.022 A 
HETATM    8  C14 UNL     1      21.327   0.730  51.342  1.00  0.00    -0.007 A 
ENDROOT
BRANCH   5   9
HETATM    9  N1  UNL     1      25.626   2.862  51.773  1.00  0.00    -0.376 N 
HETATM   10  H7  UNL     1      25.205   3.436  52.540  1.00  0.00     0.160 HD
BRANCH   9  11
HETATM   11  C7  UNL     1      27.026   2.539  51.504  1.00  0.00     0.159 C 
BRANCH  11  12
HETATM   12  C8  UNL     1      27.563   1.692  52.589  1.00  0.00    -0.004 C 
HETATM   13  C9  UNL     1      27.266   0.401  52.577  1.00  0.00     0.124 C 
HETATM   14  F1  UNL     1      26.505  -0.199  51.642  1.00  0.00    -0.206 F 
HETATM   15  C10 UNL     1      27.814  -0.402  53.664  1.00  0.00     0.076 C 
HETATM   16  C11 UNL     1      28.459   0.187  54.633  1.00  0.00     0.082 C 
HETATM   17  N2  UNL     1      28.598   1.424  54.755  1.00  0.00    -0.283 NA
HETATM   18  C12 UNL     1      28.406   2.343  53.626  1.00  0.00     0.188 C 
ENDBRANCH  11  12
ENDBRANCH   9  11
ENDBRANCH   5   9
BRANCH   8  19
HETATM   19  C15 UNL     1      20.087   0.479  50.563  1.00  0.00     0.164 C 
BRANCH  19  20
HETATM   20  N3  UNL     1      20.042   1.328  49.368  1.00  0.00    -0.355 N 
HETATM   21  C16 UNL     1      19.026   2.305  49.403  1.00  0.00     0.242 C 
HETATM   22  O2  UNL     1      18.158   2.564  50.286  1.00  0.00    -0.271 OA
HETATM   23  H16 UNL     1      20.654   1.295  48.523  1.00  0.00     0.162 HD
BRANCH  21  24
HETATM   24  C17 UNL     1      18.870   3.242  48.240  1.00  0.00     0.203 C 
HETATM   25  C18 UNL     1      20.181   3.221  47.465  1.00  0.00     0.215 C 
HETATM   26  O3  UNL     1      19.757   3.468  46.151  1.00  0.00    -0.301 OA
HETATM   27  C19 UNL     1      18.443   3.059  45.981  1.00  0.00     0.361 C 
HETATM   28  O4  UNL     1      17.795   3.044  44.902  1.00  0.00    -0.238 OA
HETATM   29  N4  UNL     1      17.972   2.659  47.262  1.00  0.00    -0.322 N 
HETATM   30  H20 UNL     1      17.120   2.050  47.398  1.00  0.00     0.165 HD
ENDBRANCH  21  24
ENDBRANCH  19  20
ENDBRANCH   8  19
BRANCH   1  31
HETATM   31  O1  UNL     1      20.498  -0.706  53.108  1.00  0.00    -0.356 OA
HETATM   32  C1  UNL     1      20.659  -1.529  54.231  1.00  0.00     0.210 C 
ENDBRANCH   1  31
TORSDOF 7
ENDMDL
MODEL 9
REMARK VINA RESULT:      -7.9      3.501      6.380
REMARK  7 active torsions:
REMARK  status: ('A' for Active; 'I' for Inactive)
REMARK    1  A    between atoms: O1_2  and  C2_3 
REMARK    2  A    between atoms: C6_7  and  N1_9 
REMARK    3  A    between atoms: N1_9  and  C7_10 
REMARK    4  A    between atoms: C7_10  and  C8_11 
REMARK    5  A    between atoms: C14_19  and  C15_20 
REMARK    6  A    between atoms: C15_20  and  N3_21 
REMARK       I    between atoms: N3_21  and  C16_22 
REMARK    7  A    between atoms: C16_22  and  C17_24 
ROOT
HETATM    1  C2  UNL     1      21.768   0.219  51.980  1.00  0.00     0.072 A 
HETATM    2  C3  UNL     1      21.042   0.439  50.874  1.00  0.00     0.015 A 
HETATM    3  C4  UNL     1      21.517   1.353  49.822  1.00  0.00     0.072 A 
HETATM    4  C5  UNL     1      22.830   1.956  50.145  1.00  0.00    -0.016 A 
HETATM    5  C6  UNL     1      23.355   2.795  49.266  1.00  0.00     0.106 C 
HETATM    6 CL1  UNL     1      24.879   3.597  49.470  1.00  0.00    -0.064 Cl
HETATM    7  C13 UNL     1      23.580   1.685  51.362  1.00  0.00     0.022 A 
HETATM    8  C14 UNL     1      23.060   0.840  52.253  1.00  0.00    -0.007 A 
ENDROOT
BRANCH   5   9
HETATM    9  N1  UNL     1      22.769   3.167  48.044  1.00  0.00    -0.376 N 
HETATM   10  H7  UNL     1      23.155   2.368  47.488  1.00  0.00     0.160 HD
BRANCH   9  11
HETATM   11  C7  UNL     1      21.907   4.270  47.624  1.00  0.00     0.159 C 
BRANCH  11  12
HETATM   12  C8  UNL     1      21.940   5.346  48.636  1.00  0.00    -0.004 C 
HETATM   13  C9  UNL     1      22.838   6.310  48.491  1.00  0.00     0.124 C 
HETATM   14  F1  UNL     1      23.728   6.380  47.483  1.00  0.00    -0.206 F 
HETATM   15  C10 UNL     1      22.839   7.354  49.510  1.00  0.00     0.076 C 
HETATM   16  C11 UNL     1      22.058   7.237  50.548  1.00  0.00     0.082 C 
HETATM   17  N2  UNL     1      21.331   6.249  50.792  1.00  0.00    -0.283 NA
HETATM   18  C12 UNL     1      20.961   5.280  49.753  1.00  0.00     0.188 C 
ENDBRANCH  11  12
ENDBRANCH   9  11
ENDBRANCH   5   9
BRANCH   8  19
HETATM   19  C15 UNL     1      23.795   0.537  53.508  1.00  0.00     0.164 C 
BRANCH  19  20
HETATM   20  N3  UNL     1      25.203   0.934  53.395  1.00  0.00    -0.355 N 
HETATM   21  C16 UNL     1      26.111  -0.089  53.739  1.00  0.00     0.242 C 
HETATM   22  O2  UNL     1      25.911  -1.277  54.125  1.00  0.00    -0.271 OA
HETATM   23  H16 UNL     1      25.598   1.853  53.100  1.00  0.00     0.162 HD
BRANCH  21  24
HETATM   24  C17 UNL     1      27.585   0.185  53.668  1.00  0.00     0.203 C 
HETATM   25  C18 UNL     1      27.795   1.251  52.600  1.00  0.00     0.215 C 
HETATM   26  O3  UNL     1      28.930   1.927  53.069  1.00  0.00    -0.301 OA
HETATM   27  C19 UNL     1      29.033   1.803  54.447  1.00  0.00     0.361 C 
HETATM   28  O4  UNL     1      29.874   2.372  55.191  1.00  0.00    -0.238 OA
HETATM   29  N4  UNL     1      28.004   0.908  54.853  1.00  0.00    -0.322 N 
HETATM   30  H20 UNL     1      27.662   0.839  55.849  1.00  0.00     0.165 HD
ENDBRANCH  21  24
ENDBRANCH  19  20
ENDBRANCH   8  19
BRANCH   1  31
HETATM   31  O1  UNL     1      21.281  -0.651  52.946  1.00  0.00    -0.356 OA
HETATM   32  C1  UNL     1      20.202  -0.307  53.772  1.00  0.00     0.210 C 
ENDBRANCH   1  31
TORSDOF 7
ENDMDL
