MODEL 1
REMARK VINA RESULT:      -9.2      0.000      0.000
REMARK  4 active torsions:
REMARK  status: ('A' for Active; 'I' for Inactive)
REMARK    1  A    between atoms: O1_1  and  C1_2 
REMARK    2  A    between atoms: C3_5  and  N1_6 
REMARK    3  A    between atoms: C4_8  and  C5_9 
REMARK    4  A    between atoms: C12_17  and  C13_18 
ROOT
HETATM    1  N1  UNL     1      23.860   1.489  52.340  1.00  0.00    -0.236 N 
HETATM    2  N2  UNL     1      22.471   1.349  52.246  1.00  0.00    -0.173 NA
HETATM    3  C4  UNL     1      22.046   0.249  52.698  1.00  0.00     0.067 C 
HETATM    4  C11 UNL     1      23.221  -0.516  53.170  1.00  0.00     0.094 C 
HETATM    5  C12 UNL     1      24.179   0.634  53.454  1.00  0.00     0.151 C 
ENDROOT
BRANCH   1   6
HETATM    6  C3  UNL     1      24.526   2.329  51.442  1.00  0.00     0.192 A 
HETATM    7  S1  UNL     1      23.420   3.119  50.164  1.00  0.00    -0.058 SA
HETATM    8  C2  UNL     1      24.849   4.046  49.344  1.00  0.00     0.111 A 
HETATM    9  C1  UNL     1      25.956   3.553  50.241  1.00  0.00     0.171 A 
HETATM   10  N3  UNL     1      25.638   2.718  51.223  1.00  0.00    -0.198 NA
BRANCH   9  11
HETATM   11  O1  UNL     1      27.334   3.861  50.193  1.00  0.00    -0.344 OA
HETATM   12  H1  UNL     1      27.789   4.188  51.016  1.00  0.00     0.219 HD
ENDBRANCH   9  11
ENDBRANCH   1   6
BRANCH   5  13
HETATM   13  C13 UNL     1      25.583   0.160  53.481  1.00  0.00    -0.033 A 
HETATM   14  C14 UNL     1      26.109  -0.820  52.677  1.00  0.00     0.011 A 
HETATM   15  C15 UNL     1      27.451  -1.186  52.789  1.00  0.00     0.024 A 
HETATM   16  C16 UNL     1      28.303  -0.592  53.697  1.00  0.00     0.034 A 
HETATM   17 CL1  UNL     1      29.985  -1.044  53.844  1.00  0.00    -0.084 Cl
HETATM   18  C17 UNL     1      27.788   0.395  54.512  1.00  0.00     0.024 A 
HETATM   19  C18 UNL     1      26.461   0.748  54.392  1.00  0.00     0.011 A 
ENDBRANCH   5  13
BRANCH   3  20
HETATM   20  C5  UNL     1      20.647  -0.230  52.759  1.00  0.00    -0.010 A 
HETATM   21  C6  UNL     1      20.252  -1.108  53.736  1.00  0.00     0.016 A 
HETATM   22  C7  UNL     1      18.915  -1.523  53.738  1.00  0.00     0.043 A 
HETATM   23  C8  UNL     1      18.027  -1.057  52.781  1.00  0.00     0.116 A 
HETATM   24  F1  UNL     1      16.749  -1.499  52.843  1.00  0.00    -0.206 F 
HETATM   25  C9  UNL     1      18.430  -0.175  51.805  1.00  0.00     0.043 A 
HETATM   26  C10 UNL     1      19.754   0.240  51.796  1.00  0.00     0.016 A 
ENDBRANCH   3  20
TORSDOF 4
ENDMDL
MODEL 2
REMARK VINA RESULT:      -8.8      2.816      4.484
REMARK  4 active torsions:
REMARK  status: ('A' for Active; 'I' for Inactive)
REMARK    1  A    between atoms: O1_1  and  C1_2 
REMARK    2  A    between atoms: C3_5  and  N1_6 
REMARK    3  A    between atoms: C4_8  and  C5_9 
REMARK    4  A    between atoms: C12_17  and  C13_18 
ROOT
HETATM    1  N1  UNL     1      25.216   1.305  52.061  1.00  0.00    -0.236 N 
HETATM    2  N2  UNL     1      24.199   0.513  52.605  1.00  0.00    -0.173 NA
HETATM    3  C4  UNL     1      23.040   0.880  52.266  1.00  0.00     0.067 C 
HETATM    4  C11 UNL     1      23.192   2.064  51.392  1.00  0.00     0.094 C 
HETATM    5  C12 UNL     1      24.598   1.814  50.863  1.00  0.00     0.151 C 
ENDROOT
BRANCH   1   6
HETATM    6  C3  UNL     1      26.442   1.400  52.727  1.00  0.00     0.192 A 
HETATM    7  S1  UNL     1      26.741   0.050  53.980  1.00  0.00    -0.058 SA
HETATM    8  C2  UNL     1      28.437   0.730  54.466  1.00  0.00     0.111 A 
HETATM    9  C1  UNL     1      28.457   1.917  53.537  1.00  0.00     0.171 A 
HETATM   10  N3  UNL     1      27.406   2.110  52.747  1.00  0.00    -0.198 NA
BRANCH   9  11
HETATM   11  O1  UNL     1      29.465   2.892  53.372  1.00  0.00    -0.344 OA
HETATM   12  H1  UNL     1      30.412   2.600  53.264  1.00  0.00     0.219 HD
ENDBRANCH   9  11
ENDBRANCH   1   6
BRANCH   5  13
HETATM   13  C13 UNL     1      25.201   3.065  50.346  1.00  0.00    -0.033 A 
HETATM   14  C14 UNL     1      26.336   3.147  49.581  1.00  0.00     0.011 A 
HETATM   15  C15 UNL     1      26.814   4.385  49.149  1.00  0.00     0.024 A 
HETATM   16  C16 UNL     1      26.180   5.569  49.461  1.00  0.00     0.034 A 
HETATM   17 CL1  UNL     1      26.770   7.124  48.924  1.00  0.00    -0.084 Cl
HETATM   18  C17 UNL     1      25.036   5.503  50.231  1.00  0.00     0.024 A 
HETATM   19  C18 UNL     1      24.574   4.274  50.652  1.00  0.00     0.011 A 
ENDBRANCH   5  13
BRANCH   3  20
HETATM   20  C5  UNL     1      21.745   0.275  52.651  1.00  0.00    -0.010 A 
HETATM   21  C6  UNL     1      21.663  -0.572  53.727  1.00  0.00     0.016 A 
HETATM   22  C7  UNL     1      20.409  -1.110  54.040  1.00  0.00     0.043 A 
HETATM   23  C8  UNL     1      19.293  -0.793  53.282  1.00  0.00     0.116 A 
HETATM   24  F1  UNL     1      18.112  -1.349  53.640  1.00  0.00    -0.206 F 
HETATM   25  C9  UNL     1      19.383   0.058  52.203  1.00  0.00     0.043 A 
HETATM   26  C10 UNL     1      20.622   0.595  51.888  1.00  0.00     0.016 A 
ENDBRANCH   3  20
TORSDOF 4
ENDMDL
MODEL 3
REMARK VINA RESULT:      -8.6      3.684      5.636
REMARK  4 active torsions:
REMARK  status: ('A' for Active; 'I' for Inactive)
REMARK    1  A    between atoms: O1_1  and  C1_2 
REMARK    2  A    between atoms: C3_5  and  N1_6 
REMARK    3  A    between atoms: C4_8  and  C5_9 
REMARK    4  A    between atoms: C12_17  and  C13_18 
ROOT
HETATM    1  N1  UNL     1      23.655   1.176  52.502  1.00  0.00    -0.236 N 
HETATM    2  N2  UNL     1      22.889   2.298  52.169  1.00  0.00    -0.173 NA
HETATM    3  C4  UNL     1      23.582   3.299  51.834  1.00  0.00     0.067 C 
HETATM    4  C11 UNL     1      25.004   2.901  51.931  1.00  0.00     0.094 C 
HETATM    5  C12 UNL     1      24.862   1.396  51.747  1.00  0.00     0.151 C 
ENDROOT
BRANCH   1   6
HETATM    6  C3  UNL     1      23.129   0.223  53.379  1.00  0.00     0.192 A 
HETATM    7  S1  UNL     1      21.353  -0.237  53.039  1.00  0.00    -0.058 SA
HETATM    8  C2  UNL     1      21.284  -1.465  54.475  1.00  0.00     0.111 A 
HETATM    9  C1  UNL     1      22.697  -1.285  54.969  1.00  0.00     0.171 A 
HETATM   10  N3  UNL     1      23.477  -0.423  54.327  1.00  0.00    -0.198 NA
BRANCH   9  11
HETATM   11  O1  UNL     1      23.340  -1.921  56.053  1.00  0.00    -0.344 OA
HETATM   12  H1  UNL     1      24.209  -2.384  55.901  1.00  0.00     0.219 HD
ENDBRANCH   9  11
ENDBRANCH   1   6
BRANCH   5  13
HETATM   13  C13 UNL     1      26.052   0.683  52.271  1.00  0.00    -0.033 A 
HETATM   14  C14 UNL     1      26.275  -0.667  52.182  1.00  0.00     0.011 A 
HETATM   15  C15 UNL     1      27.436  -1.232  52.714  1.00  0.00     0.024 A 
HETATM   16  C16 UNL     1      28.402  -0.474  53.343  1.00  0.00     0.034 A 
HETATM   17 CL1  UNL     1      29.859  -1.171  54.010  1.00  0.00    -0.084 Cl
HETATM   18  C17 UNL     1      28.191   0.886  53.439  1.00  0.00     0.024 A 
HETATM   19  C18 UNL     1      27.040   1.432  52.911  1.00  0.00     0.011 A 
ENDBRANCH   5  13
BRANCH   3  20
HETATM   20  C5  UNL     1      23.106   4.638  51.423  1.00  0.00    -0.010 A 
HETATM   21  C6  UNL     1      23.993   5.673  51.258  1.00  0.00     0.016 A 
HETATM   22  C7  UNL     1      23.480   6.915  50.867  1.00  0.00     0.043 A 
HETATM   23  C8  UNL     1      22.120   7.086  50.657  1.00  0.00     0.116 A 
HETATM   24  F1  UNL     1      21.692   8.315  50.282  1.00  0.00    -0.206 F 
HETATM   25  C9  UNL     1      21.237   6.044  50.825  1.00  0.00     0.043 A 
HETATM   26  C10 UNL     1      21.739   4.810  51.212  1.00  0.00     0.016 A 
ENDBRANCH   3  20
TORSDOF 4
ENDMDL
MODEL 4
REMARK VINA RESULT:      -8.4      4.652      7.738
REMARK  4 active torsions:
REMARK  status: ('A' for Active; 'I' for Inactive)
REMARK    1  A    between atoms: O1_1  and  C1_2 
REMARK    2  A    between atoms: C3_5  and  N1_6 
REMARK    3  A    between atoms: C4_8  and  C5_9 
REMARK    4  A    between atoms: C12_17  and  C13_18 
ROOT
HETATM    1  N1  UNL     1      23.477   0.810  53.199  1.00  0.00    -0.236 N 
HETATM    2  N2  UNL     1      24.602   0.115  53.657  1.00  0.00    -0.173 NA
HETATM    3  C4  UNL     1      25.671   0.453  53.078  1.00  0.00     0.067 C 
HETATM    4  C11 UNL     1      25.324   1.492  52.083  1.00  0.00     0.094 C 
HETATM    5  C12 UNL     1      24.053   2.040  52.719  1.00  0.00     0.151 C 
ENDROOT
BRANCH   1   6
HETATM    6  C3  UNL     1      22.215   0.218  53.307  1.00  0.00     0.192 A 
HETATM    7  S1  UNL     1      22.138  -1.214  54.501  1.00  0.00    -0.058 SA
HETATM    8  C2  UNL     1      20.299  -1.519  54.183  1.00  0.00     0.111 A 
HETATM    9  C1  UNL     1      20.079  -0.419  53.176  1.00  0.00     0.171 A 
HETATM   10  N3  UNL     1      21.115   0.346  52.851  1.00  0.00    -0.198 NA
BRANCH   9  11
HETATM   11  O1  UNL     1      18.889  -0.066  52.501  1.00  0.00    -0.344 OA
HETATM   12  H1  UNL     1      18.155  -0.735  52.426  1.00  0.00     0.219 HD
ENDBRANCH   9  11
ENDBRANCH   1   6
BRANCH   5  13
HETATM   13  C13 UNL     1      23.225   2.754  51.718  1.00  0.00    -0.033 A 
HETATM   14  C14 UNL     1      22.386   3.806  51.982  1.00  0.00     0.011 A 
HETATM   15  C15 UNL     1      21.652   4.405  50.957  1.00  0.00     0.024 A 
HETATM   16  C16 UNL     1      21.733   3.979  49.648  1.00  0.00     0.034 A 
HETATM   17 CL1  UNL     1      20.819   4.722  48.358  1.00  0.00    -0.084 Cl
HETATM   18  C17 UNL     1      22.574   2.921  49.367  1.00  0.00     0.024 A 
HETATM   19  C18 UNL     1      23.293   2.338  50.388  1.00  0.00     0.011 A 
ENDBRANCH   5  13
BRANCH   3  20
HETATM   20  C5  UNL     1      27.036  -0.070  53.310  1.00  0.00    -0.010 A 
HETATM   21  C6  UNL     1      27.389  -1.321  52.869  1.00  0.00     0.016 A 
HETATM   22  C7  UNL     1      28.695  -1.757  53.120  1.00  0.00     0.043 A 
HETATM   23  C8  UNL     1      29.596  -0.945  53.793  1.00  0.00     0.116 A 
HETATM   24  F1  UNL     1      30.842  -1.430  54.002  1.00  0.00    -0.206 F 
HETATM   25  C9  UNL     1      29.235   0.308  54.232  1.00  0.00     0.043 A 
HETATM   26  C10 UNL     1      27.942   0.746  53.987  1.00  0.00     0.016 A 
ENDBRANCH   3  20
TORSDOF 4
ENDMDL
MODEL 5
REMARK VINA RESULT:      -8.4      4.317      7.106
REMARK  4 active torsions:
REMARK  status: ('A' for Active; 'I' for Inactive)
REMARK    1  A    between atoms: O1_1  and  C1_2 
REMARK    2  A    between atoms: C3_5  and  N1_6 
REMARK    3  A    between atoms: C4_8  and  C5_9 
REMARK    4  A    between atoms: C12_17  and  C13_18 
ROOT
HETATM    1  N1  UNL     1      24.497   2.646  51.127  1.00  0.00    -0.236 N 
HETATM    2  N2  UNL     1      25.805   2.276  51.459  1.00  0.00    -0.173 NA
HETATM    3  C4  UNL     1      25.868   1.220  52.149  1.00  0.00     0.067 C 
HETATM    4  C11 UNL     1      24.481   0.752  52.366  1.00  0.00     0.094 C 
HETATM    5  C12 UNL     1      23.806   1.382  51.154  1.00  0.00     0.151 C 
ENDROOT
BRANCH   1   6
HETATM    6  C3  UNL     1      24.209   3.990  50.873  1.00  0.00     0.192 A 
HETATM    7  S1  UNL     1      23.540   4.323  49.164  1.00  0.00    -0.058 SA
HETATM    8  C2  UNL     1      23.380   6.182  49.471  1.00  0.00     0.111 A 
HETATM    9  C1  UNL     1      23.893   6.200  50.889  1.00  0.00     0.171 A 
HETATM   10  N3  UNL     1      24.259   5.047  51.436  1.00  0.00    -0.198 NA
BRANCH   9  11
HETATM   11  O1  UNL     1      24.047   7.304  51.757  1.00  0.00    -0.344 OA
HETATM   12  H1  UNL     1      23.243   7.823  52.032  1.00  0.00     0.219 HD
ENDBRANCH   9  11
ENDBRANCH   1   6
BRANCH   5  13
HETATM   13  C13 UNL     1      22.342   1.488  51.359  1.00  0.00    -0.033 A 
HETATM   14  C14 UNL     1      21.729   2.016  52.467  1.00  0.00     0.011 A 
HETATM   15  C15 UNL     1      20.336   2.066  52.552  1.00  0.00     0.024 A 
HETATM   16  C16 UNL     1      19.519   1.598  51.544  1.00  0.00     0.034 A 
HETATM   17 CL1  UNL     1      17.776   1.657  51.641  1.00  0.00    -0.084 Cl
HETATM   18  C17 UNL     1      20.123   1.064  50.423  1.00  0.00     0.024 A 
HETATM   19  C18 UNL     1      21.499   1.020  50.351  1.00  0.00     0.011 A 
ENDBRANCH   5  13
BRANCH   3  20
HETATM   20  C5  UNL     1      27.078   0.545  52.670  1.00  0.00    -0.010 A 
HETATM   21  C6  UNL     1      27.170  -0.824  52.664  1.00  0.00     0.016 A 
HETATM   22  C7  UNL     1      28.340  -1.401  53.171  1.00  0.00     0.043 A 
HETATM   23  C8  UNL     1      29.366  -0.608  53.662  1.00  0.00     0.116 A 
HETATM   24  F1  UNL     1      30.470  -1.232  54.138  1.00  0.00    -0.206 F 
HETATM   25  C9  UNL     1      29.267   0.765  53.665  1.00  0.00     0.043 A 
HETATM   26  C10 UNL     1      28.110   1.343  53.164  1.00  0.00     0.016 A 
ENDBRANCH   3  20
TORSDOF 4
ENDMDL
MODEL 6
REMARK VINA RESULT:      -8.0      4.399      7.146
REMARK  4 active torsions:
REMARK  status: ('A' for Active; 'I' for Inactive)
REMARK    1  A    between atoms: O1_1  and  C1_2 
REMARK    2  A    between atoms: C3_5  and  N1_6 
REMARK    3  A    between atoms: C4_8  and  C5_9 
REMARK    4  A    between atoms: C12_17  and  C13_18 
ROOT
HETATM    1  N1  UNL     1      23.116   2.138  51.271  1.00  0.00    -0.236 N 
HETATM    2  N2  UNL     1      24.491   2.208  51.516  1.00  0.00    -0.173 NA
HETATM    3  C4  UNL     1      24.921   1.268  52.241  1.00  0.00     0.067 C 
HETATM    4  C11 UNL     1      23.763   0.412  52.583  1.00  0.00     0.094 C 
HETATM    5  C12 UNL     1      22.853   0.727  51.403  1.00  0.00     0.151 C 
ENDROOT
BRANCH   1   6
HETATM    6  C3  UNL     1      22.409   3.311  50.987  1.00  0.00     0.192 A 
HETATM    7  S1  UNL     1      22.721   4.705  52.186  1.00  0.00    -0.058 SA
HETATM    8  C2  UNL     1      21.549   5.885  51.286  1.00  0.00     0.111 A 
HETATM    9  C1  UNL     1      21.118   4.947  50.187  1.00  0.00     0.171 A 
HETATM   10  N3  UNL     1      21.628   3.721  50.176  1.00  0.00    -0.198 NA
BRANCH   9  11
HETATM   11  O1  UNL     1      20.220   5.188  49.124  1.00  0.00    -0.344 OA
HETATM   12  H1  UNL     1      20.580   5.376  48.215  1.00  0.00     0.219 HD
ENDBRANCH   9  11
ENDBRANCH   1   6
BRANCH   5  13
HETATM   13  C13 UNL     1      21.444   0.393  51.717  1.00  0.00    -0.033 A 
HETATM   14  C14 UNL     1      20.386   0.510  50.853  1.00  0.00     0.011 A 
HETATM   15  C15 UNL     1      19.096   0.163  51.257  1.00  0.00     0.024 A 
HETATM   16  C16 UNL     1      18.823  -0.308  52.525  1.00  0.00     0.034 A 
HETATM   17 CL1  UNL     1      17.212  -0.745  53.041  1.00  0.00    -0.084 Cl
HETATM   18  C17 UNL     1      19.879  -0.432  53.406  1.00  0.00     0.024 A 
HETATM   19  C18 UNL     1      21.148  -0.086  52.994  1.00  0.00     0.011 A 
ENDBRANCH   5  13
BRANCH   3  20
HETATM   20  C5  UNL     1      26.310   1.031  52.694  1.00  0.00    -0.010 A 
HETATM   21  C6  UNL     1      27.095   2.075  53.113  1.00  0.00     0.016 A 
HETATM   22  C7  UNL     1      28.400   1.784  53.529  1.00  0.00     0.043 A 
HETATM   23  C8  UNL     1      28.874   0.482  53.515  1.00  0.00     0.116 A 
HETATM   24  F1  UNL     1      30.145   0.272  53.931  1.00  0.00    -0.206 F 
HETATM   25  C9  UNL     1      28.080  -0.561  53.093  1.00  0.00     0.043 A 
HETATM   26  C10 UNL     1      26.787  -0.280  52.679  1.00  0.00     0.016 A 
ENDBRANCH   3  20
TORSDOF 4
ENDMDL
MODEL 7
REMARK VINA RESULT:      -8.0      4.512      7.658
REMARK  4 active torsions:
REMARK  status: ('A' for Active; 'I' for Inactive)
REMARK    1  A    between atoms: O1_1  and  C1_2 
REMARK    2  A    between atoms: C3_5  and  N1_6 
REMARK    3  A    between atoms: C4_8  and  C5_9 
REMARK    4  A    between atoms: C12_17  and  C13_18 
ROOT
HETATM    1  N1  UNL     1      23.724   2.568  52.005  1.00  0.00    -0.236 N 
HETATM    2  N2  UNL     1      24.624   1.779  52.729  1.00  0.00    -0.173 NA
HETATM    3  C4  UNL     1      25.746   1.651  52.164  1.00  0.00     0.067 C 
HETATM    4  C11 UNL     1      25.687   2.404  50.892  1.00  0.00     0.094 C 
HETATM    5  C12 UNL     1      24.605   3.417  51.243  1.00  0.00     0.151 C 
ENDROOT
BRANCH   1   6
HETATM    6  C3  UNL     1      22.350   2.372  52.175  1.00  0.00     0.192 A 
HETATM    7  S1  UNL     1      21.865   0.608  52.541  1.00  0.00    -0.058 SA
HETATM    8  C2  UNL     1      20.024   1.022  52.646  1.00  0.00     0.111 A 
HETATM    9  C1  UNL     1      20.129   2.500  52.367  1.00  0.00     0.171 A 
HETATM   10  N3  UNL     1      21.337   3.012  52.158  1.00  0.00    -0.198 NA
BRANCH   9  11
HETATM   11  O1  UNL     1      19.095   3.460  52.294  1.00  0.00    -0.344 OA
HETATM   12  H1  UNL     1      19.316   4.394  52.027  1.00  0.00     0.219 HD
ENDBRANCH   9  11
ENDBRANCH   1   6
BRANCH   5  13
HETATM   13  C13 UNL     1      23.997   3.990  50.019  1.00  0.00    -0.033 A 
HETATM   14  C14 UNL     1      23.964   5.322  49.694  1.00  0.00     0.011 A 
HETATM   15  C15 UNL     1      23.363   5.749  48.508  1.00  0.00     0.024 A 
HETATM   16  C16 UNL     1      22.783   4.870  47.618  1.00  0.00     0.034 A 
HETATM   17 CL1  UNL     1      22.030   5.395  46.132  1.00  0.00    -0.084 Cl
HETATM   18  C17 UNL     1      22.810   3.526  47.932  1.00  0.00     0.024 A 
HETATM   19  C18 UNL     1      23.406   3.116  49.105  1.00  0.00     0.011 A 
ENDBRANCH   5  13
BRANCH   3  20
HETATM   20  C5  UNL     1      26.924   0.894  52.643  1.00  0.00    -0.010 A 
HETATM   21  C6  UNL     1      26.941  -0.477  52.588  1.00  0.00     0.016 A 
HETATM   22  C7  UNL     1      28.085  -1.135  53.056  1.00  0.00     0.043 A 
HETATM   23  C8  UNL     1      29.160  -0.416  53.558  1.00  0.00     0.116 A 
HETATM   24  F1  UNL     1      30.234  -1.116  53.994  1.00  0.00    -0.206 F 
HETATM   25  C9  UNL     1      29.135   0.959  53.609  1.00  0.00     0.043 A 
HETATM   26  C10 UNL     1      28.005   1.616  53.147  1.00  0.00     0.016 A 
ENDBRANCH   3  20
TORSDOF 4
ENDMDL
MODEL 8
REMARK VINA RESULT:      -7.7      5.585      7.662
REMARK  4 active torsions:
REMARK  status: ('A' for Active; 'I' for Inactive)
REMARK    1  A    between atoms: O1_1  and  C1_2 
REMARK    2  A    between atoms: C3_5  and  N1_6 
REMARK    3  A    between atoms: C4_8  and  C5_9 
REMARK    4  A    between atoms: C12_17  and  C13_18 
ROOT
HETATM    1  N1  UNL     1      25.958   4.138  49.539  1.00  0.00    -0.236 N 
HETATM    2  N2  UNL     1      26.905   3.401  50.258  1.00  0.00    -0.173 NA
HETATM    3  C4  UNL     1      26.398   2.680  51.163  1.00  0.00     0.067 C 
HETATM    4  C11 UNL     1      24.935   2.899  51.132  1.00  0.00     0.094 C 
HETATM    5  C12 UNL     1      24.771   3.333  49.681  1.00  0.00     0.151 C 
ENDROOT
BRANCH   1   6
HETATM    6  C3  UNL     1      26.343   5.333  48.924  1.00  0.00     0.192 A 
HETATM    7  S1  UNL     1      28.146   5.408  48.452  1.00  0.00    -0.058 SA
HETATM    8  C2  UNL     1      27.997   7.149  47.730  1.00  0.00     0.111 A 
HETATM    9  C1  UNL     1      26.528   7.357  47.999  1.00  0.00     0.171 A 
HETATM   10  N3  UNL     1      25.855   6.375  48.590  1.00  0.00    -0.198 NA
BRANCH   9  11
HETATM   11  O1  UNL     1      25.728   8.483  47.704  1.00  0.00    -0.344 OA
HETATM   12  H1  UNL     1      24.778   8.349  47.436  1.00  0.00     0.219 HD
ENDBRANCH   9  11
ENDBRANCH   1   6
BRANCH   5  13
HETATM   13  C13 UNL     1      23.502   4.074  49.490  1.00  0.00    -0.033 A 
HETATM   14  C14 UNL     1      22.798   4.160  48.316  1.00  0.00     0.011 A 
HETATM   15  C15 UNL     1      21.609   4.888  48.252  1.00  0.00     0.024 A 
HETATM   16  C16 UNL     1      21.088   5.545  49.347  1.00  0.00     0.034 A 
HETATM   17 CL1  UNL     1      19.600   6.458  49.277  1.00  0.00    -0.084 Cl
HETATM   18  C17 UNL     1      21.785   5.467  50.536  1.00  0.00     0.024 A 
HETATM   19  C18 UNL     1      22.959   4.745  50.586  1.00  0.00     0.011 A 
ENDBRANCH   5  13
BRANCH   3  20
HETATM   20  C5  UNL     1      27.098   1.778  52.105  1.00  0.00    -0.010 A 
HETATM   21  C6  UNL     1      28.002   2.279  53.009  1.00  0.00     0.016 A 
HETATM   22  C7  UNL     1      28.629   1.373  53.873  1.00  0.00     0.043 A 
HETATM   23  C8  UNL     1      28.341   0.018  53.810  1.00  0.00     0.116 A 
HETATM   24  F1  UNL     1      28.984  -0.800  54.676  1.00  0.00    -0.206 F 
HETATM   25  C9  UNL     1      27.433  -0.476  52.902  1.00  0.00     0.043 A 
HETATM   26  C10 UNL     1      26.807   0.416  52.043  1.00  0.00     0.016 A 
ENDBRANCH   3  20
TORSDOF 4
ENDMDL
MODEL 9
REMARK VINA RESULT:      -7.7      7.117     10.182
REMARK  4 active torsions:
REMARK  status: ('A' for Active; 'I' for Inactive)
REMARK    1  A    between atoms: O1_1  and  C1_2 
REMARK    2  A    between atoms: C3_5  and  N1_6 
REMARK    3  A    between atoms: C4_8  and  C5_9 
REMARK    4  A    between atoms: C12_17  and  C13_18 
ROOT
HETATM    1  N1  UNL     1      30.346   5.649  47.691  1.00  0.00    -0.236 N 
HETATM    2  N2  UNL     1      29.257   4.881  48.117  1.00  0.00    -0.173 NA
HETATM    3  C4  UNL     1      28.238   5.570  48.402  1.00  0.00     0.067 C 
HETATM    4  C11 UNL     1      28.591   6.990  48.182  1.00  0.00     0.094 C 
HETATM    5  C12 UNL     1      29.703   6.821  47.154  1.00  0.00     0.151 C 
ENDROOT
BRANCH   1   6
HETATM    6  C3  UNL     1      31.643   5.154  47.864  1.00  0.00     0.192 A 
HETATM    7  S1  UNL     1      32.038   3.657  46.822  1.00  0.00    -0.058 SA
HETATM    8  C2  UNL     1      33.800   3.521  47.494  1.00  0.00     0.111 A 
HETATM    9  C1  UNL     1      33.753   4.700  48.433  1.00  0.00     0.171 A 
HETATM   10  N3  UNL     1      32.626   5.400  48.501  1.00  0.00    -0.198 NA
BRANCH   9  11
HETATM   11  O1  UNL     1      34.769   5.191  49.283  1.00  0.00    -0.344 OA
HETATM   12  H1  UNL     1      35.118   6.113  49.142  1.00  0.00     0.219 HD
ENDBRANCH   9  11
ENDBRANCH   1   6
BRANCH   5  13
HETATM   13  C13 UNL     1      30.566   8.025  47.105  1.00  0.00    -0.033 A 
HETATM   14  C14 UNL     1      31.344   8.405  46.041  1.00  0.00     0.011 A 
HETATM   15  C15 UNL     1      32.119   9.564  46.105  1.00  0.00     0.024 A 
HETATM   16  C16 UNL     1      32.141  10.374  47.222  1.00  0.00     0.034 A 
HETATM   17 CL1  UNL     1      33.107  11.827  47.312  1.00  0.00    -0.084 Cl
HETATM   18  C17 UNL     1      31.362  10.005  48.300  1.00  0.00     0.024 A 
HETATM   19  C18 UNL     1      30.601   8.858  48.224  1.00  0.00     0.011 A 
ENDBRANCH   5  13
BRANCH   3  20
HETATM   20  C5  UNL     1      26.921   5.092  48.879  1.00  0.00    -0.010 A 
HETATM   21  C6  UNL     1      25.819   5.907  48.818  1.00  0.00     0.016 A 
HETATM   22  C7  UNL     1      24.603   5.396  49.285  1.00  0.00     0.043 A 
HETATM   23  C8  UNL     1      24.523   4.107  49.791  1.00  0.00     0.116 A 
HETATM   24  F1  UNL     1      23.315   3.677  50.225  1.00  0.00    -0.206 F 
HETATM   25  C9  UNL     1      25.633   3.295  49.848  1.00  0.00     0.043 A 
HETATM   26  C10 UNL     1      26.841   3.796  49.387  1.00  0.00     0.016 A 
ENDBRANCH   3  20
TORSDOF 4
ENDMDL
