MODEL 1
REMARK VINA RESULT:      -7.3      0.000      0.000
REMARK  10 active torsions:
REMARK  status: ('A' for Active; 'I' for Inactive)
REMARK    1  A    between atoms: C2_2  and  N1_3 
REMARK    2  A    between atoms: N1_3  and  C3_4 
REMARK    3  A    between atoms: C3_4  and  C4_5 
REMARK    4  A    between atoms: C4_5  and  O1_6 
REMARK    5  A    between atoms: O1_6  and  C5_7 
REMARK    6  A    between atoms: C5_7  and  C6_8 
REMARK    7  A    between atoms: C6_8  and  C7_9 
REMARK    8  A    between atoms: C7_9  and  N2_10 
REMARK    9  A    between atoms: N2_10  and  C8_11 
REMARK   10  A    between atoms: C11_14  and  O2_15 
ROOT
HETATM    1  C8  UNL     1      25.376   3.573  51.226  1.00  0.00     0.086 C 
HETATM    2  C9  UNL     1      25.337   4.237  50.042  1.00  0.00    -0.051 C 
HETATM    3  C10 UNL     1      24.355   5.376  50.239  1.00  0.00     0.068 C 
HETATM    4  C11 UNL     1      25.012   6.697  49.843  1.00  0.00     0.123 C 
HETATM    5  C12 UNL     1      25.829   6.652  48.648  1.00  0.00     0.043 C 
HETATM    6  C13 UNL     1      27.185   5.892  48.607  1.00  0.00    -0.017 A 
HETATM    7  C14 UNL     1      28.578   6.371  48.204  1.00  0.00     0.012 A 
HETATM    8  C15 UNL     1      27.906   5.415  48.565  1.00  0.00    -0.011 A 
HETATM    9  C16 UNL     1      27.165   4.396  48.938  1.00  0.00    -0.004 A 
HETATM   10  C17 UNL     1      26.379   3.343  49.301  1.00  0.00     0.013 A 
HETATM   11  C18 UNL     1      27.368   4.275  48.845  1.00  0.00     0.025 A 
ENDROOT
BRANCH   1  12
HETATM   12  N2  UNL     1      24.589   4.021  52.276  1.00  0.00    -0.398 N 
HETATM   13  H15 UNL     1      24.223   4.943  52.528  1.00  0.00     0.158 HD
BRANCH  12  14
HETATM   14  C7  UNL     1      24.261   2.904  53.146  1.00  0.00     0.121 C 
BRANCH  14  15
HETATM   15  C6  UNL     1      23.707   1.757  52.308  1.00  0.00     0.046 C 
BRANCH  15  16
HETATM   16  C5  UNL     1      23.920   0.430  53.010  1.00  0.00     0.169 C 
BRANCH  16  17
HETATM   17  O1  UNL     1      25.171  -0.104  52.844  1.00  0.00    -0.389 OA
BRANCH  17  18
HETATM   18  C4  UNL     1      25.754  -0.658  53.955  1.00  0.00     0.187 C 
BRANCH  18  19
HETATM   19  C3  UNL     1      26.631   0.378  54.666  1.00  0.00     0.145 C 
BRANCH  19  20
HETATM   20  N1  UNL     1      27.898  -0.207  55.014  1.00  0.00    -0.398 N 
HETATM   21  H4  UNL     1      28.046  -0.808  55.850  1.00  0.00     0.158 HD
BRANCH  20  22
HETATM   22  C2  UNL     1      29.073  -0.020  54.244  1.00  0.00     0.072 C 
HETATM   23  C1  UNL     1      29.796  -0.893  53.571  1.00  0.00     0.029 C 
ENDBRANCH  20  22
ENDBRANCH  19  20
ENDBRANCH  18  19
ENDBRANCH  17  18
ENDBRANCH  16  17
ENDBRANCH  15  16
ENDBRANCH  14  15
ENDBRANCH  12  14
ENDBRANCH   1  12
BRANCH   4  24
HETATM   24  O2  UNL     1      25.705   7.191  50.939  1.00  0.00    -0.395 OA
HETATM   25  H20 UNL     1      25.664   8.194  50.848  1.00  0.00     0.210 HD
ENDBRANCH   4  24
TORSDOF 10
ENDMDL
MODEL 2
REMARK VINA RESULT:      -6.7      2.409      3.384
REMARK  10 active torsions:
REMARK  status: ('A' for Active; 'I' for Inactive)
REMARK    1  A    between atoms: C2_2  and  N1_3 
REMARK    2  A    between atoms: N1_3  and  C3_4 
REMARK    3  A    between atoms: C3_4  and  C4_5 
REMARK    4  A    between atoms: C4_5  and  O1_6 
REMARK    5  A    between atoms: O1_6  and  C5_7 
REMARK    6  A    between atoms: C5_7  and  C6_8 
REMARK    7  A    between atoms: C6_8  and  C7_9 
REMARK    8  A    between atoms: C7_9  and  N2_10 
REMARK    9  A    between atoms: N2_10  and  C8_11 
REMARK   10  A    between atoms: C11_14  and  O2_15 
ROOT
HETATM    1  C8  UNL     1      25.384   3.478  51.209  1.00  0.00     0.086 C 
HETATM    2  C9  UNL     1      25.298   4.137  50.024  1.00  0.00    -0.051 C 
HETATM    3  C10 UNL     1      24.202   5.169  50.204  1.00  0.00     0.068 C 
HETATM    4  C11 UNL     1      24.728   6.551  49.820  1.00  0.00     0.123 C 
HETATM    5  C12 UNL     1      25.567   6.593  48.640  1.00  0.00     0.043 C 
HETATM    6  C13 UNL     1      26.994   5.975  48.624  1.00  0.00    -0.017 A 
HETATM    7  C14 UNL     1      28.338   6.595  48.246  1.00  0.00     0.012 A 
HETATM    8  C15 UNL     1      27.760   5.574  48.594  1.00  0.00    -0.011 A 
HETATM    9  C16 UNL     1      27.120   4.484  48.953  1.00  0.00    -0.004 A 
HETATM   10  C17 UNL     1      26.439   3.355  49.302  1.00  0.00     0.013 A 
HETATM   11  C18 UNL     1      27.336   4.385  48.865  1.00  0.00     0.025 A 
ENDROOT
BRANCH   1  12
HETATM   12  N2  UNL     1      24.536   3.842  52.245  1.00  0.00    -0.398 N 
HETATM   13  H15 UNL     1      23.982   4.682  52.430  1.00  0.00     0.158 HD
BRANCH  12  14
HETATM   14  C7  UNL     1      24.474   2.766  53.220  1.00  0.00     0.121 C 
BRANCH  14  15
HETATM   15  C6  UNL     1      24.567   1.425  52.498  1.00  0.00     0.046 C 
BRANCH  15  16
HETATM   16  C5  UNL     1      23.197   0.786  52.378  1.00  0.00     0.169 C 
BRANCH  16  17
HETATM   17  O1  UNL     1      22.153   1.672  52.429  1.00  0.00    -0.389 OA
BRANCH  17  18
HETATM   18  C4  UNL     1      20.902   1.138  52.601  1.00  0.00     0.187 C 
BRANCH  18  19
HETATM   19  C3  UNL     1      20.697   0.728  54.064  1.00  0.00     0.145 C 
BRANCH  19  20
HETATM   20  N1  UNL     1      20.451  -0.686  54.146  1.00  0.00    -0.398 N 
HETATM   21  H4  UNL     1      19.534  -1.127  53.927  1.00  0.00     0.158 HD
BRANCH  20  22
HETATM   22  C2  UNL     1      21.442  -1.622  54.538  1.00  0.00     0.072 C 
HETATM   23  C1  UNL     1      22.568  -1.441  55.198  1.00  0.00     0.029 C 
ENDBRANCH  20  22
ENDBRANCH  19  20
ENDBRANCH  18  19
ENDBRANCH  17  18
ENDBRANCH  16  17
ENDBRANCH  15  16
ENDBRANCH  14  15
ENDBRANCH  12  14
ENDBRANCH   1  12
BRANCH   4  24
HETATM   24  O2  UNL     1      25.347   7.112  50.928  1.00  0.00    -0.395 OA
HETATM   25  H20 UNL     1      24.703   6.974  51.691  1.00  0.00     0.210 HD
ENDBRANCH   4  24
TORSDOF 10
ENDMDL
MODEL 3
REMARK VINA RESULT:      -6.6      3.185      6.128
REMARK  10 active torsions:
REMARK  status: ('A' for Active; 'I' for Inactive)
REMARK    1  A    between atoms: C2_2  and  N1_3 
REMARK    2  A    between atoms: N1_3  and  C3_4 
REMARK    3  A    between atoms: C3_4  and  C4_5 
REMARK    4  A    between atoms: C4_5  and  O1_6 
REMARK    5  A    between atoms: O1_6  and  C5_7 
REMARK    6  A    between atoms: C5_7  and  C6_8 
REMARK    7  A    between atoms: C6_8  and  C7_9 
REMARK    8  A    between atoms: C7_9  and  N2_10 
REMARK    9  A    between atoms: N2_10  and  C8_11 
REMARK   10  A    between atoms: C11_14  and  O2_15 
ROOT
HETATM    1  C8  UNL     1      24.626  -0.765  53.487  1.00  0.00     0.086 C 
HETATM    2  C9  UNL     1      25.587  -0.184  52.724  1.00  0.00    -0.051 C 
HETATM    3  C10 UNL     1      25.114   1.235  52.474  1.00  0.00     0.068 C 
HETATM    4  C11 UNL     1      26.211   2.221  52.875  1.00  0.00     0.123 C 
HETATM    5  C12 UNL     1      27.558   1.838  52.507  1.00  0.00     0.043 C 
HETATM    6  C13 UNL     1      28.290   0.648  53.190  1.00  0.00    -0.017 A 
HETATM    7  C14 UNL     1      29.649   0.588  53.884  1.00  0.00     0.012 A 
HETATM    8  C15 UNL     1      28.672  -0.054  53.523  1.00  0.00    -0.011 A 
HETATM    9  C16 UNL     1      27.621  -0.729  53.113  1.00  0.00    -0.004 A 
HETATM   10  C17 UNL     1      26.537  -1.420  52.660  1.00  0.00     0.013 A 
HETATM   11  C18 UNL     1      27.787  -0.917  53.150  1.00  0.00     0.025 A 
ENDROOT
BRANCH   1  12
HETATM   12  N2  UNL     1      23.513  -0.022  53.851  1.00  0.00    -0.398 N 
HETATM   13  H15 UNL     1      23.270   0.966  53.745  1.00  0.00     0.158 HD
BRANCH  12  14
HETATM   14  C7  UNL     1      22.546  -0.887  54.505  1.00  0.00     0.121 C 
BRANCH  14  15
HETATM   15  C6  UNL     1      21.230  -0.134  54.677  1.00  0.00     0.046 C 
BRANCH  15  16
HETATM   16  C5  UNL     1      20.881   0.627  53.414  1.00  0.00     0.169 C 
BRANCH  16  17
HETATM   17  O1  UNL     1      21.055  -0.086  52.256  1.00  0.00    -0.389 OA
BRANCH  17  18
HETATM   18  C4  UNL     1      20.621   0.507  51.098  1.00  0.00     0.187 C 
BRANCH  18  19
HETATM   19  C3  UNL     1      21.325   1.853  50.896  1.00  0.00     0.145 C 
BRANCH  19  20
HETATM   20  N1  UNL     1      22.497   1.676  50.082  1.00  0.00    -0.398 N 
HETATM   21  H4  UNL     1      23.007   0.774  49.991  1.00  0.00     0.158 HD
BRANCH  20  22
HETATM   22  C2  UNL     1      23.073   2.723  49.318  1.00  0.00     0.072 C 
HETATM   23  C1  UNL     1      24.245   3.315  49.436  1.00  0.00     0.029 C 
ENDBRANCH  20  22
ENDBRANCH  19  20
ENDBRANCH  18  19
ENDBRANCH  17  18
ENDBRANCH  16  17
ENDBRANCH  15  16
ENDBRANCH  14  15
ENDBRANCH  12  14
ENDBRANCH   1  12
BRANCH   4  24
HETATM   24  O2  UNL     1      26.090   2.489  54.232  1.00  0.00    -0.395 OA
HETATM   25  H20 UNL     1      25.518   3.316  54.289  1.00  0.00     0.210 HD
ENDBRANCH   4  24
TORSDOF 10
ENDMDL
MODEL 4
REMARK VINA RESULT:      -6.5      1.854      6.851
REMARK  10 active torsions:
REMARK  status: ('A' for Active; 'I' for Inactive)
REMARK    1  A    between atoms: C2_2  and  N1_3 
REMARK    2  A    between atoms: N1_3  and  C3_4 
REMARK    3  A    between atoms: C3_4  and  C4_5 
REMARK    4  A    between atoms: C4_5  and  O1_6 
REMARK    5  A    between atoms: O1_6  and  C5_7 
REMARK    6  A    between atoms: C5_7  and  C6_8 
REMARK    7  A    between atoms: C6_8  and  C7_9 
REMARK    8  A    between atoms: C7_9  and  N2_10 
REMARK    9  A    between atoms: N2_10  and  C8_11 
REMARK   10  A    between atoms: C11_14  and  O2_15 
ROOT
HETATM    1  C8  UNL     1      26.479   2.489  51.889  1.00  0.00     0.086 C 
HETATM    2  C9  UNL     1      26.758   1.920  53.090  1.00  0.00    -0.051 C 
HETATM    3  C10 UNL     1      25.515   1.143  53.479  1.00  0.00     0.068 C 
HETATM    4  C11 UNL     1      25.891  -0.300  53.807  1.00  0.00     0.123 C 
HETATM    5  C12 UNL     1      27.111  -0.469  54.570  1.00  0.00     0.043 C 
HETATM    6  C13 UNL     1      28.510  -0.176  53.959  1.00  0.00    -0.017 A 
HETATM    7  C14 UNL     1      29.756  -1.055  53.870  1.00  0.00     0.012 A 
HETATM    8  C15 UNL     1      29.283   0.050  53.640  1.00  0.00    -0.011 A 
HETATM    9  C16 UNL     1      28.761   1.235  53.416  1.00  0.00    -0.004 A 
HETATM   10  C17 UNL     1      28.214   2.468  53.212  1.00  0.00     0.013 A 
HETATM   11  C18 UNL     1      29.009   1.289  53.402  1.00  0.00     0.025 A 
ENDROOT
BRANCH   1  12
HETATM   12  N2  UNL     1      25.236   2.270  51.313  1.00  0.00    -0.398 N 
HETATM   13  H15 UNL     1      24.426   1.712  51.595  1.00  0.00     0.158 HD
BRANCH  12  14
HETATM   14  C7  UNL     1      25.142   3.015  50.069  1.00  0.00     0.121 C 
BRANCH  14  15
HETATM   15  C6  UNL     1      26.523   3.539  49.688  1.00  0.00     0.046 C 
BRANCH  15  16
HETATM   16  C5  UNL     1      26.439   4.980  49.226  1.00  0.00     0.169 C 
BRANCH  16  17
HETATM   17  O1  UNL     1      25.253   5.602  49.521  1.00  0.00    -0.389 OA
BRANCH  17  18
HETATM   18  C4  UNL     1      25.331   6.758  50.254  1.00  0.00     0.187 C 
BRANCH  18  19
HETATM   19  C3  UNL     1      24.093   6.904  51.145  1.00  0.00     0.145 C 
BRANCH  19  20
HETATM   20  N1  UNL     1      24.125   5.921  52.194  1.00  0.00    -0.398 N 
HETATM   21  H4  UNL     1      24.923   5.802  52.851  1.00  0.00     0.158 HD
BRANCH  20  22
HETATM   22  C2  UNL     1      23.062   5.014  52.436  1.00  0.00     0.072 C 
HETATM   23  C1  UNL     1      22.186   4.491  51.602  1.00  0.00     0.029 C 
ENDBRANCH  20  22
ENDBRANCH  19  20
ENDBRANCH  18  19
ENDBRANCH  17  18
ENDBRANCH  16  17
ENDBRANCH  15  16
ENDBRANCH  14  15
ENDBRANCH  12  14
ENDBRANCH   1  12
BRANCH   4  24
HETATM   24  O2  UNL     1      25.901  -1.033  52.628  1.00  0.00    -0.395 OA
HETATM   25  H20 UNL     1      26.874  -1.175  52.411  1.00  0.00     0.210 HD
ENDBRANCH   4  24
TORSDOF 10
ENDMDL
MODEL 5
REMARK VINA RESULT:      -6.5      2.991      6.228
REMARK  10 active torsions:
REMARK  status: ('A' for Active; 'I' for Inactive)
REMARK    1  A    between atoms: C2_2  and  N1_3 
REMARK    2  A    between atoms: N1_3  and  C3_4 
REMARK    3  A    between atoms: C3_4  and  C4_5 
REMARK    4  A    between atoms: C4_5  and  O1_6 
REMARK    5  A    between atoms: O1_6  and  C5_7 
REMARK    6  A    between atoms: C5_7  and  C6_8 
REMARK    7  A    between atoms: C6_8  and  C7_9 
REMARK    8  A    between atoms: C7_9  and  N2_10 
REMARK    9  A    between atoms: N2_10  and  C8_11 
REMARK   10  A    between atoms: C11_14  and  O2_15 
ROOT
HETATM    1  C8  UNL     1      24.531  -0.159  53.081  1.00  0.00     0.086 C 
HETATM    2  C9  UNL     1      25.707   0.171  52.487  1.00  0.00    -0.051 C 
HETATM    3  C10 UNL     1      25.678   1.678  52.323  1.00  0.00     0.068 C 
HETATM    4  C11 UNL     1      26.940   2.286  52.933  1.00  0.00     0.123 C 
HETATM    5  C12 UNL     1      28.167   1.559  52.681  1.00  0.00     0.043 C 
HETATM    6  C13 UNL     1      28.448   0.172  53.325  1.00  0.00    -0.017 A 
HETATM    7  C14 UNL     1      29.634  -0.313  54.155  1.00  0.00     0.012 A 
HETATM    8  C15 UNL     1      28.575  -0.628  53.629  1.00  0.00    -0.011 A 
HETATM    9  C16 UNL     1      27.443  -0.952  53.044  1.00  0.00    -0.004 A 
HETATM   10  C17 UNL     1      26.280  -1.278  52.411  1.00  0.00     0.013 A 
HETATM   11  C18 UNL     1      27.545  -1.181  53.082  1.00  0.00     0.025 A 
ENDROOT
BRANCH   1  12
HETATM   12  N2  UNL     1      23.626   0.846  53.389  1.00  0.00    -0.398 N 
HETATM   13  H15 UNL     1      23.737   1.792  53.764  1.00  0.00     0.158 HD
BRANCH  12  14
HETATM   14  C7  UNL     1      22.278   0.392  53.092  1.00  0.00     0.121 C 
BRANCH  14  15
HETATM   15  C6  UNL     1      21.971   0.648  51.620  1.00  0.00     0.046 C 
BRANCH  15  16
HETATM   16  C5  UNL     1      22.099   2.124  51.297  1.00  0.00     0.169 C 
BRANCH  16  17
HETATM   17  O1  UNL     1      21.656   2.961  52.287  1.00  0.00    -0.389 OA
BRANCH  17  18
HETATM   18  C4  UNL     1      22.030   4.277  52.192  1.00  0.00     0.187 C 
BRANCH  18  19
HETATM   19  C3  UNL     1      23.465   4.458  52.698  1.00  0.00     0.145 C 
BRANCH  19  20
HETATM   20  N1  UNL     1      24.286   5.013  51.656  1.00  0.00    -0.398 N 
HETATM   21  H4  UNL     1      25.080   4.506  51.214  1.00  0.00     0.158 HD
BRANCH  20  22
HETATM   22  C2  UNL     1      24.090   6.315  51.128  1.00  0.00     0.072 C 
HETATM   23  C1  UNL     1      24.962   7.176  50.645  1.00  0.00     0.029 C 
ENDBRANCH  20  22
ENDBRANCH  19  20
ENDBRANCH  18  19
ENDBRANCH  17  18
ENDBRANCH  16  17
ENDBRANCH  15  16
ENDBRANCH  14  15
ENDBRANCH  12  14
ENDBRANCH   1  12
BRANCH   4  24
HETATM   24  O2  UNL     1      26.718   2.495  54.287  1.00  0.00    -0.395 OA
HETATM   25  H20 UNL     1      27.581   2.875  54.642  1.00  0.00     0.210 HD
ENDBRANCH   4  24
TORSDOF 10
ENDMDL
MODEL 6
REMARK VINA RESULT:      -6.5      3.226      6.187
REMARK  10 active torsions:
REMARK  status: ('A' for Active; 'I' for Inactive)
REMARK    1  A    between atoms: C2_2  and  N1_3 
REMARK    2  A    between atoms: N1_3  and  C3_4 
REMARK    3  A    between atoms: C3_4  and  C4_5 
REMARK    4  A    between atoms: C4_5  and  O1_6 
REMARK    5  A    between atoms: O1_6  and  C5_7 
REMARK    6  A    between atoms: C5_7  and  C6_8 
REMARK    7  A    between atoms: C6_8  and  C7_9 
REMARK    8  A    between atoms: C7_9  and  N2_10 
REMARK    9  A    between atoms: N2_10  and  C8_11 
REMARK   10  A    between atoms: C11_14  and  O2_15 
ROOT
HETATM    1  C8  UNL     1      26.597   2.388  51.923  1.00  0.00     0.086 C 
HETATM    2  C9  UNL     1      26.851   1.725  53.081  1.00  0.00    -0.051 C 
HETATM    3  C10 UNL     1      25.672   0.795  53.292  1.00  0.00     0.068 C 
HETATM    4  C11 UNL     1      26.174  -0.632  53.505  1.00  0.00     0.123 C 
HETATM    5  C12 UNL     1      27.349  -0.761  54.343  1.00  0.00     0.043 C 
HETATM    6  C13 UNL     1      28.749  -0.270  53.876  1.00  0.00    -0.017 A 
HETATM    7  C14 UNL     1      30.084  -1.009  53.800  1.00  0.00     0.012 A 
HETATM    8  C15 UNL     1      29.514   0.063  53.643  1.00  0.00    -0.011 A 
HETATM    9  C16 UNL     1      28.887   1.209  53.496  1.00  0.00    -0.004 A 
HETATM   10  C17 UNL     1      28.229   2.396  53.371  1.00  0.00     0.013 A 
HETATM   11  C18 UNL     1      29.129   1.287  53.506  1.00  0.00     0.025 A 
ENDROOT
BRANCH   1  12
HETATM   12  N2  UNL     1      25.427   2.112  51.232  1.00  0.00    -0.398 N 
HETATM   13  H15 UNL     1      24.975   1.239  50.947  1.00  0.00     0.158 HD
BRANCH  12  14
HETATM   14  C7  UNL     1      24.768   3.358  50.877  1.00  0.00     0.121 C 
BRANCH  14  15
HETATM   15  C6  UNL     1      23.274   3.238  51.158  1.00  0.00     0.046 C 
BRANCH  15  16
HETATM   16  C5  UNL     1      22.749   1.893  50.695  1.00  0.00     0.169 C 
BRANCH  16  17
HETATM   17  O1  UNL     1      22.556   0.983  51.702  1.00  0.00    -0.389 OA
BRANCH  17  18
HETATM   18  C4  UNL     1      21.886   1.429  52.812  1.00  0.00     0.187 C 
BRANCH  18  19
HETATM   19  C3  UNL     1      20.659   0.550  53.078  1.00  0.00     0.145 C 
BRANCH  19  20
HETATM   20  N1  UNL     1      20.709   0.032  54.419  1.00  0.00    -0.398 N 
HETATM   21  H4  UNL     1      20.210   0.462  55.224  1.00  0.00     0.158 HD
BRANCH  20  22
HETATM   22  C2  UNL     1      21.449  -1.125  54.773  1.00  0.00     0.072 C 
HETATM   23  C1  UNL     1      22.726  -1.259  55.069  1.00  0.00     0.029 C 
ENDBRANCH  20  22
ENDBRANCH  19  20
ENDBRANCH  18  19
ENDBRANCH  17  18
ENDBRANCH  16  17
ENDBRANCH  15  16
ENDBRANCH  14  15
ENDBRANCH  12  14
ENDBRANCH   1  12
BRANCH   4  24
HETATM   24  O2  UNL     1      26.342  -1.232  52.265  1.00  0.00    -0.395 OA
HETATM   25  H20 UNL     1      25.785  -2.070  52.298  1.00  0.00     0.210 HD
ENDBRANCH   4  24
TORSDOF 10
ENDMDL
MODEL 7
REMARK VINA RESULT:      -6.5      2.618      4.409
REMARK  10 active torsions:
REMARK  status: ('A' for Active; 'I' for Inactive)
REMARK    1  A    between atoms: C2_2  and  N1_3 
REMARK    2  A    between atoms: N1_3  and  C3_4 
REMARK    3  A    between atoms: C3_4  and  C4_5 
REMARK    4  A    between atoms: C4_5  and  O1_6 
REMARK    5  A    between atoms: O1_6  and  C5_7 
REMARK    6  A    between atoms: C5_7  and  C6_8 
REMARK    7  A    between atoms: C6_8  and  C7_9 
REMARK    8  A    between atoms: C7_9  and  N2_10 
REMARK    9  A    between atoms: N2_10  and  C8_11 
REMARK   10  A    between atoms: C11_14  and  O2_15 
ROOT
HETATM    1  C8  UNL     1      25.592   3.365  51.342  1.00  0.00     0.086 C 
HETATM    2  C9  UNL     1      25.423   4.027  50.169  1.00  0.00    -0.051 C 
HETATM    3  C10 UNL     1      24.343   5.059  50.428  1.00  0.00     0.068 C 
HETATM    4  C11 UNL     1      24.841   6.442  50.012  1.00  0.00     0.123 C 
HETATM    5  C12 UNL     1      25.595   6.487  48.776  1.00  0.00     0.043 C 
HETATM    6  C13 UNL     1      27.017   5.868  48.656  1.00  0.00    -0.017 A 
HETATM    7  C14 UNL     1      28.331   6.488  48.186  1.00  0.00     0.012 A 
HETATM    8  C15 UNL     1      27.779   5.467  48.572  1.00  0.00    -0.011 A 
HETATM    9  C16 UNL     1      27.165   4.376  48.972  1.00  0.00    -0.004 A 
HETATM   10  C17 UNL     1      26.509   3.247  49.366  1.00  0.00     0.013 A 
HETATM   11  C18 UNL     1      27.375   4.277  48.869  1.00  0.00     0.025 A 
ENDROOT
BRANCH   1  12
HETATM   12  N2  UNL     1      24.820   3.726  52.437  1.00  0.00    -0.398 N 
HETATM   13  H15 UNL     1      24.505   4.630  52.800  1.00  0.00     0.158 HD
BRANCH  12  14
HETATM   14  C7  UNL     1      24.416   2.532  53.159  1.00  0.00     0.121 C 
BRANCH  14  15
HETATM   15  C6  UNL     1      23.710   1.576  52.202  1.00  0.00     0.046 C 
BRANCH  15  16
HETATM   16  C5  UNL     1      22.244   1.937  52.071  1.00  0.00     0.169 C 
BRANCH  16  17
HETATM   17  O1  UNL     1      21.955   3.247  52.354  1.00  0.00    -0.389 OA
BRANCH  17  18
HETATM   18  C4  UNL     1      20.820   3.763  51.784  1.00  0.00     0.187 C 
BRANCH  18  19
HETATM   19  C3  UNL     1      20.491   3.015  50.487  1.00  0.00     0.145 C 
BRANCH  19  20
HETATM   20  N1  UNL     1      20.831   3.829  49.352  1.00  0.00    -0.398 N 
HETATM   21  H4  UNL     1      20.427   4.771  49.175  1.00  0.00     0.158 HD
BRANCH  20  22
HETATM   22  C2  UNL     1      21.758   3.422  48.358  1.00  0.00     0.072 C 
HETATM   23  C1  UNL     1      22.614   2.420  48.355  1.00  0.00     0.029 C 
ENDBRANCH  20  22
ENDBRANCH  19  20
ENDBRANCH  18  19
ENDBRANCH  17  18
ENDBRANCH  16  17
ENDBRANCH  15  16
ENDBRANCH  14  15
ENDBRANCH  12  14
ENDBRANCH   1  12
BRANCH   4  24
HETATM   24  O2  UNL     1      25.538   7.000  51.075  1.00  0.00    -0.395 OA
HETATM   25  H20 UNL     1      24.832   7.377  51.686  1.00  0.00     0.210 HD
ENDBRANCH   4  24
TORSDOF 10
ENDMDL
MODEL 8
REMARK VINA RESULT:      -6.4      2.251      6.785
REMARK  10 active torsions:
REMARK  status: ('A' for Active; 'I' for Inactive)
REMARK    1  A    between atoms: C2_2  and  N1_3 
REMARK    2  A    between atoms: N1_3  and  C3_4 
REMARK    3  A    between atoms: C3_4  and  C4_5 
REMARK    4  A    between atoms: C4_5  and  O1_6 
REMARK    5  A    between atoms: O1_6  and  C5_7 
REMARK    6  A    between atoms: C5_7  and  C6_8 
REMARK    7  A    between atoms: C6_8  and  C7_9 
REMARK    8  A    between atoms: C7_9  and  N2_10 
REMARK    9  A    between atoms: N2_10  and  C8_11 
REMARK   10  A    between atoms: C11_14  and  O2_15 
ROOT
HETATM    1  C8  UNL     1      23.931   3.316  51.664  1.00  0.00     0.086 C 
HETATM    2  C9  UNL     1      24.593   2.139  51.520  1.00  0.00    -0.051 C 
HETATM    3  C10 UNL     1      26.029   2.508  51.204  1.00  0.00     0.068 C 
HETATM    4  C11 UNL     1      26.970   1.796  52.175  1.00  0.00     0.123 C 
HETATM    5  C12 UNL     1      26.631   0.420  52.475  1.00  0.00     0.043 C 
HETATM    6  C13 UNL     1      25.377   0.046  53.314  1.00  0.00    -0.017 A 
HETATM    7  C14 UNL     1      25.247  -0.811  54.572  1.00  0.00     0.012 A 
HETATM    8  C15 UNL     1      24.645  -0.165  53.725  1.00  0.00    -0.011 A 
HETATM    9  C16 UNL     1      24.015   0.519  52.796  1.00  0.00    -0.004 A 
HETATM   10  C17 UNL     1      23.373   1.212  51.812  1.00  0.00     0.013 A 
HETATM   11  C18 UNL     1      23.824   0.382  52.892  1.00  0.00     0.025 A 
ENDROOT
BRANCH   1  12
HETATM   12  N2  UNL     1      24.629   4.505  51.508  1.00  0.00    -0.398 N 
HETATM   13  H15 UNL     1      25.604   4.766  51.672  1.00  0.00     0.158 HD
BRANCH  12  14
HETATM   14  C7  UNL     1      23.730   5.532  51.011  1.00  0.00     0.121 C 
BRANCH  14  15
HETATM   15  C6  UNL     1      24.192   5.982  49.629  1.00  0.00     0.046 C 
BRANCH  15  16
HETATM   16  C5  UNL     1      25.706   6.020  49.557  1.00  0.00     0.169 C 
BRANCH  16  17
HETATM   17  O1  UNL     1      26.266   4.979  48.864  1.00  0.00    -0.389 OA
BRANCH  17  18
HETATM   18  C4  UNL     1      27.609   5.068  48.602  1.00  0.00     0.187 C 
BRANCH  18  19
HETATM   19  C3  UNL     1      27.967   6.486  48.143  1.00  0.00     0.145 C 
BRANCH  19  20
HETATM   20  N1  UNL     1      28.989   7.033  48.996  1.00  0.00    -0.398 N 
HETATM   21  H4  UNL     1      28.845   7.253  50.002  1.00  0.00     0.158 HD
BRANCH  20  22
HETATM   22  C2  UNL     1      30.300   7.326  48.541  1.00  0.00     0.072 C 
HETATM   23  C1  UNL     1      31.454   7.254  49.173  1.00  0.00     0.029 C 
ENDBRANCH  20  22
ENDBRANCH  19  20
ENDBRANCH  18  19
ENDBRANCH  17  18
ENDBRANCH  16  17
ENDBRANCH  15  16
ENDBRANCH  14  15
ENDBRANCH  12  14
ENDBRANCH   1  12
BRANCH   4  24
HETATM   24  O2  UNL     1      27.091   2.571  53.321  1.00  0.00    -0.395 OA
HETATM   25  H20 UNL     1      26.191   3.006  53.444  1.00  0.00     0.210 HD
ENDBRANCH   4  24
TORSDOF 10
ENDMDL
MODEL 9
REMARK VINA RESULT:      -6.4      2.653      7.367
REMARK  10 active torsions:
REMARK  status: ('A' for Active; 'I' for Inactive)
REMARK    1  A    between atoms: C2_2  and  N1_3 
REMARK    2  A    between atoms: N1_3  and  C3_4 
REMARK    3  A    between atoms: C3_4  and  C4_5 
REMARK    4  A    between atoms: C4_5  and  O1_6 
REMARK    5  A    between atoms: O1_6  and  C5_7 
REMARK    6  A    between atoms: C5_7  and  C6_8 
REMARK    7  A    between atoms: C6_8  and  C7_9 
REMARK    8  A    between atoms: C7_9  and  N2_10 
REMARK    9  A    between atoms: N2_10  and  C8_11 
REMARK   10  A    between atoms: C11_14  and  O2_15 
ROOT
HETATM    1  C8  UNL     1      24.287  -0.843  53.597  1.00  0.00     0.086 C 
HETATM    2  C9  UNL     1      23.228  -0.073  53.957  1.00  0.00    -0.051 C 
HETATM    3  C10 UNL     1      23.349   1.201  53.144  1.00  0.00     0.068 C 
HETATM    4  C11 UNL     1      22.040   1.464  52.400  1.00  0.00     0.123 C 
HETATM    5  C12 UNL     1      20.831   1.206  53.156  1.00  0.00     0.043 C 
HETATM    6  C13 UNL     1      20.396  -0.236  53.544  1.00  0.00    -0.017 A 
HETATM    7  C14 UNL     1      19.079  -0.971  53.303  1.00  0.00     0.012 A 
HETATM    8  C15 UNL     1      20.189  -1.031  53.816  1.00  0.00    -0.011 A 
HETATM    9  C16 UNL     1      21.378  -1.069  54.373  1.00  0.00    -0.004 A 
HETATM   10  C17 UNL     1      22.606  -1.086  54.967  1.00  0.00     0.013 A 
HETATM   11  C18 UNL     1      21.262  -1.259  54.496  1.00  0.00     0.025 A 
ENDROOT
BRANCH   1  12
HETATM   12  N2  UNL     1      25.181  -0.361  52.653  1.00  0.00    -0.398 N 
HETATM   13  H15 UNL     1      25.113   0.368  51.938  1.00  0.00     0.158 HD
BRANCH  12  14
HETATM   14  C7  UNL     1      26.438  -1.082  52.763  1.00  0.00     0.121 C 
BRANCH  14  15
HETATM   15  C6  UNL     1      27.223  -0.548  53.958  1.00  0.00     0.046 C 
BRANCH  15  16
HETATM   16  C5  UNL     1      27.858   0.788  53.627  1.00  0.00     0.169 C 
BRANCH  16  17
HETATM   17  O1  UNL     1      26.977   1.739  53.182  1.00  0.00    -0.389 OA
BRANCH  17  18
HETATM   18  C4  UNL     1      27.395   2.524  52.138  1.00  0.00     0.187 C 
BRANCH  18  19
HETATM   19  C3  UNL     1      26.373   2.477  50.997  1.00  0.00     0.145 C 
BRANCH  19  20
HETATM   20  N1  UNL     1      25.809   3.784  50.791  1.00  0.00    -0.398 N 
HETATM   21  H4  UNL     1      25.098   4.212  51.417  1.00  0.00     0.158 HD
BRANCH  20  22
HETATM   22  C2  UNL     1      26.174   4.621  49.705  1.00  0.00     0.072 C 
HETATM   23  C1  UNL     1      27.197   4.542  48.879  1.00  0.00     0.029 C 
ENDBRANCH  20  22
ENDBRANCH  19  20
ENDBRANCH  18  19
ENDBRANCH  17  18
ENDBRANCH  16  17
ENDBRANCH  15  16
ENDBRANCH  14  15
ENDBRANCH  12  14
ENDBRANCH   1  12
BRANCH   4  24
HETATM   24  O2  UNL     1      22.069   0.772  51.198  1.00  0.00    -0.395 OA
HETATM   25  H20 UNL     1      21.605  -0.103  51.384  1.00  0.00     0.210 HD
ENDBRANCH   4  24
TORSDOF 10
ENDMDL
