MODEL 1
REMARK VINA RESULT:      -8.7      0.000      0.000
REMARK  2 active torsions:
REMARK  status: ('A' for Active; 'I' for Inactive)
REMARK    1  A    between atoms: C4_4  and  N1_5 
REMARK    2  A    between atoms: N1_5  and  C5_6 
ROOT
HETATM    1  C1  UNL     1      24.168   3.470  53.232  1.00  0.00     0.020 C 
HETATM    2  C2  UNL     1      25.131   2.745  53.336  1.00  0.00    -0.050 C 
HETATM    3  C3  UNL     1      26.286   1.892  53.446  1.00  0.00     0.151 A 
HETATM    4  C4  UNL     1      26.219   0.605  53.131  1.00  0.00     0.105 A 
HETATM    5  C11 UNL     1      27.362  -0.297  53.227  1.00  0.00     0.095 A 
HETATM    6  N2  UNL     1      27.319  -1.599  52.916  1.00  0.00    -0.258 NA
HETATM    7  C12 UNL     1      28.429  -2.358  53.036  1.00  0.00     0.117 A 
HETATM    8  C13 UNL     1      29.668  -1.877  53.476  1.00  0.00     0.020 A 
HETATM    9  C14 UNL     1      29.711  -0.516  53.801  1.00  0.00     0.013 A 
HETATM   10  C15 UNL     1      28.562   0.222  53.666  1.00  0.00    -0.003 A 
HETATM   11  C16 UNL     1      28.683   1.638  54.024  1.00  0.00     0.217 A 
HETATM   12  O1  UNL     1      27.504   2.363  53.878  1.00  0.00    -0.336 OA
ENDROOT
BRANCH   4  13
HETATM   13  N1  UNL     1      24.977   0.099  52.685  1.00  0.00    -0.352 N 
HETATM   14  H2  UNL     1      24.868  -0.117  51.665  1.00  0.00     0.166 HD
BRANCH  13  15
HETATM   15  C5  UNL     1      23.694  -0.263  53.139  1.00  0.00     0.034 A 
HETATM   16  C6  UNL     1      23.584  -0.982  54.333  1.00  0.00     0.032 A 
HETATM   17  C7  UNL     1      22.344  -1.372  54.839  1.00  0.00     0.046 A 
HETATM   18  C8  UNL     1      21.249  -1.004  54.087  1.00  0.00     0.138 A 
HETATM   19  F1  UNL     1      20.033  -1.364  54.545  1.00  0.00    -0.204 F 
HETATM   20  C9  UNL     1      21.275  -0.291  52.892  1.00  0.00     0.074 A 
HETATM   21 CL1  UNL     1      19.798   0.097  52.060  1.00  0.00    -0.081 Cl
HETATM   22  C10 UNL     1      22.545   0.069  52.442  1.00  0.00     0.056 A 
ENDBRANCH  13  15
ENDBRANCH   4  13
TORSDOF 2
ENDMDL
MODEL 2
REMARK VINA RESULT:      -8.6      3.595      6.196
REMARK  2 active torsions:
REMARK  status: ('A' for Active; 'I' for Inactive)
REMARK    1  A    between atoms: C4_4  and  N1_5 
REMARK    2  A    between atoms: N1_5  and  C5_6 
ROOT
HETATM    1  C1  UNL     1      25.622   3.260  50.295  1.00  0.00     0.020 C 
HETATM    2  C2  UNL     1      24.850   2.507  50.842  1.00  0.00    -0.050 C 
HETATM    3  C3  UNL     1      23.919   1.624  51.497  1.00  0.00     0.151 A 
HETATM    4  C4  UNL     1      24.232   1.022  52.636  1.00  0.00     0.105 A 
HETATM    5  C11 UNL     1      23.322   0.120  53.334  1.00  0.00     0.095 A 
HETATM    6  N2  UNL     1      23.615  -0.501  54.485  1.00  0.00    -0.258 NA
HETATM    7  C12 UNL     1      22.709  -1.319  55.060  1.00  0.00     0.117 A 
HETATM    8  C13 UNL     1      21.440  -1.583  54.531  1.00  0.00     0.020 A 
HETATM    9  C14 UNL     1      21.135  -0.936  53.329  1.00  0.00     0.013 A 
HETATM   10  C15 UNL     1      22.082  -0.111  52.776  1.00  0.00    -0.003 A 
HETATM   11  C16 UNL     1      21.692   0.533  51.518  1.00  0.00     0.217 A 
HETATM   12  O1  UNL     1      22.671   1.363  50.979  1.00  0.00    -0.336 OA
ENDROOT
BRANCH   4  13
HETATM   13  N1  UNL     1      25.508   1.274  53.186  1.00  0.00    -0.352 N 
HETATM   14  H2  UNL     1      25.657   2.175  53.702  1.00  0.00     0.166 HD
BRANCH  13  15
HETATM   15  C5  UNL     1      26.795   0.716  53.319  1.00  0.00     0.034 A 
HETATM   16  C6  UNL     1      27.857   1.554  53.671  1.00  0.00     0.032 A 
HETATM   17  C7  UNL     1      29.155   1.066  53.820  1.00  0.00     0.046 A 
HETATM   18  C8  UNL     1      29.314  -0.285  53.597  1.00  0.00     0.138 A 
HETATM   19  F1  UNL     1      30.556  -0.793  53.731  1.00  0.00    -0.204 F 
HETATM   20  C9  UNL     1      28.312  -1.183  53.245  1.00  0.00     0.074 A 
HETATM   21 CL1  UNL     1      28.677  -2.865  52.998  1.00  0.00    -0.081 Cl
HETATM   22  C10 UNL     1      27.038  -0.631  53.113  1.00  0.00     0.056 A 
ENDBRANCH  13  15
ENDBRANCH   4  13
TORSDOF 2
ENDMDL
MODEL 3
REMARK VINA RESULT:      -8.5      3.894      6.558
REMARK  2 active torsions:
REMARK  status: ('A' for Active; 'I' for Inactive)
REMARK    1  A    between atoms: C4_4  and  N1_5 
REMARK    2  A    between atoms: N1_5  and  C5_6 
ROOT
HETATM    1  C1  UNL     1      23.024  -1.361  55.233  1.00  0.00     0.020 C 
HETATM    2  C2  UNL     1      22.926  -0.718  54.213  1.00  0.00    -0.050 C 
HETATM    3  C3  UNL     1      22.808   0.031  52.988  1.00  0.00     0.151 A 
HETATM    4  C4  UNL     1      23.763   0.868  52.604  1.00  0.00     0.105 A 
HETATM    5  C11 UNL     1      23.687   1.647  51.373  1.00  0.00     0.095 A 
HETATM    6  N2  UNL     1      24.637   2.498  50.963  1.00  0.00    -0.258 NA
HETATM    7  C12 UNL     1      24.481   3.178  49.808  1.00  0.00     0.117 A 
HETATM    8  C13 UNL     1      23.366   3.061  48.970  1.00  0.00     0.020 A 
HETATM    9  C14 UNL     1      22.373   2.172  49.399  1.00  0.00     0.013 A 
HETATM   10  C15 UNL     1      22.569   1.500  50.579  1.00  0.00    -0.003 A 
HETATM   11  C16 UNL     1      21.489   0.586  50.964  1.00  0.00     0.217 A 
HETATM   12  O1  UNL     1      21.712  -0.083  52.164  1.00  0.00    -0.336 OA
ENDROOT
BRANCH   4  13
HETATM   13  N1  UNL     1      24.897   1.000  53.435  1.00  0.00    -0.352 N 
HETATM   14  H2  UNL     1      24.760   1.371  54.406  1.00  0.00     0.166 HD
BRANCH  13  15
HETATM   15  C5  UNL     1      26.292   0.802  53.457  1.00  0.00     0.034 A 
HETATM   16  C6  UNL     1      27.125   1.914  53.615  1.00  0.00     0.032 A 
HETATM   17  C7  UNL     1      28.514   1.787  53.646  1.00  0.00     0.046 A 
HETATM   18  C8  UNL     1      29.000   0.505  53.509  1.00  0.00     0.138 A 
HETATM   19  F1  UNL     1      30.339   0.344  53.533  1.00  0.00    -0.204 F 
HETATM   20  C9  UNL     1      28.241  -0.649  53.347  1.00  0.00     0.074 A 
HETATM   21 CL1  UNL     1      29.009  -2.201  53.188  1.00  0.00    -0.081 Cl
HETATM   22  C10 UNL     1      26.859  -0.454  53.326  1.00  0.00     0.056 A 
ENDBRANCH  13  15
ENDBRANCH   4  13
TORSDOF 2
ENDMDL
MODEL 4
REMARK VINA RESULT:      -8.3      3.773      6.328
REMARK  2 active torsions:
REMARK  status: ('A' for Active; 'I' for Inactive)
REMARK    1  A    between atoms: C4_4  and  N1_5 
REMARK    2  A    between atoms: N1_5  and  C5_6 
ROOT
HETATM    1  C1  UNL     1      26.997   4.139  49.324  1.00  0.00     0.020 C 
HETATM    2  C2  UNL     1      25.995   3.539  49.642  1.00  0.00    -0.050 C 
HETATM    3  C3  UNL     1      24.793   2.841  50.019  1.00  0.00     0.151 A 
HETATM    4  C4  UNL     1      24.710   2.198  51.177  1.00  0.00     0.105 A 
HETATM    5  C11 UNL     1      23.514   1.478  51.600  1.00  0.00     0.095 A 
HETATM    6  N2  UNL     1      23.405   0.821  52.763  1.00  0.00    -0.258 NA
HETATM    7  C12 UNL     1      22.258   0.182  53.072  1.00  0.00     0.117 A 
HETATM    8  C13 UNL     1      21.129   0.147  52.245  1.00  0.00     0.020 A 
HETATM    9  C14 UNL     1      21.243   0.832  51.030  1.00  0.00     0.013 A 
HETATM   10  C15 UNL     1      22.426   1.471  50.752  1.00  0.00    -0.003 A 
HETATM   11  C16 UNL     1      22.473   2.168  49.464  1.00  0.00     0.217 A 
HETATM   12  O1  UNL     1      23.683   2.806  49.207  1.00  0.00    -0.336 OA
ENDROOT
BRANCH   4  13
HETATM   13  N1  UNL     1      25.838   2.221  52.026  1.00  0.00    -0.352 N 
HETATM   14  H2  UNL     1      26.102   3.130  52.476  1.00  0.00     0.166 HD
BRANCH  13  15
HETATM   15  C5  UNL     1      26.852   1.398  52.554  1.00  0.00     0.034 A 
HETATM   16  C6  UNL     1      27.910   1.996  53.244  1.00  0.00     0.032 A 
HETATM   17  C7  UNL     1      28.946   1.239  53.792  1.00  0.00     0.046 A 
HETATM   18  C8  UNL     1      28.853  -0.123  53.606  1.00  0.00     0.138 A 
HETATM   19  F1  UNL     1      29.837  -0.887  54.122  1.00  0.00    -0.204 F 
HETATM   20  C9  UNL     1      27.837  -0.794  52.934  1.00  0.00     0.074 A 
HETATM   21 CL1  UNL     1      27.864  -2.526  52.786  1.00  0.00    -0.081 Cl
HETATM   22  C10 UNL     1      26.832   0.021  52.411  1.00  0.00     0.056 A 
ENDBRANCH  13  15
ENDBRANCH   4  13
TORSDOF 2
ENDMDL
MODEL 5
REMARK VINA RESULT:      -8.2      3.539      5.981
REMARK  2 active torsions:
REMARK  status: ('A' for Active; 'I' for Inactive)
REMARK    1  A    between atoms: C4_4  and  N1_5 
REMARK    2  A    between atoms: N1_5  and  C5_6 
ROOT
HETATM    1  C1  UNL     1      28.652   0.604  53.553  1.00  0.00     0.020 C 
HETATM    2  C2  UNL     1      27.505   0.292  53.777  1.00  0.00    -0.050 C 
HETATM    3  C3  UNL     1      26.144  -0.098  54.044  1.00  0.00     0.151 A 
HETATM    4  C4  UNL     1      25.170   0.195  53.193  1.00  0.00     0.105 A 
HETATM    5  C11 UNL     1      23.778  -0.179  53.422  1.00  0.00     0.095 A 
HETATM    6  N2  UNL     1      22.776   0.105  52.578  1.00  0.00    -0.258 NA
HETATM    7  C12 UNL     1      21.517  -0.282  52.872  1.00  0.00     0.117 A 
HETATM    8  C13 UNL     1      21.158  -0.981  54.031  1.00  0.00     0.020 A 
HETATM    9  C14 UNL     1      22.205  -1.276  54.912  1.00  0.00     0.013 A 
HETATM   10  C15 UNL     1      23.472  -0.867  54.577  1.00  0.00    -0.003 A 
HETATM   11  C16 UNL     1      24.516  -1.212  55.546  1.00  0.00     0.217 A 
HETATM   12  O1  UNL     1      25.790  -0.785  55.182  1.00  0.00    -0.336 OA
ENDROOT
BRANCH   4  13
HETATM   13  N1  UNL     1      25.510   0.900  52.018  1.00  0.00    -0.352 N 
HETATM   14  H2  UNL     1      25.988   0.376  51.246  1.00  0.00     0.166 HD
BRANCH  13  15
HETATM   15  C5  UNL     1      25.444   2.177  51.426  1.00  0.00     0.034 A 
HETATM   16  C6  UNL     1      24.387   3.023  51.775  1.00  0.00     0.032 A 
HETATM   17  C7  UNL     1      24.262   4.300  51.227  1.00  0.00     0.046 A 
HETATM   18  C8  UNL     1      25.241   4.662  50.328  1.00  0.00     0.138 A 
HETATM   19  F1  UNL     1      25.153   5.890  49.776  1.00  0.00    -0.204 F 
HETATM   20  C9  UNL     1      26.321   3.881  49.928  1.00  0.00     0.074 A 
HETATM   21 CL1  UNL     1      27.476   4.486  48.778  1.00  0.00    -0.081 Cl
HETATM   22  C10 UNL     1      26.388   2.616  50.514  1.00  0.00     0.056 A 
ENDBRANCH  13  15
ENDBRANCH   4  13
TORSDOF 2
ENDMDL
MODEL 6
REMARK VINA RESULT:      -8.2      4.318      6.433
REMARK  2 active torsions:
REMARK  status: ('A' for Active; 'I' for Inactive)
REMARK    1  A    between atoms: C4_4  and  N1_5 
REMARK    2  A    between atoms: N1_5  and  C5_6 
ROOT
HETATM    1  C1  UNL     1      22.808   0.786  53.169  1.00  0.00     0.020 C 
HETATM    2  C2  UNL     1      23.281   1.666  52.487  1.00  0.00    -0.050 C 
HETATM    3  C3  UNL     1      23.828   2.711  51.661  1.00  0.00     0.151 A 
HETATM    4  C4  UNL     1      25.035   2.596  51.121  1.00  0.00     0.105 A 
HETATM    5  C11 UNL     1      25.630   3.628  50.280  1.00  0.00     0.095 A 
HETATM    6  N2  UNL     1      26.846   3.535  49.723  1.00  0.00    -0.258 NA
HETATM    7  C12 UNL     1      27.316   4.541  48.958  1.00  0.00     0.117 A 
HETATM    8  C13 UNL     1      26.610   5.720  48.686  1.00  0.00     0.020 A 
HETATM    9  C14 UNL     1      25.341   5.817  49.267  1.00  0.00     0.013 A 
HETATM   10  C15 UNL     1      24.898   4.772  50.039  1.00  0.00    -0.003 A 
HETATM   11  C16 UNL     1      23.560   4.943  50.614  1.00  0.00     0.217 A 
HETATM   12  O1  UNL     1      23.136   3.870  51.393  1.00  0.00    -0.336 OA
ENDROOT
BRANCH   4  13
HETATM   13  N1  UNL     1      25.764   1.415  51.383  1.00  0.00    -0.352 N 
HETATM   14  H2  UNL     1      25.542   0.560  50.819  1.00  0.00     0.166 HD
BRANCH  13  15
HETATM   15  C5  UNL     1      26.784   0.894  52.203  1.00  0.00     0.034 A 
HETATM   16  C6  UNL     1      26.935  -0.493  52.287  1.00  0.00     0.032 A 
HETATM   17  C7  UNL     1      27.926  -1.074  53.079  1.00  0.00     0.046 A 
HETATM   18  C8  UNL     1      28.734  -0.194  53.764  1.00  0.00     0.138 A 
HETATM   19  F1  UNL     1      29.703  -0.720  54.541  1.00  0.00    -0.204 F 
HETATM   20  C9  UNL     1      28.650   1.194  53.735  1.00  0.00     0.074 A 
HETATM   21 CL1  UNL     1      29.750   2.170  54.662  1.00  0.00    -0.081 Cl
HETATM   22  C10 UNL     1      27.639   1.711  52.923  1.00  0.00     0.056 A 
ENDBRANCH  13  15
ENDBRANCH   4  13
TORSDOF 2
ENDMDL
MODEL 7
REMARK VINA RESULT:      -8.0      3.615      6.214
REMARK  2 active torsions:
REMARK  status: ('A' for Active; 'I' for Inactive)
REMARK    1  A    between atoms: C4_4  and  N1_5 
REMARK    2  A    between atoms: N1_5  and  C5_6 
ROOT
HETATM    1  C1  UNL     1      24.735   3.928  50.139  1.00  0.00     0.020 C 
HETATM    2  C2  UNL     1      23.996   3.243  50.808  1.00  0.00    -0.050 C 
HETATM    3  C3  UNL     1      23.115   2.441  51.617  1.00  0.00     0.151 A 
HETATM    4  C4  UNL     1      23.502   1.263  52.089  1.00  0.00     0.105 A 
HETATM    5  C11 UNL     1      22.645   0.416  52.911  1.00  0.00     0.095 A 
HETATM    6  N2  UNL     1      23.012  -0.777  53.399  1.00  0.00    -0.258 NA
HETATM    7  C12 UNL     1      22.151  -1.491  54.152  1.00  0.00     0.117 A 
HETATM    8  C13 UNL     1      20.855  -1.073  54.479  1.00  0.00     0.020 A 
HETATM    9  C14 UNL     1      20.472   0.172  53.968  1.00  0.00     0.013 A 
HETATM   10  C15 UNL     1      21.376   0.870  53.207  1.00  0.00    -0.003 A 
HETATM   11  C16 UNL     1      20.905   2.165  52.708  1.00  0.00     0.217 A 
HETATM   12  O1  UNL     1      21.841   2.851  51.938  1.00  0.00    -0.336 OA
ENDROOT
BRANCH   4  13
HETATM   13  N1  UNL     1      24.806   0.822  51.771  1.00  0.00    -0.352 N 
HETATM   14  H2  UNL     1      25.016   0.575  50.774  1.00  0.00     0.166 HD
BRANCH  13  15
HETATM   15  C5  UNL     1      26.065   0.561  52.346  1.00  0.00     0.034 A 
HETATM   16  C6  UNL     1      26.489  -0.767  52.455  1.00  0.00     0.032 A 
HETATM   17  C7  UNL     1      27.725  -1.095  53.014  1.00  0.00     0.046 A 
HETATM   18  C8  UNL     1      28.486  -0.031  53.447  1.00  0.00     0.138 A 
HETATM   19  F1  UNL     1      29.687  -0.310  53.994  1.00  0.00    -0.204 F 
HETATM   20  C9  UNL     1      28.136   1.313  53.375  1.00  0.00     0.074 A 
HETATM   21 CL1  UNL     1      29.213   2.543  53.968  1.00  0.00    -0.081 Cl
HETATM   22  C10 UNL     1      26.889   1.573  52.805  1.00  0.00     0.056 A 
ENDBRANCH  13  15
ENDBRANCH   4  13
TORSDOF 2
ENDMDL
MODEL 8
REMARK VINA RESULT:      -7.4      4.025      5.957
REMARK  2 active torsions:
REMARK  status: ('A' for Active; 'I' for Inactive)
REMARK    1  A    between atoms: C4_4  and  N1_5 
REMARK    2  A    between atoms: N1_5  and  C5_6 
ROOT
HETATM    1  C1  UNL     1      26.604   2.838  50.805  1.00  0.00     0.020 C 
HETATM    2  C2  UNL     1      25.879   2.148  51.484  1.00  0.00    -0.050 C 
HETATM    3  C3  UNL     1      25.021   1.310  52.282  1.00  0.00     0.151 A 
HETATM    4  C4  UNL     1      23.702   1.448  52.245  1.00  0.00     0.105 A 
HETATM    5  C11 UNL     1      22.795   0.623  53.036  1.00  0.00     0.095 A 
HETATM    6  N2  UNL     1      21.461   0.743  53.016  1.00  0.00    -0.258 NA
HETATM    7  C12 UNL     1      20.700  -0.065  53.783  1.00  0.00     0.117 A 
HETATM    8  C13 UNL     1      21.210  -1.056  54.630  1.00  0.00     0.020 A 
HETATM    9  C14 UNL     1      22.604  -1.180  54.651  1.00  0.00     0.013 A 
HETATM   10  C15 UNL     1      23.343  -0.340  53.857  1.00  0.00    -0.003 A 
HETATM   11  C16 UNL     1      24.795  -0.528  53.930  1.00  0.00     0.217 A 
HETATM   12  O1  UNL     1      25.521   0.336  53.116  1.00  0.00    -0.336 OA
ENDROOT
BRANCH   4  13
HETATM   13  N1  UNL     1      23.167   2.442  51.396  1.00  0.00    -0.352 N 
HETATM   14  H2  UNL     1      22.907   3.366  51.818  1.00  0.00     0.166 HD
BRANCH  13  15
HETATM   15  C5  UNL     1      22.813   2.690  50.056  1.00  0.00     0.034 A 
HETATM   16  C6  UNL     1      22.231   1.658  49.314  1.00  0.00     0.032 A 
HETATM   17  C7  UNL     1      21.856   1.837  47.982  1.00  0.00     0.046 A 
HETATM   18  C8  UNL     1      22.099   3.087  47.456  1.00  0.00     0.138 A 
HETATM   19  F1  UNL     1      21.750   3.297  46.170  1.00  0.00    -0.204 F 
HETATM   20  C9  UNL     1      22.673   4.163  48.125  1.00  0.00     0.074 A 
HETATM   21 CL1  UNL     1      22.913   5.684  47.317  1.00  0.00    -0.081 Cl
HETATM   22  C10 UNL     1      23.024   3.919  49.454  1.00  0.00     0.056 A 
ENDBRANCH  13  15
ENDBRANCH   4  13
TORSDOF 2
ENDMDL
MODEL 9
REMARK VINA RESULT:      -7.3      4.875      6.160
REMARK  2 active torsions:
REMARK  status: ('A' for Active; 'I' for Inactive)
REMARK    1  A    between atoms: C4_4  and  N1_5 
REMARK    2  A    between atoms: N1_5  and  C5_6 
ROOT
HETATM    1  C1  UNL     1      26.938   5.002  48.895  1.00  0.00     0.020 C 
HETATM    2  C2  UNL     1      26.592   4.128  49.657  1.00  0.00    -0.050 C 
HETATM    3  C3  UNL     1      26.190   3.075  50.553  1.00  0.00     0.151 A 
HETATM    4  C4  UNL     1      24.908   2.814  50.769  1.00  0.00     0.105 A 
HETATM    5  C11 UNL     1      24.453   1.758  51.668  1.00  0.00     0.095 A 
HETATM    6  N2  UNL     1      23.165   1.474  51.903  1.00  0.00    -0.258 NA
HETATM    7  C12 UNL     1      22.838   0.478  52.752  1.00  0.00     0.117 A 
HETATM    8  C13 UNL     1      23.770  -0.315  53.433  1.00  0.00     0.020 A 
HETATM    9  C14 UNL     1      25.115  -0.018  53.188  1.00  0.00     0.013 A 
HETATM   10  C15 UNL     1      25.408   1.003  52.318  1.00  0.00    -0.003 A 
HETATM   11  C16 UNL     1      26.836   1.256  52.109  1.00  0.00     0.217 A 
HETATM   12  O1  UNL     1      27.105   2.296  51.223  1.00  0.00    -0.336 OA
ENDROOT
BRANCH   4  13
HETATM   13  N1  UNL     1      23.951   3.601  50.092  1.00  0.00    -0.352 N 
HETATM   14  H2  UNL     1      23.553   4.435  50.589  1.00  0.00     0.166 HD
BRANCH  13  15
HETATM   15  C5  UNL     1      23.254   3.704  48.873  1.00  0.00     0.034 A 
HETATM   16  C6  UNL     1      22.732   2.540  48.299  1.00  0.00     0.032 A 
HETATM   17  C7  UNL     1      22.030   2.571  47.094  1.00  0.00     0.046 A 
HETATM   18  C8  UNL     1      21.892   3.814  46.515  1.00  0.00     0.138 A 
HETATM   19  F1  UNL     1      21.220   3.883  45.348  1.00  0.00    -0.204 F 
HETATM   20  C9  UNL     1      22.380   5.015  47.020  1.00  0.00     0.074 A 
HETATM   21 CL1  UNL     1      22.120   6.507  46.165  1.00  0.00    -0.081 Cl
HETATM   22  C10 UNL     1      23.071   4.915  48.228  1.00  0.00     0.056 A 
ENDBRANCH  13  15
ENDBRANCH   4  13
TORSDOF 2
ENDMDL
