MODEL 1
REMARK VINA RESULT:      -8.5      0.000      0.000
REMARK  2 active torsions:
REMARK  status: ('A' for Active; 'I' for Inactive)
REMARK    1  A    between atoms: O1_1  and  C1_2 
REMARK    2  A    between atoms: C15_18  and  O3_19 
ROOT
HETATM    1  C1  UNL     1      20.104  -0.899  53.641  1.00  0.00     0.064 A 
HETATM    2  C2  UNL     1      20.267   0.083  52.774  1.00  0.00     0.046 A 
HETATM    3  C3  UNL     1      21.416   0.931  52.390  1.00  0.00     0.189 A 
HETATM    4  O2  UNL     1      21.045   2.275  52.570  1.00  0.00    -0.331 OA
HETATM    5  C4  UNL     1      21.602   3.489  52.109  1.00  0.00     0.252 C 
HETATM    6  N1  UNL     1      22.860   3.776  51.868  1.00  0.00    -0.241 NA
HETATM    7  C5  UNL     1      24.125   3.155  52.192  1.00  0.00     0.043 C 
HETATM    8  C6  UNL     1      24.360   2.254  53.160  1.00  0.00     0.035 C 
HETATM    9  C7  UNL     1      23.906   0.849  53.352  1.00  0.00    -0.047 C 
HETATM   10  C8  UNL     1      22.588   0.524  53.184  1.00  0.00    -0.019 A 
HETATM   11  C9  UNL     1      22.423  -0.574  54.164  1.00  0.00     0.013 A 
HETATM   12  C10 UNL     1      21.306  -1.236  54.390  1.00  0.00     0.037 A 
HETATM   13  C11 UNL     1      24.530  -0.427  53.713  1.00  0.00     0.045 C 
HETATM   14  C12 UNL     1      25.820  -0.352  52.911  1.00  0.00     0.003 C 
HETATM   15  C13 UNL     1      25.889   0.827  52.249  1.00  0.00     0.023 C 
HETATM   16  C14 UNL     1      26.742   1.620  51.323  1.00  0.00     0.011 C 
HETATM   17  C15 UNL     1      26.246   2.811  51.006  1.00  0.00     0.045 C 
HETATM   18  C16 UNL     1      25.099   3.733  51.228  1.00  0.00     0.123 C 
ENDROOT
BRANCH   1  19
HETATM   19  O1  UNL     1      18.939  -1.587  53.868  1.00  0.00    -0.361 OA
HETATM   20  H1  UNL     1      18.812  -2.113  54.729  1.00  0.00     0.217 HD
ENDBRANCH   1  19
BRANCH  17  21
HETATM   21  O3  UNL     1      26.993   3.629  50.127  1.00  0.00    -0.365 OA
HETATM   22  H13 UNL     1      27.996   3.762  50.290  1.00  0.00     0.217 HD
ENDBRANCH  17  21
TORSDOF 2
ENDMDL
MODEL 2
REMARK VINA RESULT:      -8.3      1.942      5.438
REMARK  2 active torsions:
REMARK  status: ('A' for Active; 'I' for Inactive)
REMARK    1  A    between atoms: O1_1  and  C1_2 
REMARK    2  A    between atoms: C15_18  and  O3_19 
ROOT
HETATM    1  C1  UNL     1      26.238   2.042  53.746  1.00  0.00     0.064 A 
HETATM    2  C2  UNL     1      25.261   2.594  53.050  1.00  0.00     0.046 A 
HETATM    3  C3  UNL     1      23.934   2.124  52.596  1.00  0.00     0.189 A 
HETATM    4  O2  UNL     1      23.878   2.261  51.199  1.00  0.00    -0.331 OA
HETATM    5  C4  UNL     1      22.804   2.251  50.281  1.00  0.00     0.252 C 
HETATM    6  N1  UNL     1      21.670   1.593  50.350  1.00  0.00    -0.241 NA
HETATM    7  C5  UNL     1      21.180   0.495  51.153  1.00  0.00     0.043 C 
HETATM    8  C6  UNL     1      21.913  -0.396  51.840  1.00  0.00     0.035 C 
HETATM    9  C7  UNL     1      22.805  -0.258  53.024  1.00  0.00    -0.047 C 
HETATM   10  C8  UNL     1      23.736   0.743  53.069  1.00  0.00    -0.019 A 
HETATM   11  C9  UNL     1      24.823   0.107  53.848  1.00  0.00     0.013 A 
HETATM   12  C10 UNL     1      25.968   0.676  54.169  1.00  0.00     0.037 A 
HETATM   13  C11 UNL     1      23.002  -0.966  54.292  1.00  0.00     0.045 C 
HETATM   14  C12 UNL     1      21.560  -1.232  54.697  1.00  0.00     0.003 C 
HETATM   15  C13 UNL     1      20.716  -0.766  53.747  1.00  0.00     0.023 C 
HETATM   16  C14 UNL     1      19.275  -0.636  53.400  1.00  0.00     0.011 C 
HETATM   17  C15 UNL     1      19.043  -0.048  52.231  1.00  0.00     0.045 C 
HETATM   18  C16 UNL     1      19.698   0.570  51.047  1.00  0.00     0.123 C 
ENDROOT
BRANCH   1  19
HETATM   19  O1  UNL     1      27.426   2.642  54.080  1.00  0.00    -0.361 OA
HETATM   20  H1  UNL     1      27.988   2.278  54.845  1.00  0.00     0.217 HD
ENDBRANCH   1  19
BRANCH  17  21
HETATM   21  O3  UNL     1      17.699   0.118  51.827  1.00  0.00    -0.365 OA
HETATM   22  H13 UNL     1      17.089   0.755  52.350  1.00  0.00     0.217 HD
ENDBRANCH  17  21
TORSDOF 2
ENDMDL
MODEL 3
REMARK VINA RESULT:      -8.3      2.399      3.493
REMARK  2 active torsions:
REMARK  status: ('A' for Active; 'I' for Inactive)
REMARK    1  A    between atoms: O1_1  and  C1_2 
REMARK    2  A    between atoms: C15_18  and  O3_19 
ROOT
HETATM    1  C1  UNL     1      19.914  -0.323  53.613  1.00  0.00     0.064 A 
HETATM    2  C2  UNL     1      20.826  -0.342  54.567  1.00  0.00     0.046 A 
HETATM    3  C3  UNL     1      22.292  -0.146  54.589  1.00  0.00     0.189 A 
HETATM    4  O2  UNL     1      22.876  -1.288  55.163  1.00  0.00    -0.331 OA
HETATM    5  C4  UNL     1      24.162  -1.539  55.693  1.00  0.00     0.252 C 
HETATM    6  N1  UNL     1      25.314  -1.023  55.332  1.00  0.00    -0.241 NA
HETATM    7  C5  UNL     1      25.777  -0.271  54.187  1.00  0.00     0.043 C 
HETATM    8  C6  UNL     1      25.194  -0.193  52.981  1.00  0.00     0.035 C 
HETATM    9  C7  UNL     1      23.903   0.395  52.529  1.00  0.00    -0.047 C 
HETATM   10  C8  UNL     1      22.750   0.133  53.217  1.00  0.00    -0.019 A 
HETATM   11  C9  UNL     1      21.742   0.155  52.133  1.00  0.00     0.013 A 
HETATM   12  C10 UNL     1      20.449  -0.048  52.287  1.00  0.00     0.037 A 
HETATM   13  C11 UNL     1      23.458   1.266  51.436  1.00  0.00     0.045 C 
HETATM   14  C12 UNL     1      24.587   2.285  51.405  1.00  0.00     0.003 C 
HETATM   15  C13 UNL     1      25.525   1.968  52.329  1.00  0.00     0.023 C 
HETATM   16  C14 UNL     1      26.828   2.410  52.895  1.00  0.00     0.011 C 
HETATM   17  C15 UNL     1      27.303   1.622  53.855  1.00  0.00     0.045 C 
HETATM   18  C16 UNL     1      27.033   0.386  54.638  1.00  0.00     0.123 C 
ENDROOT
BRANCH   1  19
HETATM   19  O1  UNL     1      18.569  -0.532  53.781  1.00  0.00    -0.361 OA
HETATM   20  H1  UNL     1      18.125  -1.360  53.393  1.00  0.00     0.217 HD
ENDBRANCH   1  19
BRANCH  17  21
HETATM   21  O3  UNL     1      28.536   1.972  54.451  1.00  0.00    -0.365 OA
HETATM   22  H13 UNL     1      29.242   2.470  53.898  1.00  0.00     0.217 HD
ENDBRANCH  17  21
TORSDOF 2
ENDMDL
MODEL 4
REMARK VINA RESULT:      -8.1      1.782      5.280
REMARK  2 active torsions:
REMARK  status: ('A' for Active; 'I' for Inactive)
REMARK    1  A    between atoms: O1_1  and  C1_2 
REMARK    2  A    between atoms: C15_18  and  O3_19 
ROOT
HETATM    1  C1  UNL     1      28.267   0.899  53.320  1.00  0.00     0.064 A 
HETATM    2  C2  UNL     1      27.605   1.995  52.999  1.00  0.00     0.046 A 
HETATM    3  C3  UNL     1      26.196   2.274  52.645  1.00  0.00     0.189 A 
HETATM    4  O2  UNL     1      26.179   2.902  51.388  1.00  0.00    -0.331 OA
HETATM    5  C4  UNL     1      25.186   3.636  50.701  1.00  0.00     0.252 C 
HETATM    6  N1  UNL     1      23.881   3.496  50.748  1.00  0.00    -0.241 NA
HETATM    7  C5  UNL     1      22.985   2.473  51.240  1.00  0.00     0.043 C 
HETATM    8  C6  UNL     1      23.283   1.188  51.487  1.00  0.00     0.035 C 
HETATM    9  C7  UNL     1      24.170   0.541  52.493  1.00  0.00    -0.047 C 
HETATM   10  C8  UNL     1      25.439   1.012  52.693  1.00  0.00    -0.019 A 
HETATM   11  C9  UNL     1      26.166  -0.228  53.048  1.00  0.00     0.013 A 
HETATM   12  C10 UNL     1      27.450  -0.305  53.337  1.00  0.00     0.037 A 
HETATM   13  C11 UNL     1      24.071  -0.582  53.429  1.00  0.00     0.045 C 
HETATM   14  C12 UNL     1      22.660  -0.385  53.963  1.00  0.00     0.003 C 
HETATM   15  C13 UNL     1      22.076   0.675  53.355  1.00  0.00     0.023 C 
HETATM   16  C14 UNL     1      20.821   1.472  53.306  1.00  0.00     0.011 C 
HETATM   17  C15 UNL     1      20.840   2.472  52.431  1.00  0.00     0.045 C 
HETATM   18  C16 UNL     1      21.674   3.155  51.406  1.00  0.00     0.123 C 
ENDROOT
BRANCH   1  19
HETATM   19  O1  UNL     1      29.603   0.827  53.624  1.00  0.00    -0.361 OA
HETATM   20  H1  UNL     1      29.955   0.081  54.219  1.00  0.00     0.217 HD
ENDBRANCH   1  19
BRANCH  17  21
HETATM   21  O3  UNL     1      19.686   3.282  52.324  1.00  0.00    -0.365 OA
HETATM   22  H13 UNL     1      19.565   4.076  52.962  1.00  0.00     0.217 HD
ENDBRANCH  17  21
TORSDOF 2
ENDMDL
MODEL 5
REMARK VINA RESULT:      -7.8      2.000      5.679
REMARK  2 active torsions:
REMARK  status: ('A' for Active; 'I' for Inactive)
REMARK    1  A    between atoms: O1_1  and  C1_2 
REMARK    2  A    between atoms: C15_18  and  O3_19 
ROOT
HETATM    1  C1  UNL     1      23.492   4.999  52.057  1.00  0.00     0.064 A 
HETATM    2  C2  UNL     1      22.211   4.744  52.252  1.00  0.00     0.046 A 
HETATM    3  C3  UNL     1      21.422   3.499  52.384  1.00  0.00     0.189 A 
HETATM    4  O2  UNL     1      20.409   3.520  51.410  1.00  0.00    -0.331 OA
HETATM    5  C4  UNL     1      19.220   2.772  51.254  1.00  0.00     0.252 C 
HETATM    6  N1  UNL     1      18.978   1.531  51.608  1.00  0.00    -0.241 NA
HETATM    7  C5  UNL     1      19.798   0.410  52.010  1.00  0.00     0.043 C 
HETATM    8  C6  UNL     1      21.112   0.249  51.792  1.00  0.00     0.035 C 
HETATM    9  C7  UNL     1      22.308   0.981  52.294  1.00  0.00    -0.047 C 
HETATM   10  C8  UNL     1      22.335   2.349  52.271  1.00  0.00    -0.019 A 
HETATM   11  C9  UNL     1      23.775   2.616  52.050  1.00  0.00     0.013 A 
HETATM   12  C10 UNL     1      24.324   3.810  51.949  1.00  0.00     0.037 A 
HETATM   13  C11 UNL     1      23.610   0.622  52.863  1.00  0.00     0.045 C 
HETATM   14  C12 UNL     1      23.213  -0.517  53.789  1.00  0.00     0.003 C 
HETATM   15  C13 UNL     1      21.884  -0.758  53.688  1.00  0.00     0.023 C 
HETATM   16  C14 UNL     1      20.793  -1.625  54.207  1.00  0.00     0.011 C 
HETATM   17  C15 UNL     1      19.597  -1.375  53.682  1.00  0.00     0.045 C 
HETATM   18  C16 UNL     1      18.868  -0.518  52.709  1.00  0.00     0.123 C 
ENDROOT
BRANCH   1  19
HETATM   19  O1  UNL     1      24.057   6.245  51.958  1.00  0.00    -0.361 OA
HETATM   20  H1  UNL     1      23.894   6.942  52.679  1.00  0.00     0.217 HD
ENDBRANCH   1  19
BRANCH  17  21
HETATM   21  O3  UNL     1      18.503  -2.152  54.124  1.00  0.00    -0.365 OA
HETATM   22  H13 UNL     1      18.510  -3.167  53.975  1.00  0.00     0.217 HD
ENDBRANCH  17  21
TORSDOF 2
ENDMDL
MODEL 6
REMARK VINA RESULT:      -7.7      1.893      5.423
REMARK  2 active torsions:
REMARK  status: ('A' for Active; 'I' for Inactive)
REMARK    1  A    between atoms: O1_1  and  C1_2 
REMARK    2  A    between atoms: C15_18  and  O3_19 
ROOT
HETATM    1  C1  UNL     1      23.708   5.773  50.986  1.00  0.00     0.064 A 
HETATM    2  C2  UNL     1      22.652   5.384  51.676  1.00  0.00     0.046 A 
HETATM    3  C3  UNL     1      22.160   4.068  52.142  1.00  0.00     0.189 A 
HETATM    4  O2  UNL     1      20.856   3.892  51.646  1.00  0.00    -0.331 OA
HETATM    5  C4  UNL     1      19.818   2.998  51.991  1.00  0.00     0.252 C 
HETATM    6  N1  UNL     1      19.908   1.769  52.444  1.00  0.00    -0.241 NA
HETATM    7  C5  UNL     1      20.968   0.788  52.519  1.00  0.00     0.043 C 
HETATM    8  C6  UNL     1      22.104   0.768  51.804  1.00  0.00     0.035 C 
HETATM    9  C7  UNL     1      23.285   1.675  51.775  1.00  0.00    -0.047 C 
HETATM   10  C8  UNL     1      23.109   3.030  51.708  1.00  0.00    -0.019 A 
HETATM   11  C9  UNL     1      24.298   3.448  50.929  1.00  0.00     0.013 A 
HETATM   12  C10 UNL     1      24.592   4.687  50.589  1.00  0.00     0.037 A 
HETATM   13  C11 UNL     1      24.742   1.519  51.793  1.00  0.00     0.045 C 
HETATM   14  C12 UNL     1      24.900   0.417  52.829  1.00  0.00     0.003 C 
HETATM   15  C13 UNL     1      23.683   0.013  53.267  1.00  0.00     0.023 C 
HETATM   16  C14 UNL     1      23.012  -0.934  54.198  1.00  0.00     0.011 C 
HETATM   17  C15 UNL     1      21.684  -0.870  54.180  1.00  0.00     0.045 C 
HETATM   18  C16 UNL     1      20.523  -0.185  53.552  1.00  0.00     0.123 C 
ENDROOT
BRANCH   1  19
HETATM   19  O1  UNL     1      24.010   7.066  50.639  1.00  0.00    -0.361 OA
HETATM   20  H1  UNL     1      23.332   7.809  50.790  1.00  0.00     0.217 HD
ENDBRANCH   1  19
BRANCH  17  21
HETATM   21  O3  UNL     1      20.967  -1.735  55.039  1.00  0.00    -0.365 OA
HETATM   22  H13 UNL     1      20.909  -1.520  56.039  1.00  0.00     0.217 HD
ENDBRANCH  17  21
TORSDOF 2
ENDMDL
MODEL 7
REMARK VINA RESULT:      -7.6      2.207      3.145
REMARK  2 active torsions:
REMARK  status: ('A' for Active; 'I' for Inactive)
REMARK    1  A    between atoms: O1_1  and  C1_2 
REMARK    2  A    between atoms: C15_18  and  O3_19 
ROOT
HETATM    1  C1  UNL     1      19.445   1.096  49.972  1.00  0.00     0.064 A 
HETATM    2  C2  UNL     1      20.656   1.295  49.486  1.00  0.00     0.046 A 
HETATM    3  C3  UNL     1      22.009   1.319  50.084  1.00  0.00     0.189 A 
HETATM    4  O2  UNL     1      22.595   2.561  49.784  1.00  0.00    -0.331 OA
HETATM    5  C4  UNL     1      23.929   3.023  49.836  1.00  0.00     0.252 C 
HETATM    6  N1  UNL     1      24.891   2.667  50.655  1.00  0.00    -0.241 NA
HETATM    7  C5  UNL     1      24.946   1.940  51.904  1.00  0.00     0.043 C 
HETATM    8  C6  UNL     1      23.933   1.719  52.757  1.00  0.00     0.035 C 
HETATM    9  C7  UNL     1      22.678   0.926  52.639  1.00  0.00    -0.047 C 
HETATM   10  C8  UNL     1      21.892   1.047  51.526  1.00  0.00    -0.019 A 
HETATM   11  C9  UNL     1      20.540   0.824  52.090  1.00  0.00     0.013 A 
HETATM   12  C10 UNL     1      19.414   0.841  51.405  1.00  0.00     0.037 A 
HETATM   13  C11 UNL     1      21.959  -0.051  53.462  1.00  0.00     0.045 C 
HETATM   14  C12 UNL     1      23.115  -0.892  53.983  1.00  0.00     0.003 C 
HETATM   15  C13 UNL     1      24.292  -0.397  53.530  1.00  0.00     0.023 C 
HETATM   16  C14 UNL     1      25.763  -0.613  53.569  1.00  0.00     0.011 C 
HETATM   17  C15 UNL     1      26.467   0.280  52.881  1.00  0.00     0.045 C 
HETATM   18  C16 UNL     1      26.360   1.497  52.032  1.00  0.00     0.123 C 
ENDROOT
BRANCH   1  19
HETATM   19  O1  UNL     1      18.277   1.110  49.252  1.00  0.00    -0.361 OA
HETATM   20  H1  UNL     1      18.188   1.703  48.431  1.00  0.00     0.217 HD
ENDBRANCH   1  19
BRANCH  17  21
HETATM   21  O3  UNL     1      27.874   0.145  52.862  1.00  0.00    -0.365 OA
HETATM   22  H13 UNL     1      28.293  -0.786  52.953  1.00  0.00     0.217 HD
ENDBRANCH  17  21
TORSDOF 2
ENDMDL
MODEL 8
REMARK VINA RESULT:      -7.5      2.741      4.481
REMARK  2 active torsions:
REMARK  status: ('A' for Active; 'I' for Inactive)
REMARK    1  A    between atoms: O1_1  and  C1_2 
REMARK    2  A    between atoms: C15_18  and  O3_19 
ROOT
HETATM    1  C1  UNL     1      21.774   3.514  49.163  1.00  0.00     0.064 A 
HETATM    2  C2  UNL     1      23.048   3.206  49.008  1.00  0.00     0.046 A 
HETATM    3  C3  UNL     1      24.080   2.631  49.899  1.00  0.00     0.189 A 
HETATM    4  O2  UNL     1      25.166   3.522  49.940  1.00  0.00    -0.331 OA
HETATM    5  C4  UNL     1      26.504   3.377  50.371  1.00  0.00     0.252 C 
HETATM    6  N1  UNL     1      26.981   2.612  51.325  1.00  0.00    -0.241 NA
HETATM    7  C5  UNL     1      26.399   1.874  52.423  1.00  0.00     0.043 C 
HETATM    8  C6  UNL     1      25.189   2.062  52.974  1.00  0.00     0.035 C 
HETATM    9  C7  UNL     1      23.809   1.877  52.447  1.00  0.00    -0.047 C 
HETATM   10  C8  UNL     1      23.473   2.369  51.215  1.00  0.00    -0.019 A 
HETATM   11  C9  UNL     1      22.045   2.711  51.408  1.00  0.00     0.013 A 
HETATM   12  C10 UNL     1      21.253   3.231  50.492  1.00  0.00     0.037 A 
HETATM   13  C11 UNL     1      22.567   1.258  52.918  1.00  0.00     0.045 C 
HETATM   14  C12 UNL     1      23.105  -0.014  53.555  1.00  0.00     0.003 C 
HETATM   15  C13 UNL     1      24.457  -0.041  53.470  1.00  0.00     0.023 C 
HETATM   16  C14 UNL     1      25.651  -0.859  53.815  1.00  0.00     0.011 C 
HETATM   17  C15 UNL     1      26.809  -0.315  53.455  1.00  0.00     0.045 C 
HETATM   18  C16 UNL     1      27.429   0.871  52.806  1.00  0.00     0.123 C 
ENDROOT
BRANCH   1  19
HETATM   19  O1  UNL     1      20.954   4.052  48.204  1.00  0.00    -0.361 OA
HETATM   20  H1  UNL     1      20.703   5.037  48.237  1.00  0.00     0.217 HD
ENDBRANCH   1  19
BRANCH  17  21
HETATM   21  O3  UNL     1      27.995  -1.029  53.742  1.00  0.00    -0.365 OA
HETATM   22  H13 UNL     1      28.903  -0.568  53.628  1.00  0.00     0.217 HD
ENDBRANCH  17  21
TORSDOF 2
ENDMDL
MODEL 9
REMARK VINA RESULT:      -7.2      1.684      2.447
REMARK  2 active torsions:
REMARK  status: ('A' for Active; 'I' for Inactive)
REMARK    1  A    between atoms: O1_1  and  C1_2 
REMARK    2  A    between atoms: C15_18  and  O3_19 
ROOT
HETATM    1  C1  UNL     1      17.905  -0.516  51.796  1.00  0.00     0.064 A 
HETATM    2  C2  UNL     1      18.751   0.064  50.965  1.00  0.00     0.046 A 
HETATM    3  C3  UNL     1      20.151   0.528  51.086  1.00  0.00     0.189 A 
HETATM    4  O2  UNL     1      20.187   1.892  50.748  1.00  0.00    -0.331 OA
HETATM    5  C4  UNL     1      21.247   2.763  50.411  1.00  0.00     0.252 C 
HETATM    6  N1  UNL     1      22.492   2.742  50.827  1.00  0.00    -0.241 NA
HETATM    7  C5  UNL     1      23.193   2.076  51.902  1.00  0.00     0.043 C 
HETATM    8  C6  UNL     1      22.656   1.542  53.010  1.00  0.00     0.035 C 
HETATM    9  C7  UNL     1      21.745   0.384  53.224  1.00  0.00    -0.047 C 
HETATM   10  C8  UNL     1      20.626   0.239  52.449  1.00  0.00    -0.019 A 
HETATM   11  C9  UNL     1      19.690  -0.409  53.396  1.00  0.00     0.013 A 
HETATM   12  C10 UNL     1      18.449  -0.761  53.123  1.00  0.00     0.037 A 
HETATM   13  C11 UNL     1      21.690  -0.770  54.125  1.00  0.00     0.045 C 
HETATM   14  C12 UNL     1      23.152  -1.188  54.145  1.00  0.00     0.003 C 
HETATM   15  C13 UNL     1      23.889  -0.340  53.389  1.00  0.00     0.023 C 
HETATM   16  C14 UNL     1      25.274  -0.066  52.921  1.00  0.00     0.011 C 
HETATM   17  C15 UNL     1      25.388   1.004  52.142  1.00  0.00     0.045 C 
HETATM   18  C16 UNL     1      24.629   2.118  51.513  1.00  0.00     0.123 C 
ENDROOT
BRANCH   1  19
HETATM   19  O1  UNL     1      16.616  -0.884  51.504  1.00  0.00    -0.361 OA
HETATM   20  H1  UNL     1      16.387  -1.271  50.591  1.00  0.00     0.217 HD
ENDBRANCH   1  19
BRANCH  17  21
HETATM   21  O3  UNL     1      26.672   1.333  51.650  1.00  0.00    -0.365 OA
HETATM   22  H13 UNL     1      26.762   1.774  50.728  1.00  0.00     0.217 HD
ENDBRANCH  17  21
TORSDOF 2
ENDMDL
