MODEL 1
REMARK VINA RESULT:      -8.9      0.000      0.000
REMARK  7 active torsions:
REMARK  status: ('A' for Active; 'I' for Inactive)
REMARK    1  A    between atoms: N1_1  and  C1_2 
REMARK    2  A    between atoms: C4_5  and  C5_6 
REMARK    3  A    between atoms: C5_6  and  C6_7 
REMARK    4  A    between atoms: C10_11  and  N2_12 
REMARK    5  A    between atoms: N2_12  and  O1_13 
REMARK    6  A    between atoms: N2_12  and  C11_14 
REMARK    7  A    between atoms: C17_20  and  O2_21 
ROOT
HETATM    1  C6  UNL     1      23.423   2.166  51.771  1.00  0.00    -0.019 A 
HETATM    2  C7  UNL     1      22.774   1.674  50.634  1.00  0.00     0.010 A 
HETATM    3  C8  UNL     1      22.678   2.299  49.413  1.00  0.00     0.003 A 
HETATM    4  C9  UNL     1      23.284   3.533  49.306  1.00  0.00     0.035 A 
HETATM    5  C10 UNL     1      23.932   4.057  50.391  1.00  0.00     0.096 A 
HETATM    6  C17 UNL     1      24.006   3.397  51.600  1.00  0.00     0.101 A 
ENDROOT
BRANCH   1   7
HETATM    7  C5  UNL     1      23.420   1.324  53.012  1.00  0.00     0.076 C 
BRANCH   7   8
HETATM    8  C4  UNL     1      24.611   0.437  53.055  1.00  0.00    -0.066 A 
HETATM    9  C3  UNL     1      24.628  -0.851  53.329  1.00  0.00     0.013 A 
HETATM   10  C2  UNL     1      26.066  -0.965  53.186  1.00  0.00    -0.028 A 
HETATM   11  C1  UNL     1      27.339  -1.360  53.059  1.00  0.00     0.012 C 
HETATM   12  C18 UNL     1      26.045   0.482  52.798  1.00  0.00     0.053 A 
HETATM   13  C21 UNL     1      28.521  -0.475  53.169  1.00  0.00     0.020 C 
HETATM   14  C20 UNL     1      28.394   0.825  53.428  1.00  0.00    -0.024 C 
HETATM   15  C19 UNL     1      26.974   1.290  53.602  1.00  0.00     0.041 C 
BRANCH  11  16
HETATM   16  N1  UNL     1      27.718  -2.746  53.001  1.00  0.00    -0.302 NA
HETATM   17  H1  UNL     1      27.676  -3.765  52.793  1.00  0.00     0.124 HD
HETATM   18  H2  UNL     1      27.083  -3.411  52.549  1.00  0.00     0.124 HD
ENDBRANCH  11  16
ENDBRANCH   7   8
ENDBRANCH   1   7
BRANCH   6  19
HETATM   19  O2  UNL     1      24.658   3.913  52.712  1.00  0.00    -0.358 OA
HETATM   20  H15 UNL     1      24.476   4.882  52.991  1.00  0.00     0.217 HD
ENDBRANCH   6  19
BRANCH   5  21
HETATM   21  N2  UNL     1      24.591   5.331  50.360  1.00  0.00    -0.222 N 
BRANCH  21  22
HETATM   22  O1  UNL     1      24.078   6.360  51.069  1.00  0.00    -0.282 OA
HETATM   23  H9  UNL     1      23.429   6.859  50.504  1.00  0.00     0.245 HD
ENDBRANCH  21  22
BRANCH  21  24
HETATM   24  C11 UNL     1      25.781   5.607  49.620  1.00  0.00     0.063 A 
HETATM   25  C12 UNL     1      26.124   6.884  49.179  1.00  0.00     0.032 A 
HETATM   26  C13 UNL     1      27.302   7.068  48.468  1.00  0.00     0.002 A 
HETATM   27  C14 UNL     1      28.161   6.031  48.172  1.00  0.00     0.000 A 
HETATM   28  C15 UNL     1      27.842   4.763  48.597  1.00  0.00     0.002 A 
HETATM   29  C16 UNL     1      26.676   4.583  49.301  1.00  0.00     0.032 A 
ENDBRANCH  21  24
ENDBRANCH   5  21
TORSDOF 7
ENDMDL
MODEL 2
REMARK VINA RESULT:      -8.7      2.153      7.187
REMARK  7 active torsions:
REMARK  status: ('A' for Active; 'I' for Inactive)
REMARK    1  A    between atoms: N1_1  and  C1_2 
REMARK    2  A    between atoms: C4_5  and  C5_6 
REMARK    3  A    between atoms: C5_6  and  C6_7 
REMARK    4  A    between atoms: C10_11  and  N2_12 
REMARK    5  A    between atoms: N2_12  and  O1_13 
REMARK    6  A    between atoms: N2_12  and  C11_14 
REMARK    7  A    between atoms: C17_20  and  O2_21 
ROOT
HETATM    1  C6  UNL     1      24.901   3.539  50.667  1.00  0.00    -0.019 A 
HETATM    2  C7  UNL     1      23.647   3.224  51.200  1.00  0.00     0.010 A 
HETATM    3  C8  UNL     1      23.403   2.520  52.356  1.00  0.00     0.003 A 
HETATM    4  C9  UNL     1      24.510   2.085  53.054  1.00  0.00     0.035 A 
HETATM    5  C10 UNL     1      25.759   2.370  52.573  1.00  0.00     0.096 A 
HETATM    6  C17 UNL     1      25.961   3.079  51.408  1.00  0.00     0.101 A 
ENDROOT
BRANCH   1   7
HETATM    7  C5  UNL     1      24.954   4.325  49.391  1.00  0.00     0.076 C 
BRANCH   7   8
HETATM    8  C4  UNL     1      25.534   5.673  49.622  1.00  0.00    -0.066 A 
HETATM    9  C3  UNL     1      25.083   6.598  50.444  1.00  0.00     0.013 A 
HETATM   10  C2  UNL     1      26.120   7.551  50.102  1.00  0.00    -0.028 A 
HETATM   11  C1  UNL     1      26.977   8.577  50.024  1.00  0.00     0.012 C 
HETATM   12  C18 UNL     1      26.682   6.477  49.222  1.00  0.00     0.053 A 
HETATM   13  C21 UNL     1      27.868   8.856  48.875  1.00  0.00     0.020 C 
HETATM   14  C20 UNL     1      27.866   8.083  47.789  1.00  0.00    -0.024 C 
HETATM   15  C19 UNL     1      26.891   6.938  47.842  1.00  0.00     0.041 C 
BRANCH  11  16
HETATM   16  N1  UNL     1      26.985   9.655  50.974  1.00  0.00    -0.302 NA
HETATM   17  H1  UNL     1      26.671  10.292  51.735  1.00  0.00     0.124 HD
HETATM   18  H2  UNL     1      26.173   9.775  51.589  1.00  0.00     0.124 HD
ENDBRANCH  11  16
ENDBRANCH   7   8
ENDBRANCH   1   7
BRANCH   6  19
HETATM   19  O2  UNL     1      27.220   3.377  50.905  1.00  0.00    -0.358 OA
HETATM   20  H15 UNL     1      27.404   3.230  49.908  1.00  0.00     0.217 HD
ENDBRANCH   6  19
BRANCH   5  21
HETATM   21  N2  UNL     1      26.959   1.958  53.243  1.00  0.00    -0.222 N 
BRANCH  21  22
HETATM   22  O1  UNL     1      27.647   2.855  53.982  1.00  0.00    -0.282 OA
HETATM   23  H9  UNL     1      28.342   2.382  54.513  1.00  0.00     0.245 HD
ENDBRANCH  21  22
BRANCH  21  24
HETATM   24  C11 UNL     1      27.500   0.638  53.190  1.00  0.00     0.063 A 
HETATM   25  C12 UNL     1      26.774  -0.466  52.749  1.00  0.00     0.032 A 
HETATM   26  C13 UNL     1      27.377  -1.717  52.726  1.00  0.00     0.002 A 
HETATM   27  C14 UNL     1      28.680  -1.921  53.125  1.00  0.00     0.000 A 
HETATM   28  C15 UNL     1      29.415  -0.846  53.565  1.00  0.00     0.002 A 
HETATM   29  C16 UNL     1      28.817   0.391  53.587  1.00  0.00     0.032 A 
ENDBRANCH  21  24
ENDBRANCH   5  21
TORSDOF 7
ENDMDL
MODEL 3
REMARK VINA RESULT:      -8.4      2.790      5.894
REMARK  7 active torsions:
REMARK  status: ('A' for Active; 'I' for Inactive)
REMARK    1  A    between atoms: N1_1  and  C1_2 
REMARK    2  A    between atoms: C4_5  and  C5_6 
REMARK    3  A    between atoms: C5_6  and  C6_7 
REMARK    4  A    between atoms: C10_11  and  N2_12 
REMARK    5  A    between atoms: N2_12  and  O1_13 
REMARK    6  A    between atoms: N2_12  and  C11_14 
REMARK    7  A    between atoms: C17_20  and  O2_21 
ROOT
HETATM    1  C6  UNL     1      24.223   3.309  51.761  1.00  0.00    -0.019 A 
HETATM    2  C7  UNL     1      24.519   3.260  50.395  1.00  0.00     0.010 A 
HETATM    3  C8  UNL     1      25.700   2.841  49.828  1.00  0.00     0.003 A 
HETATM    4  C9  UNL     1      26.686   2.429  50.700  1.00  0.00     0.035 A 
HETATM    5  C10 UNL     1      26.443   2.457  52.046  1.00  0.00     0.096 A 
HETATM    6  C17 UNL     1      25.244   2.885  52.575  1.00  0.00     0.101 A 
ENDROOT
BRANCH   1   7
HETATM    7  C5  UNL     1      22.867   3.794  52.178  1.00  0.00     0.076 C 
BRANCH   7   8
HETATM    8  C4  UNL     1      21.940   2.655  52.399  1.00  0.00    -0.066 A 
HETATM    9  C3  UNL     1      20.626   2.707  52.467  1.00  0.00     0.013 A 
HETATM   10  C2  UNL     1      20.481   1.282  52.696  1.00  0.00    -0.028 A 
HETATM   11  C1  UNL     1      20.061   0.020  52.853  1.00  0.00     0.012 C 
HETATM   12  C18 UNL     1      21.969   1.205  52.543  1.00  0.00     0.053 A 
HETATM   13  C21 UNL     1      20.875  -1.084  53.408  1.00  0.00     0.020 C 
HETATM   14  C20 UNL     1      22.126  -0.888  53.820  1.00  0.00    -0.024 C 
HETATM   15  C19 UNL     1      22.613   0.529  53.679  1.00  0.00     0.041 C 
BRANCH  11  16
HETATM   16  N1  UNL     1      18.687  -0.365  52.686  1.00  0.00    -0.302 NA
HETATM   17  H1  UNL     1      17.842  -0.967  52.597  1.00  0.00     0.124 HD
HETATM   18  H2  UNL     1      18.451  -1.363  52.690  1.00  0.00     0.124 HD
ENDBRANCH  11  16
ENDBRANCH   7   8
ENDBRANCH   1   7
BRANCH   6  19
HETATM   19  O2  UNL     1      24.980   2.921  53.937  1.00  0.00    -0.358 OA
HETATM   20  H15 UNL     1      25.369   2.188  54.540  1.00  0.00     0.217 HD
ENDBRANCH   6  19
BRANCH   5  21
HETATM   21  N2  UNL     1      27.414   2.040  53.017  1.00  0.00    -0.222 N 
BRANCH  21  22
HETATM   22  O1  UNL     1      27.862   2.929  53.930  1.00  0.00    -0.282 OA
HETATM   23  H9  UNL     1      27.281   3.736  53.919  1.00  0.00     0.245 HD
ENDBRANCH  21  22
BRANCH  21  24
HETATM   24  C11 UNL     1      27.959   0.723  53.100  1.00  0.00     0.063 A 
HETATM   25  C12 UNL     1      27.234  -0.423  52.778  1.00  0.00     0.032 A 
HETATM   26  C13 UNL     1      27.841  -1.668  52.882  1.00  0.00     0.002 A 
HETATM   27  C14 UNL     1      29.147  -1.826  53.296  1.00  0.00     0.000 A 
HETATM   28  C15 UNL     1      29.880  -0.708  53.619  1.00  0.00     0.002 A 
HETATM   29  C16 UNL     1      29.278   0.522  53.515  1.00  0.00     0.032 A 
ENDBRANCH  21  24
ENDBRANCH   5  21
TORSDOF 7
ENDMDL
MODEL 4
REMARK VINA RESULT:      -8.3      2.264      3.234
REMARK  7 active torsions:
REMARK  status: ('A' for Active; 'I' for Inactive)
REMARK    1  A    between atoms: N1_1  and  C1_2 
REMARK    2  A    between atoms: C4_5  and  C5_6 
REMARK    3  A    between atoms: C5_6  and  C6_7 
REMARK    4  A    between atoms: C10_11  and  N2_12 
REMARK    5  A    between atoms: N2_12  and  O1_13 
REMARK    6  A    between atoms: N2_12  and  C11_14 
REMARK    7  A    between atoms: C17_20  and  O2_21 
ROOT
HETATM    1  C6  UNL     1      24.804   2.827  51.067  1.00  0.00    -0.019 A 
HETATM    2  C7  UNL     1      25.716   2.873  50.008  1.00  0.00     0.010 A 
HETATM    3  C8  UNL     1      26.141   3.999  49.343  1.00  0.00     0.003 A 
HETATM    4  C9  UNL     1      25.611   5.199  49.769  1.00  0.00     0.035 A 
HETATM    5  C10 UNL     1      24.715   5.206  50.802  1.00  0.00     0.096 A 
HETATM    6  C17 UNL     1      24.314   4.053  51.444  1.00  0.00     0.101 A 
ENDROOT
BRANCH   1   7
HETATM    7  C5  UNL     1      24.474   1.491  51.663  1.00  0.00     0.076 C 
BRANCH   7   8
HETATM    8  C4  UNL     1      25.689   0.843  52.218  1.00  0.00    -0.066 A 
HETATM    9  C3  UNL     1      25.810  -0.410  52.607  1.00  0.00     0.013 A 
HETATM   10  C2  UNL     1      27.197  -0.260  53.002  1.00  0.00    -0.028 A 
HETATM   11  C1  UNL     1      28.472  -0.417  53.379  1.00  0.00     0.012 C 
HETATM   12  C18 UNL     1      27.089   1.144  52.491  1.00  0.00     0.053 A 
HETATM   13  C21 UNL     1      29.370   0.675  53.818  1.00  0.00     0.020 C 
HETATM   14  C20 UNL     1      28.949   1.938  53.885  1.00  0.00    -0.024 C 
HETATM   15  C19 UNL     1      27.511   2.136  53.490  1.00  0.00     0.041 C 
BRANCH  11  16
HETATM   16  N1  UNL     1      29.061  -1.709  53.599  1.00  0.00    -0.302 NA
HETATM   17  H1  UNL     1      29.177  -2.690  53.927  1.00  0.00     0.124 HD
HETATM   18  H2  UNL     1      28.533  -2.408  54.131  1.00  0.00     0.124 HD
ENDBRANCH  11  16
ENDBRANCH   7   8
ENDBRANCH   1   7
BRANCH   6  19
HETATM   19  O2  UNL     1      23.406   4.040  52.493  1.00  0.00    -0.358 OA
HETATM   20  H15 UNL     1      22.811   4.861  52.647  1.00  0.00     0.217 HD
ENDBRANCH   6  19
BRANCH   5  21
HETATM   21  N2  UNL     1      24.123   6.411  51.307  1.00  0.00    -0.222 N 
BRANCH  21  22
HETATM   22  O1  UNL     1      24.479   6.864  52.529  1.00  0.00    -0.282 OA
HETATM   23  H9  UNL     1      24.872   7.773  52.443  1.00  0.00     0.245 HD
ENDBRANCH  21  22
BRANCH  21  24
HETATM   24  C11 UNL     1      23.162   7.196  50.601  1.00  0.00     0.063 A 
HETATM   25  C12 UNL     1      23.509   8.253  49.762  1.00  0.00     0.032 A 
HETATM   26  C13 UNL     1      22.511   8.964  49.108  1.00  0.00     0.002 A 
HETATM   27  C14 UNL     1      21.173   8.669  49.252  1.00  0.00     0.000 A 
HETATM   28  C15 UNL     1      20.807   7.630  50.076  1.00  0.00     0.002 A 
HETATM   29  C16 UNL     1      21.796   6.928  50.722  1.00  0.00     0.032 A 
ENDBRANCH  21  24
ENDBRANCH   5  21
TORSDOF 7
ENDMDL
MODEL 5
REMARK VINA RESULT:      -8.1      1.882      3.133
REMARK  7 active torsions:
REMARK  status: ('A' for Active; 'I' for Inactive)
REMARK    1  A    between atoms: N1_1  and  C1_2 
REMARK    2  A    between atoms: C4_5  and  C5_6 
REMARK    3  A    between atoms: C5_6  and  C6_7 
REMARK    4  A    between atoms: C10_11  and  N2_12 
REMARK    5  A    between atoms: N2_12  and  O1_13 
REMARK    6  A    between atoms: N2_12  and  C11_14 
REMARK    7  A    between atoms: C17_20  and  O2_21 
ROOT
HETATM    1  C6  UNL     1      25.219   2.619  51.874  1.00  0.00    -0.019 A 
HETATM    2  C7  UNL     1      26.419   2.604  51.155  1.00  0.00     0.010 A 
HETATM    3  C8  UNL     1      26.665   3.239  49.961  1.00  0.00     0.003 A 
HETATM    4  C9  UNL     1      25.619   3.961  49.424  1.00  0.00     0.035 A 
HETATM    5  C10 UNL     1      24.425   4.006  50.090  1.00  0.00     0.096 A 
HETATM    6  C17 UNL     1      24.219   3.354  51.288  1.00  0.00     0.101 A 
ENDROOT
BRANCH   1   7
HETATM    7  C5  UNL     1      25.155   1.862  53.167  1.00  0.00     0.076 C 
BRANCH   7   8
HETATM    8  C4  UNL     1      26.066   0.689  53.141  1.00  0.00    -0.066 A 
HETATM    9  C3  UNL     1      25.724  -0.580  53.227  1.00  0.00     0.013 A 
HETATM   10  C2  UNL     1      27.089  -1.058  53.142  1.00  0.00    -0.028 A 
HETATM   11  C1  UNL     1      28.222  -1.764  53.023  1.00  0.00     0.012 C 
HETATM   12  C18 UNL     1      27.479   0.377  52.967  1.00  0.00     0.053 A 
HETATM   13  C21 UNL     1      29.578  -1.252  53.320  1.00  0.00     0.020 C 
HETATM   14  C20 UNL     1      29.772  -0.008  53.758  1.00  0.00    -0.024 C 
HETATM   15  C19 UNL     1      28.512   0.796  53.925  1.00  0.00     0.041 C 
BRANCH  11  16
HETATM   16  N1  UNL     1      28.230  -3.181  52.785  1.00  0.00    -0.302 NA
HETATM   17  H1  UNL     1      28.459  -4.100  52.354  1.00  0.00     0.124 HD
HETATM   18  H2  UNL     1      28.803  -3.548  52.018  1.00  0.00     0.124 HD
ENDBRANCH  11  16
ENDBRANCH   7   8
ENDBRANCH   1   7
BRANCH   6  19
HETATM   19  O2  UNL     1      23.015   3.388  51.977  1.00  0.00    -0.358 OA
HETATM   20  H15 UNL     1      22.137   3.385  51.448  1.00  0.00     0.217 HD
ENDBRANCH   6  19
BRANCH   5  21
HETATM   21  N2  UNL     1      23.292   4.738  49.601  1.00  0.00    -0.222 N 
BRANCH  21  22
HETATM   22  O1  UNL     1      22.636   5.577  50.432  1.00  0.00    -0.282 OA
HETATM   23  H9  UNL     1      21.659   5.401  50.375  1.00  0.00     0.245 HD
ENDBRANCH  21  22
BRANCH  21  24
HETATM   24  C11 UNL     1      22.787   4.649  48.268  1.00  0.00     0.063 A 
HETATM   25  C12 UNL     1      22.699   5.746  47.413  1.00  0.00     0.032 A 
HETATM   26  C13 UNL     1      22.199   5.574  46.129  1.00  0.00     0.002 A 
HETATM   27  C14 UNL     1      21.780   4.350  45.653  1.00  0.00     0.000 A 
HETATM   28  C15 UNL     1      21.858   3.255  46.480  1.00  0.00     0.002 A 
HETATM   29  C16 UNL     1      22.353   3.427  47.750  1.00  0.00     0.032 A 
ENDBRANCH  21  24
ENDBRANCH   5  21
TORSDOF 7
ENDMDL
MODEL 6
REMARK VINA RESULT:      -8.1      1.741      2.191
REMARK  7 active torsions:
REMARK  status: ('A' for Active; 'I' for Inactive)
REMARK    1  A    between atoms: N1_1  and  C1_2 
REMARK    2  A    between atoms: C4_5  and  C5_6 
REMARK    3  A    between atoms: C5_6  and  C6_7 
REMARK    4  A    between atoms: C10_11  and  N2_12 
REMARK    5  A    between atoms: N2_12  and  O1_13 
REMARK    6  A    between atoms: N2_12  and  C11_14 
REMARK    7  A    between atoms: C17_20  and  O2_21 
ROOT
HETATM    1  C6  UNL     1      23.229   2.892  51.197  1.00  0.00    -0.019 A 
HETATM    2  C7  UNL     1      23.122   3.665  52.358  1.00  0.00     0.010 A 
HETATM    3  C8  UNL     1      23.410   5.004  52.478  1.00  0.00     0.003 A 
HETATM    4  C9  UNL     1      23.847   5.642  51.336  1.00  0.00     0.035 A 
HETATM    5  C10 UNL     1      23.967   4.928  50.175  1.00  0.00     0.096 A 
HETATM    6  C17 UNL     1      23.667   3.584  50.096  1.00  0.00     0.101 A 
ENDROOT
BRANCH   1   7
HETATM    7  C5  UNL     1      22.858   1.440  51.273  1.00  0.00     0.076 C 
BRANCH   7   8
HETATM    8  C4  UNL     1      23.536   0.779  52.417  1.00  0.00    -0.066 A 
HETATM    9  C3  UNL     1      22.959   0.156  53.424  1.00  0.00     0.013 A 
HETATM   10  C2  UNL     1      24.214  -0.175  54.070  1.00  0.00    -0.028 A 
HETATM   11  C1  UNL     1      25.205  -0.658  54.831  1.00  0.00     0.012 C 
HETATM   12  C18 UNL     1      24.878   0.465  52.889  1.00  0.00     0.053 A 
HETATM   13  C21 UNL     1      26.586  -0.127  54.868  1.00  0.00     0.020 C 
HETATM   14  C20 UNL     1      26.950   0.920  54.129  1.00  0.00    -0.024 C 
HETATM   15  C19 UNL     1      25.847   1.498  53.284  1.00  0.00     0.041 C 
BRANCH  11  16
HETATM   16  N1  UNL     1      24.983  -1.632  55.864  1.00  0.00    -0.302 NA
HETATM   17  H1  UNL     1      24.485  -2.239  56.548  1.00  0.00     0.124 HD
HETATM   18  H2  UNL     1      24.021  -1.819  56.167  1.00  0.00     0.124 HD
ENDBRANCH  11  16
ENDBRANCH   7   8
ENDBRANCH   1   7
BRANCH   6  19
HETATM   19  O2  UNL     1      23.784   2.844  48.927  1.00  0.00    -0.358 OA
HETATM   20  H15 UNL     1      24.575   3.022  48.301  1.00  0.00     0.217 HD
ENDBRANCH   6  19
BRANCH   5  21
HETATM   21  N2  UNL     1      24.409   5.519  48.944  1.00  0.00    -0.222 N 
BRANCH  21  22
HETATM   22  O1  UNL     1      23.503   5.812  47.986  1.00  0.00    -0.282 OA
HETATM   23  H9  UNL     1      23.505   6.792  47.818  1.00  0.00     0.245 HD
ENDBRANCH  21  22
BRANCH  21  24
HETATM   24  C11 UNL     1      25.769   5.832  48.642  1.00  0.00     0.063 A 
HETATM   25  C12 UNL     1      26.170   7.062  48.122  1.00  0.00     0.032 A 
HETATM   26  C13 UNL     1      27.514   7.287  47.859  1.00  0.00     0.002 A 
HETATM   27  C14 UNL     1      28.486   6.338  48.090  1.00  0.00     0.000 A 
HETATM   28  C15 UNL     1      28.113   5.117  48.601  1.00  0.00     0.002 A 
HETATM   29  C16 UNL     1      26.782   4.896  48.862  1.00  0.00     0.032 A 
ENDBRANCH  21  24
ENDBRANCH   5  21
TORSDOF 7
ENDMDL
MODEL 7
REMARK VINA RESULT:      -8.1      2.246      7.205
REMARK  7 active torsions:
REMARK  status: ('A' for Active; 'I' for Inactive)
REMARK    1  A    between atoms: N1_1  and  C1_2 
REMARK    2  A    between atoms: C4_5  and  C5_6 
REMARK    3  A    between atoms: C5_6  and  C6_7 
REMARK    4  A    between atoms: C10_11  and  N2_12 
REMARK    5  A    between atoms: N2_12  and  O1_13 
REMARK    6  A    between atoms: N2_12  and  C11_14 
REMARK    7  A    between atoms: C17_20  and  O2_21 
ROOT
HETATM    1  C6  UNL     1      24.822   2.735  50.739  1.00  0.00    -0.019 A 
HETATM    2  C7  UNL     1      23.631   2.472  51.424  1.00  0.00     0.010 A 
HETATM    3  C8  UNL     1      23.513   2.015  52.715  1.00  0.00     0.003 A 
HETATM    4  C9  UNL     1      24.692   1.795  53.397  1.00  0.00     0.035 A 
HETATM    5  C10 UNL     1      25.883   2.039  52.770  1.00  0.00     0.096 A 
HETATM    6  C17 UNL     1      25.958   2.498  51.472  1.00  0.00     0.101 A 
ENDROOT
BRANCH   1   7
HETATM    7  C5  UNL     1      24.735   3.238  49.329  1.00  0.00     0.076 C 
BRANCH   7   8
HETATM    8  C4  UNL     1      24.726   4.722  49.294  1.00  0.00    -0.066 A 
HETATM    9  C3  UNL     1      25.760   5.515  49.098  1.00  0.00     0.013 A 
HETATM   10  C2  UNL     1      24.978   6.730  49.213  1.00  0.00    -0.028 A 
HETATM   11  C1  UNL     1      24.499   7.981  49.210  1.00  0.00     0.012 C 
HETATM   12  C18 UNL     1      23.786   5.835  49.360  1.00  0.00     0.053 A 
HETATM   13  C21 UNL     1      23.238   8.411  49.855  1.00  0.00     0.020 C 
HETATM   14  C20 UNL     1      22.470   7.551  50.523  1.00  0.00    -0.024 C 
HETATM   15  C19 UNL     1      23.000   6.144  50.563  1.00  0.00     0.041 C 
BRANCH  11  16
HETATM   16  N1  UNL     1      25.268   9.104  48.747  1.00  0.00    -0.302 NA
HETATM   17  H1  UNL     1      26.075   9.744  48.600  1.00  0.00     0.124 HD
HETATM   18  H2  UNL     1      26.255   9.170  49.017  1.00  0.00     0.124 HD
ENDBRANCH  11  16
ENDBRANCH   7   8
ENDBRANCH   1   7
BRANCH   6  19
HETATM   19  O2  UNL     1      27.157   2.750  50.820  1.00  0.00    -0.358 OA
HETATM   20  H15 UNL     1      27.636   1.980  50.343  1.00  0.00     0.217 HD
ENDBRANCH   6  19
BRANCH   5  21
HETATM   21  N2  UNL     1      27.151   1.841  53.412  1.00  0.00    -0.222 N 
BRANCH  21  22
HETATM   22  O1  UNL     1      27.710   2.859  54.103  1.00  0.00    -0.282 OA
HETATM   23  H9  UNL     1      27.830   3.641  53.501  1.00  0.00     0.245 HD
ENDBRANCH  21  22
BRANCH  21  24
HETATM   24  C11 UNL     1      27.891   0.621  53.380  1.00  0.00     0.063 A 
HETATM   25  C12 UNL     1      27.324  -0.604  53.032  1.00  0.00     0.032 A 
HETATM   26  C13 UNL     1      28.116  -1.745  53.022  1.00  0.00     0.002 A 
HETATM   27  C14 UNL     1      29.455  -1.724  53.346  1.00  0.00     0.000 A 
HETATM   28  C15 UNL     1      30.034  -0.526  53.693  1.00  0.00     0.002 A 
HETATM   29  C16 UNL     1      29.250   0.602  53.702  1.00  0.00     0.032 A 
ENDBRANCH  21  24
ENDBRANCH   5  21
TORSDOF 7
ENDMDL
MODEL 8
REMARK VINA RESULT:      -8.1      1.772      2.604
REMARK  7 active torsions:
REMARK  status: ('A' for Active; 'I' for Inactive)
REMARK    1  A    between atoms: N1_1  and  C1_2 
REMARK    2  A    between atoms: C4_5  and  C5_6 
REMARK    3  A    between atoms: C5_6  and  C6_7 
REMARK    4  A    between atoms: C10_11  and  N2_12 
REMARK    5  A    between atoms: N2_12  and  O1_13 
REMARK    6  A    between atoms: N2_12  and  C11_14 
REMARK    7  A    between atoms: C17_20  and  O2_21 
ROOT
HETATM    1  C6  UNL     1      25.404   2.644  51.522  1.00  0.00    -0.019 A 
HETATM    2  C7  UNL     1      26.324   2.182  50.576  1.00  0.00     0.010 A 
HETATM    3  C8  UNL     1      26.824   2.889  49.508  1.00  0.00     0.003 A 
HETATM    4  C9  UNL     1      26.368   4.182  49.361  1.00  0.00     0.035 A 
HETATM    5  C10 UNL     1      25.467   4.680  50.262  1.00  0.00     0.096 A 
HETATM    6  C17 UNL     1      24.989   3.938  51.321  1.00  0.00     0.101 A 
ENDROOT
BRANCH   1   7
HETATM    7  C5  UNL     1      24.986   1.714  52.621  1.00  0.00     0.076 C 
BRANCH   7   8
HETATM    8  C4  UNL     1      25.955   0.598  52.769  1.00  0.00    -0.066 A 
HETATM    9  C3  UNL     1      25.673  -0.676  52.950  1.00  0.00     0.013 A 
HETATM   10  C2  UNL     1      27.064  -1.080  53.006  1.00  0.00    -0.028 A 
HETATM   11  C1  UNL     1      28.237  -1.726  53.033  1.00  0.00     0.012 C 
HETATM   12  C18 UNL     1      27.392   0.354  52.724  1.00  0.00     0.053 A 
HETATM   13  C21 UNL     1      29.539  -1.111  53.374  1.00  0.00     0.020 C 
HETATM   14  C20 UNL     1      29.636   0.175  53.706  1.00  0.00    -0.024 C 
HETATM   15  C19 UNL     1      28.327   0.917  53.709  1.00  0.00     0.041 C 
BRANCH  11  16
HETATM   16  N1  UNL     1      28.336  -3.156  52.930  1.00  0.00    -0.302 NA
HETATM   17  H1  UNL     1      28.528  -4.099  52.532  1.00  0.00     0.124 HD
HETATM   18  H2  UNL     1      28.688  -3.564  52.058  1.00  0.00     0.124 HD
ENDBRANCH  11  16
ENDBRANCH   7   8
ENDBRANCH   1   7
BRANCH   6  19
HETATM   19  O2  UNL     1      24.075   4.426  52.245  1.00  0.00    -0.358 OA
HETATM   20  H15 UNL     1      23.073   4.312  52.061  1.00  0.00     0.217 HD
ENDBRANCH   6  19
BRANCH   5  21
HETATM   21  N2  UNL     1      24.949   6.016  50.182  1.00  0.00    -0.222 N 
BRANCH  21  22
HETATM   22  O1  UNL     1      24.972   6.803  51.280  1.00  0.00    -0.282 OA
HETATM   23  H9  UNL     1      25.126   7.746  51.007  1.00  0.00     0.245 HD
ENDBRANCH  21  22
BRANCH  21  24
HETATM   24  C11 UNL     1      24.396   6.598  49.002  1.00  0.00     0.063 A 
HETATM   25  C12 UNL     1      23.288   6.073  48.340  1.00  0.00     0.032 A 
HETATM   26  C13 UNL     1      22.810   6.703  47.199  1.00  0.00     0.002 A 
HETATM   27  C14 UNL     1      23.390   7.841  46.681  1.00  0.00     0.000 A 
HETATM   28  C15 UNL     1      24.485   8.377  47.317  1.00  0.00     0.002 A 
HETATM   29  C16 UNL     1      24.956   7.752  48.447  1.00  0.00     0.032 A 
ENDBRANCH  21  24
ENDBRANCH   5  21
TORSDOF 7
ENDMDL
MODEL 9
REMARK VINA RESULT:      -7.9      2.272      3.444
REMARK  7 active torsions:
REMARK  status: ('A' for Active; 'I' for Inactive)
REMARK    1  A    between atoms: N1_1  and  C1_2 
REMARK    2  A    between atoms: C4_5  and  C5_6 
REMARK    3  A    between atoms: C5_6  and  C6_7 
REMARK    4  A    between atoms: C10_11  and  N2_12 
REMARK    5  A    between atoms: N2_12  and  O1_13 
REMARK    6  A    between atoms: N2_12  and  C11_14 
REMARK    7  A    between atoms: C17_20  and  O2_21 
ROOT
HETATM    1  C6  UNL     1      25.332   2.609  51.971  1.00  0.00    -0.019 A 
HETATM    2  C7  UNL     1      26.390   2.759  51.068  1.00  0.00     0.010 A 
HETATM    3  C8  UNL     1      26.304   3.217  49.775  1.00  0.00     0.003 A 
HETATM    4  C9  UNL     1      25.044   3.561  49.329  1.00  0.00     0.035 A 
HETATM    5  C10 UNL     1      23.977   3.433  50.176  1.00  0.00     0.096 A 
HETATM    6  C17 UNL     1      24.106   2.969  51.468  1.00  0.00     0.101 A 
ENDROOT
BRANCH   1   7
HETATM    7  C5  UNL     1      25.638   2.096  53.346  1.00  0.00     0.076 C 
BRANCH   7   8
HETATM    8  C4  UNL     1      26.435   0.844  53.281  1.00  0.00    -0.066 A 
HETATM    9  C3  UNL     1      25.982  -0.388  53.389  1.00  0.00     0.013 A 
HETATM   10  C2  UNL     1      27.292  -0.990  53.239  1.00  0.00    -0.028 A 
HETATM   11  C1  UNL     1      28.347  -1.797  53.068  1.00  0.00     0.012 C 
HETATM   12  C18 UNL     1      27.803   0.403  53.038  1.00  0.00     0.053 A 
HETATM   13  C21 UNL     1      29.758  -1.412  53.295  1.00  0.00     0.020 C 
HETATM   14  C20 UNL     1      30.087  -0.192  53.717  1.00  0.00    -0.024 C 
HETATM   15  C19 UNL     1      28.916   0.726  53.942  1.00  0.00     0.041 C 
BRANCH  11  16
HETATM   16  N1  UNL     1      28.213  -3.209  52.836  1.00  0.00    -0.302 NA
HETATM   17  H1  UNL     1      27.874  -4.108  52.437  1.00  0.00     0.124 HD
HETATM   18  H2  UNL     1      27.533  -3.532  52.141  1.00  0.00     0.124 HD
ENDBRANCH  11  16
ENDBRANCH   7   8
ENDBRANCH   1   7
BRANCH   6  19
HETATM   19  O2  UNL     1      23.036   2.831  52.340  1.00  0.00    -0.358 OA
HETATM   20  H15 UNL     1      22.085   2.990  51.991  1.00  0.00     0.217 HD
ENDBRANCH   6  19
BRANCH   5  21
HETATM   21  N2  UNL     1      22.638   3.774  49.790  1.00  0.00    -0.222 N 
BRANCH  21  22
HETATM   22  O1  UNL     1      21.767   2.790  49.477  1.00  0.00    -0.282 OA
HETATM   23  H9  UNL     1      20.932   3.190  49.115  1.00  0.00     0.245 HD
ENDBRANCH  21  22
BRANCH  21  24
HETATM   24  C11 UNL     1      22.135   5.108  49.711  1.00  0.00     0.063 A 
HETATM   25  C12 UNL     1      21.337   5.559  48.661  1.00  0.00     0.032 A 
HETATM   26  C13 UNL     1      20.885   6.873  48.662  1.00  0.00     0.002 A 
HETATM   27  C14 UNL     1      21.195   7.765  49.666  1.00  0.00     0.000 A 
HETATM   28  C15 UNL     1      21.982   7.341  50.710  1.00  0.00     0.002 A 
HETATM   29  C16 UNL     1      22.428   6.041  50.709  1.00  0.00     0.032 A 
ENDBRANCH  21  24
ENDBRANCH   5  21
TORSDOF 7
ENDMDL
