MODEL 1
REMARK VINA RESULT:      -8.0      0.000      0.000
REMARK  6 active torsions:
REMARK  status: ('A' for Active; 'I' for Inactive)
REMARK    1  A    between atoms: C2_2  and  C3_3 
REMARK    2  A    between atoms: C5_7  and  N3_8 
REMARK    3  A    between atoms: N3_8  and  C6_9 
REMARK    4  A    between atoms: C9_12  and  O1_13 
REMARK    5  A    between atoms: O1_13  and  C10_14 
REMARK    6  A    between atoms: C10_14  and  C11_15 
ROOT
HETATM    1  C6  UNL     1      26.064   5.144  49.327  1.00  0.00     0.035 A 
HETATM    2  C7  UNL     1      26.867   4.003  49.325  1.00  0.00     0.032 A 
HETATM    3  C8  UNL     1      26.485   2.981  50.142  1.00  0.00     0.041 A 
HETATM    4  C9  UNL     1      25.378   2.979  50.964  1.00  0.00     0.091 A 
HETATM    5  C17 UNL     1      24.580   4.126  50.957  1.00  0.00     0.069 A 
HETATM    6 CL1  UNL     1      23.138   4.241  51.967  1.00  0.00    -0.081 Cl
HETATM    7  C18 UNL     1      24.963   5.181  50.124  1.00  0.00     0.056 A 
ENDROOT
BRANCH   1   8
HETATM    8  N3  UNL     1      26.396   6.255  48.501  1.00  0.00    -0.341 N 
HETATM    9  H7  UNL     1      25.933   6.339  47.548  1.00  0.00     0.167 HD
BRANCH   8  10
HETATM   10  C5  UNL     1      27.306   7.298  48.815  1.00  0.00     0.129 A 
HETATM   11  N2  UNL     1      26.713   8.198  49.740  1.00  0.00    -0.224 NA
HETATM   12  C4  UNL     1      27.287   9.245  50.216  1.00  0.00     0.235 A 
HETATM   13  N1  UNL     1      28.603   9.645  49.877  1.00  0.00    -0.246 NA
HETATM   14  C3  UNL     1      29.383   9.025  49.064  1.00  0.00     0.039 A 
HETATM   15  P1  UNL     1      28.811   7.534  48.269  1.00  0.00    -0.040 P 
HETATM   16  C19 UNL     1      28.865   7.678  46.468  1.00  0.00     0.050 C 
HETATM   17  H17 UNL     1      29.559   6.409  48.658  1.00  0.00     0.066 HD
BRANCH  14  18
HETATM   18  C2  UNL     1      30.742   9.206  48.548  1.00  0.00     0.055 C 
HETATM   19  C1  UNL     1      31.743   8.278  49.224  1.00  0.00     0.011 C 
ENDBRANCH  14  18
ENDBRANCH   8  10
ENDBRANCH   1   8
BRANCH   4  20
HETATM   20  O1  UNL     1      25.028   1.909  51.781  1.00  0.00    -0.345 OA
BRANCH  20  21
HETATM   21  C10 UNL     1      25.604   1.816  53.076  1.00  0.00     0.214 C 
BRANCH  21  22
HETATM   22  C11 UNL     1      26.640   0.764  53.120  1.00  0.00    -0.031 A 
HETATM   23  C12 UNL     1      27.913   0.978  53.607  1.00  0.00     0.009 A 
HETATM   24  C13 UNL     1      28.897   0.016  53.660  1.00  0.00     0.004 A 
HETATM   25  C14 UNL     1      28.564  -1.241  53.189  1.00  0.00     0.042 A 
HETATM   26  C15 UNL     1      27.311  -1.518  52.692  1.00  0.00     0.117 A 
HETATM   27  F1  UNL     1      27.052  -2.782  52.245  1.00  0.00    -0.206 F 
HETATM   28  C16 UNL     1      26.349  -0.514  52.659  1.00  0.00     0.051 A 
ENDBRANCH  21  22
ENDBRANCH  20  21
ENDBRANCH   4  20
TORSDOF 6
ENDMDL
MODEL 2
REMARK VINA RESULT:      -7.9      1.720      2.412
REMARK  6 active torsions:
REMARK  status: ('A' for Active; 'I' for Inactive)
REMARK    1  A    between atoms: C2_2  and  C3_3 
REMARK    2  A    between atoms: C5_7  and  N3_8 
REMARK    3  A    between atoms: N3_8  and  C6_9 
REMARK    4  A    between atoms: C9_12  and  O1_13 
REMARK    5  A    between atoms: O1_13  and  C10_14 
REMARK    6  A    between atoms: C10_14  and  C11_15 
ROOT
HETATM    1  C6  UNL     1      26.720   5.565  48.884  1.00  0.00     0.035 A 
HETATM    2  C7  UNL     1      27.144   4.239  48.972  1.00  0.00     0.032 A 
HETATM    3  C8  UNL     1      26.416   3.412  49.775  1.00  0.00     0.041 A 
HETATM    4  C9  UNL     1      25.302   3.773  50.502  1.00  0.00     0.091 A 
HETATM    5  C17 UNL     1      24.885   5.103  50.407  1.00  0.00     0.069 A 
HETATM    6 CL1  UNL     1      23.473   5.683  51.292  1.00  0.00    -0.081 Cl
HETATM    7  C18 UNL     1      25.624   5.960  49.587  1.00  0.00     0.056 A 
ENDROOT
BRANCH   1   8
HETATM    8  N3  UNL     1      27.426   6.491  48.066  1.00  0.00    -0.341 N 
HETATM    9  H7  UNL     1      27.068   6.682  47.084  1.00  0.00     0.167 HD
BRANCH   8  10
HETATM   10  C5  UNL     1      28.595   7.213  48.424  1.00  0.00     0.129 A 
HETATM   11  N2  UNL     1      29.709   6.334  48.486  1.00  0.00    -0.224 NA
HETATM   12  C4  UNL     1      30.908   6.690  48.784  1.00  0.00     0.235 A 
HETATM   13  N1  UNL     1      31.282   8.021  49.094  1.00  0.00    -0.246 NA
HETATM   14  C3  UNL     1      30.486   9.031  49.117  1.00  0.00     0.039 A 
HETATM   15  P1  UNL     1      28.759   8.792  48.736  1.00  0.00    -0.040 P 
HETATM   16  C19 UNL     1      27.698   9.329  50.098  1.00  0.00     0.050 C 
HETATM   17  H17 UNL     1      28.378   9.473  47.568  1.00  0.00     0.066 HD
BRANCH  14  18
HETATM   18  C2  UNL     1      30.595  10.465  49.393  1.00  0.00     0.055 C 
HETATM   19  C1  UNL     1      30.493  11.305  48.127  1.00  0.00     0.011 C 
ENDBRANCH  14  18
ENDBRANCH   8  10
ENDBRANCH   1   8
BRANCH   4  20
HETATM   20  O1  UNL     1      24.591   2.891  51.309  1.00  0.00    -0.345 OA
BRANCH  20  21
HETATM   21  C10 UNL     1      24.968   2.748  52.671  1.00  0.00     0.214 C 
BRANCH  21  22
HETATM   22  C11 UNL     1      26.009   1.712  52.826  1.00  0.00    -0.031 A 
HETATM   23  C12 UNL     1      25.903   0.447  52.283  1.00  0.00     0.009 A 
HETATM   24  C13 UNL     1      26.858  -0.537  52.412  1.00  0.00     0.004 A 
HETATM   25  C14 UNL     1      27.990  -0.213  53.137  1.00  0.00     0.042 A 
HETATM   26  C15 UNL     1      28.156   1.030  53.703  1.00  0.00     0.117 A 
HETATM   27  F1  UNL     1      29.300   1.280  54.406  1.00  0.00    -0.206 F 
HETATM   28  C16 UNL     1      27.164   1.993  53.546  1.00  0.00     0.051 A 
ENDBRANCH  21  22
ENDBRANCH  20  21
ENDBRANCH   4  20
TORSDOF 6
ENDMDL
MODEL 3
REMARK VINA RESULT:      -7.8      1.996      2.740
REMARK  6 active torsions:
REMARK  status: ('A' for Active; 'I' for Inactive)
REMARK    1  A    between atoms: C2_2  and  C3_3 
REMARK    2  A    between atoms: C5_7  and  N3_8 
REMARK    3  A    between atoms: N3_8  and  C6_9 
REMARK    4  A    between atoms: C9_12  and  O1_13 
REMARK    5  A    between atoms: O1_13  and  C10_14 
REMARK    6  A    between atoms: C10_14  and  C11_15 
ROOT
HETATM    1  C6  UNL     1      27.030   5.823  48.763  1.00  0.00     0.035 A 
HETATM    2  C7  UNL     1      27.246   4.453  48.911  1.00  0.00     0.032 A 
HETATM    3  C8  UNL     1      26.395   3.781  49.737  1.00  0.00     0.041 A 
HETATM    4  C9  UNL     1      25.344   4.339  50.434  1.00  0.00     0.091 A 
HETATM    5  C17 UNL     1      25.135   5.711  50.278  1.00  0.00     0.069 A 
HETATM    6 CL1  UNL     1      23.822   6.536  51.118  1.00  0.00    -0.081 Cl
HETATM    7  C18 UNL     1      26.003   6.410  49.433  1.00  0.00     0.056 A 
ENDROOT
BRANCH   1   8
HETATM    8  N3  UNL     1      27.876   6.594  47.918  1.00  0.00    -0.341 N 
HETATM    9  H7  UNL     1      27.706   6.574  46.868  1.00  0.00     0.167 HD
BRANCH   8  10
HETATM   10  C5  UNL     1      28.958   7.416  48.328  1.00  0.00     0.129 A 
HETATM   11  N2  UNL     1      30.119   6.624  48.534  1.00  0.00    -0.224 NA
HETATM   12  C4  UNL     1      31.262   7.080  48.909  1.00  0.00     0.235 A 
HETATM   13  N1  UNL     1      31.517   8.449  49.170  1.00  0.00    -0.246 NA
HETATM   14  C3  UNL     1      30.656   9.399  49.069  1.00  0.00     0.039 A 
HETATM   15  P1  UNL     1      28.988   9.017  48.561  1.00  0.00    -0.040 P 
HETATM   16  C19 UNL     1      27.780   9.546  49.797  1.00  0.00     0.050 C 
HETATM   17  H17 UNL     1      28.665   9.607  47.327  1.00  0.00     0.066 HD
BRANCH  14  18
HETATM   18  C2  UNL     1      30.644  10.849  49.270  1.00  0.00     0.055 C 
HETATM   19  C1  UNL     1      31.305  11.596  48.118  1.00  0.00     0.011 C 
ENDBRANCH  14  18
ENDBRANCH   8  10
ENDBRANCH   1   8
BRANCH   4  20
HETATM   20  O1  UNL     1      24.500   3.610  51.266  1.00  0.00    -0.345 OA
BRANCH  20  21
HETATM   21  C10 UNL     1      24.100   2.307  50.869  1.00  0.00     0.214 C 
BRANCH  21  22
HETATM   22  C11 UNL     1      24.559   1.293  51.840  1.00  0.00    -0.031 A 
HETATM   23  C12 UNL     1      25.870   0.870  51.928  1.00  0.00     0.009 A 
HETATM   24  C13 UNL     1      26.324  -0.072  52.824  1.00  0.00     0.004 A 
HETATM   25  C14 UNL     1      25.386  -0.617  53.683  1.00  0.00     0.042 A 
HETATM   26  C15 UNL     1      24.064  -0.237  53.645  1.00  0.00     0.117 A 
HETATM   27  F1  UNL     1      23.194  -0.817  54.523  1.00  0.00    -0.206 F 
HETATM   28  C16 UNL     1      23.652   0.720  52.723  1.00  0.00     0.051 A 
ENDBRANCH  21  22
ENDBRANCH  20  21
ENDBRANCH   4  20
TORSDOF 6
ENDMDL
MODEL 4
REMARK VINA RESULT:      -7.8      6.600      9.018
REMARK  6 active torsions:
REMARK  status: ('A' for Active; 'I' for Inactive)
REMARK    1  A    between atoms: C2_2  and  C3_3 
REMARK    2  A    between atoms: C5_7  and  N3_8 
REMARK    3  A    between atoms: N3_8  and  C6_9 
REMARK    4  A    between atoms: C9_12  and  O1_13 
REMARK    5  A    between atoms: O1_13  and  C10_14 
REMARK    6  A    between atoms: C10_14  and  C11_15 
ROOT
HETATM    1  C6  UNL     1      21.515   0.733  51.374  1.00  0.00     0.035 A 
HETATM    2  C7  UNL     1      22.719   1.358  51.048  1.00  0.00     0.032 A 
HETATM    3  C8  UNL     1      23.777   1.128  51.876  1.00  0.00     0.041 A 
HETATM    4  C9  UNL     1      23.758   0.332  53.002  1.00  0.00     0.091 A 
HETATM    5  C17 UNL     1      22.548  -0.291  53.319  1.00  0.00     0.069 A 
HETATM    6 CL1  UNL     1      22.401  -1.332  54.736  1.00  0.00    -0.081 Cl
HETATM    7  C18 UNL     1      21.456  -0.060  52.477  1.00  0.00     0.056 A 
ENDROOT
BRANCH   1   8
HETATM    8  N3  UNL     1      20.365   0.924  50.559  1.00  0.00    -0.341 N 
HETATM    9  H7  UNL     1      20.390   0.586  49.552  1.00  0.00     0.167 HD
BRANCH   8  10
HETATM   10  C5  UNL     1      19.145   1.536  50.950  1.00  0.00     0.129 A 
HETATM   11  N2  UNL     1      19.356   2.914  51.218  1.00  0.00    -0.224 NA
HETATM   12  C4  UNL     1      18.443   3.738  51.593  1.00  0.00     0.235 A 
HETATM   13  N1  UNL     1      17.088   3.375  51.791  1.00  0.00    -0.246 NA
HETATM   14  C3  UNL     1      16.601   2.196  51.625  1.00  0.00     0.039 A 
HETATM   15  P1  UNL     1      17.678   0.872  51.103  1.00  0.00    -0.040 P 
HETATM   16  C19 UNL     1      17.670  -0.495  52.286  1.00  0.00     0.050 C 
HETATM   17  H17 UNL     1      17.328   0.377  49.835  1.00  0.00     0.066 HD
BRANCH  14  18
HETATM   18  C2  UNL     1      15.289   1.560  51.752  1.00  0.00     0.055 C 
HETATM   19  C1  UNL     1      14.473   2.143  52.900  1.00  0.00     0.011 C 
ENDBRANCH  14  18
ENDBRANCH   8  10
ENDBRANCH   1   8
BRANCH   4  20
HETATM   20  O1  UNL     1      24.866   0.126  53.817  1.00  0.00    -0.345 OA
BRANCH  20  21
HETATM   21  C10 UNL     1      25.793  -0.893  53.473  1.00  0.00     0.214 C 
BRANCH  21  22
HETATM   22  C11 UNL     1      27.180  -0.385  53.522  1.00  0.00    -0.031 A 
HETATM   23  C12 UNL     1      28.287  -1.198  53.386  1.00  0.00     0.009 A 
HETATM   24  C13 UNL     1      29.589  -0.751  53.428  1.00  0.00     0.004 A 
HETATM   25  C14 UNL     1      29.775   0.606  53.620  1.00  0.00     0.042 A 
HETATM   26  C15 UNL     1      28.712   1.469  53.762  1.00  0.00     0.117 A 
HETATM   27  F1  UNL     1      28.970   2.797  53.948  1.00  0.00    -0.206 F 
HETATM   28  C16 UNL     1      27.413   0.971  53.712  1.00  0.00     0.051 A 
ENDBRANCH  21  22
ENDBRANCH  20  21
ENDBRANCH   4  20
TORSDOF 6
ENDMDL
MODEL 5
REMARK VINA RESULT:      -7.6      3.128      4.275
REMARK  6 active torsions:
REMARK  status: ('A' for Active; 'I' for Inactive)
REMARK    1  A    between atoms: C2_2  and  C3_3 
REMARK    2  A    between atoms: C5_7  and  N3_8 
REMARK    3  A    between atoms: N3_8  and  C6_9 
REMARK    4  A    between atoms: C9_12  and  O1_13 
REMARK    5  A    between atoms: O1_13  and  C10_14 
REMARK    6  A    between atoms: C10_14  and  C11_15 
ROOT
HETATM    1  C6  UNL     1      22.899   3.998  52.300  1.00  0.00     0.035 A 
HETATM    2  C7  UNL     1      24.062   3.665  52.994  1.00  0.00     0.032 A 
HETATM    3  C8  UNL     1      24.327   2.336  53.150  1.00  0.00     0.041 A 
HETATM    4  C9  UNL     1      23.546   1.301  52.680  1.00  0.00     0.091 A 
HETATM    5  C17 UNL     1      22.384   1.646  51.985  1.00  0.00     0.069 A 
HETATM    6 CL1  UNL     1      21.306   0.408  51.338  1.00  0.00    -0.081 Cl
HETATM    7  C18 UNL     1      22.103   3.005  51.821  1.00  0.00     0.056 A 
ENDROOT
BRANCH   1   8
HETATM    8  N3  UNL     1      22.553   5.364  52.096  1.00  0.00    -0.341 N 
HETATM    9  H7  UNL     1      21.945   5.850  52.820  1.00  0.00     0.167 HD
BRANCH   8  10
HETATM   10  C5  UNL     1      22.941   6.179  51.001  1.00  0.00     0.129 A 
HETATM   11  N2  UNL     1      22.000   7.227  50.818  1.00  0.00    -0.224 NA
HETATM   12  C4  UNL     1      22.076   8.130  49.907  1.00  0.00     0.235 A 
HETATM   13  N1  UNL     1      23.120   8.201  48.952  1.00  0.00    -0.246 NA
HETATM   14  C3  UNL     1      24.112   7.387  48.873  1.00  0.00     0.039 A 
HETATM   15  P1  UNL     1      24.232   6.039  50.036  1.00  0.00    -0.040 P 
HETATM   16  C19 UNL     1      24.281   4.440  49.195  1.00  0.00     0.050 C 
HETATM   17  H17 UNL     1      25.364   6.154  50.861  1.00  0.00     0.066 HD
BRANCH  14  18
HETATM   18  C2  UNL     1      25.292   7.228  48.020  1.00  0.00     0.055 C 
HETATM   19  C1  UNL     1      26.592   7.329  48.808  1.00  0.00     0.011 C 
ENDBRANCH  14  18
ENDBRANCH   8  10
ENDBRANCH   1   8
BRANCH   4  20
HETATM   20  O1  UNL     1      23.858  -0.042  52.864  1.00  0.00    -0.345 OA
BRANCH  20  21
HETATM   21  C10 UNL     1      24.480  -0.444  54.076  1.00  0.00     0.214 C 
BRANCH  21  22
HETATM   22  C11 UNL     1      25.944  -0.548  53.911  1.00  0.00    -0.031 A 
HETATM   23  C12 UNL     1      26.542  -1.343  52.954  1.00  0.00     0.009 A 
HETATM   24  C13 UNL     1      27.903  -1.458  52.779  1.00  0.00     0.004 A 
HETATM   25  C14 UNL     1      28.704  -0.718  53.629  1.00  0.00     0.042 A 
HETATM   26  C15 UNL     1      28.169   0.093  54.603  1.00  0.00     0.117 A 
HETATM   27  F1  UNL     1      29.020   0.795  55.408  1.00  0.00    -0.206 F 
HETATM   28  C16 UNL     1      26.787   0.178  54.743  1.00  0.00     0.051 A 
ENDBRANCH  21  22
ENDBRANCH  20  21
ENDBRANCH   4  20
TORSDOF 6
ENDMDL
MODEL 6
REMARK VINA RESULT:      -7.5      2.825      3.588
REMARK  6 active torsions:
REMARK  status: ('A' for Active; 'I' for Inactive)
REMARK    1  A    between atoms: C2_2  and  C3_3 
REMARK    2  A    between atoms: C5_7  and  N3_8 
REMARK    3  A    between atoms: N3_8  and  C6_9 
REMARK    4  A    between atoms: C9_12  and  O1_13 
REMARK    5  A    between atoms: O1_13  and  C10_14 
REMARK    6  A    between atoms: C10_14  and  C11_15 
ROOT
HETATM    1  C6  UNL     1      25.812   4.600  49.630  1.00  0.00     0.035 A 
HETATM    2  C7  UNL     1      26.471   3.385  49.815  1.00  0.00     0.032 A 
HETATM    3  C8  UNL     1      26.039   2.599  50.841  1.00  0.00     0.041 A 
HETATM    4  C9  UNL     1      25.010   2.903  51.707  1.00  0.00     0.091 A 
HETATM    5  C17 UNL     1      24.356   4.122  51.514  1.00  0.00     0.069 A 
HETATM    6 CL1  UNL     1      23.024   4.619  52.559  1.00  0.00    -0.081 Cl
HETATM    7  C18 UNL     1      24.791   4.936  50.464  1.00  0.00     0.056 A 
ENDROOT
BRANCH   1   8
HETATM    8  N3  UNL     1      26.205   5.477  48.580  1.00  0.00    -0.341 N 
HETATM    9  H7  UNL     1      25.572   5.573  47.732  1.00  0.00     0.167 HD
BRANCH   8  10
HETATM   10  C5  UNL     1      27.386   6.264  48.534  1.00  0.00     0.129 A 
HETATM   11  N2  UNL     1      28.523   5.426  48.388  1.00  0.00    -0.224 NA
HETATM   12  C4  UNL     1      29.737   5.842  48.315  1.00  0.00     0.235 A 
HETATM   13  N1  UNL     1      30.106   7.209  48.371  1.00  0.00    -0.246 NA
HETATM   14  C3  UNL     1      29.290   8.195  48.500  1.00  0.00     0.039 A 
HETATM   15  P1  UNL     1      27.540   7.872  48.622  1.00  0.00    -0.040 P 
HETATM   16  C19 UNL     1      26.848   8.537  50.154  1.00  0.00     0.050 C 
HETATM   17  H17 UNL     1      26.828   8.403  47.533  1.00  0.00     0.066 HD
BRANCH  14  18
HETATM   18  C2  UNL     1      29.390   9.654  48.584  1.00  0.00     0.055 C 
HETATM   19  C1  UNL     1      30.558  10.103  49.454  1.00  0.00     0.011 C 
ENDBRANCH  14  18
ENDBRANCH   8  10
ENDBRANCH   1   8
BRANCH   4  20
HETATM   20  O1  UNL     1      24.603   2.066  52.742  1.00  0.00    -0.345 OA
BRANCH  20  21
HETATM   21  C10 UNL     1      24.598   0.663  52.530  1.00  0.00     0.214 C 
BRANCH  21  22
HETATM   22  C11 UNL     1      23.412   0.038  53.151  1.00  0.00    -0.031 A 
HETATM   23  C12 UNL     1      23.463  -0.661  54.340  1.00  0.00     0.009 A 
HETATM   24  C13 UNL     1      22.374  -1.252  54.941  1.00  0.00     0.004 A 
HETATM   25  C14 UNL     1      21.159  -1.124  54.292  1.00  0.00     0.042 A 
HETATM   26  C15 UNL     1      21.043  -0.440  53.103  1.00  0.00     0.117 A 
HETATM   27  F1  UNL     1      19.813  -0.354  52.518  1.00  0.00    -0.206 F 
HETATM   28  C16 UNL     1      22.172   0.142  52.534  1.00  0.00     0.051 A 
ENDBRANCH  21  22
ENDBRANCH  20  21
ENDBRANCH   4  20
TORSDOF 6
ENDMDL
MODEL 7
REMARK VINA RESULT:      -7.4      1.808      2.341
REMARK  6 active torsions:
REMARK  status: ('A' for Active; 'I' for Inactive)
REMARK    1  A    between atoms: C2_2  and  C3_3 
REMARK    2  A    between atoms: C5_7  and  N3_8 
REMARK    3  A    between atoms: N3_8  and  C6_9 
REMARK    4  A    between atoms: C9_12  and  O1_13 
REMARK    5  A    between atoms: O1_13  and  C10_14 
REMARK    6  A    between atoms: C10_14  and  C11_15 
ROOT
HETATM    1  C6  UNL     1      27.190   6.013  48.517  1.00  0.00     0.035 A 
HETATM    2  C7  UNL     1      27.641   4.705  48.692  1.00  0.00     0.032 A 
HETATM    3  C8  UNL     1      26.811   3.851  49.355  1.00  0.00     0.041 A 
HETATM    4  C9  UNL     1      25.570   4.169  49.864  1.00  0.00     0.091 A 
HETATM    5  C17 UNL     1      25.127   5.482  49.683  1.00  0.00     0.069 A 
HETATM    6 CL1  UNL     1      23.556   6.006  50.290  1.00  0.00    -0.081 Cl
HETATM    7  C18 UNL     1      25.970   6.366  49.004  1.00  0.00     0.056 A 
ENDROOT
BRANCH   1   8
HETATM    8  N3  UNL     1      27.998   6.965  47.835  1.00  0.00    -0.341 N 
HETATM    9  H7  UNL     1      27.697   7.293  46.869  1.00  0.00     0.167 HD
BRANCH   8  10
HETATM   10  C5  UNL     1      29.202   7.547  48.311  1.00  0.00     0.129 A 
HETATM   11  N2  UNL     1      28.920   8.772  48.972  1.00  0.00    -0.224 NA
HETATM   12  C4  UNL     1      29.803   9.535  49.513  1.00  0.00     0.235 A 
HETATM   13  N1  UNL     1      31.191   9.250  49.520  1.00  0.00    -0.246 NA
HETATM   14  C3  UNL     1      31.741   8.211  48.998  1.00  0.00     0.039 A 
HETATM   15  P1  UNL     1      30.718   6.997  48.185  1.00  0.00    -0.040 P 
HETATM   16  C19 UNL     1      31.212   6.759  46.462  1.00  0.00     0.050 C 
HETATM   17  H17 UNL     1      30.749   5.755  48.842  1.00  0.00     0.066 HD
BRANCH  14  18
HETATM   18  C2  UNL     1      33.099   7.681  48.863  1.00  0.00     0.055 C 
HETATM   19  C1  UNL     1      33.994   8.592  48.032  1.00  0.00     0.011 C 
ENDBRANCH  14  18
ENDBRANCH   8  10
ENDBRANCH   1   8
BRANCH   4  20
HETATM   20  O1  UNL     1      24.757   3.260  50.535  1.00  0.00    -0.345 OA
BRANCH  20  21
HETATM   21  C10 UNL     1      24.898   3.121  51.941  1.00  0.00     0.214 C 
BRANCH  21  22
HETATM   22  C11 UNL     1      25.245   1.731  52.303  1.00  0.00    -0.031 A 
HETATM   23  C12 UNL     1      26.391   1.100  51.863  1.00  0.00     0.009 A 
HETATM   24  C13 UNL     1      26.738  -0.193  52.186  1.00  0.00     0.004 A 
HETATM   25  C14 UNL     1      25.866  -0.886  53.006  1.00  0.00     0.042 A 
HETATM   26  C15 UNL     1      24.708  -0.312  53.478  1.00  0.00     0.117 A 
HETATM   27  F1  UNL     1      23.894  -1.054  54.284  1.00  0.00    -0.206 F 
HETATM   28  C16 UNL     1      24.398   0.999  53.125  1.00  0.00     0.051 A 
ENDBRANCH  21  22
ENDBRANCH  20  21
ENDBRANCH   4  20
TORSDOF 6
ENDMDL
MODEL 8
REMARK VINA RESULT:      -7.4      6.001      8.691
REMARK  6 active torsions:
REMARK  status: ('A' for Active; 'I' for Inactive)
REMARK    1  A    between atoms: C2_2  and  C3_3 
REMARK    2  A    between atoms: C5_7  and  N3_8 
REMARK    3  A    between atoms: N3_8  and  C6_9 
REMARK    4  A    between atoms: C9_12  and  O1_13 
REMARK    5  A    between atoms: O1_13  and  C10_14 
REMARK    6  A    between atoms: C10_14  and  C11_15 
ROOT
HETATM    1  C6  UNL     1      21.751   0.925  51.227  1.00  0.00     0.035 A 
HETATM    2  C7  UNL     1      22.371   0.714  52.458  1.00  0.00     0.032 A 
HETATM    3  C8  UNL     1      23.560   1.347  52.666  1.00  0.00     0.041 A 
HETATM    4  C9  UNL     1      24.197   2.175  51.766  1.00  0.00     0.091 A 
HETATM    5  C17 UNL     1      23.567   2.381  50.535  1.00  0.00     0.069 A 
HETATM    6 CL1  UNL     1      24.287   3.419  49.304  1.00  0.00    -0.081 Cl
HETATM    7  C18 UNL     1      22.348   1.736  50.312  1.00  0.00     0.056 A 
ENDROOT
BRANCH   1   8
HETATM    8  N3  UNL     1      20.507   0.299  50.935  1.00  0.00    -0.341 N 
HETATM    9  H7  UNL     1      20.513  -0.668  50.492  1.00  0.00     0.167 HD
BRANCH   8  10
HETATM   10  C5  UNL     1      19.214   0.834  51.175  1.00  0.00     0.129 A 
HETATM   11  N2  UNL     1      18.292  -0.217  51.422  1.00  0.00    -0.224 NA
HETATM   12  C4  UNL     1      17.041  -0.052  51.674  1.00  0.00     0.235 A 
HETATM   13  N1  UNL     1      16.411   1.216  51.739  1.00  0.00    -0.246 NA
HETATM   14  C3  UNL     1      16.995   2.347  51.558  1.00  0.00     0.039 A 
HETATM   15  P1  UNL     1      18.742   2.381  51.193  1.00  0.00    -0.040 P 
HETATM   16  C19 UNL     1      19.075   3.211  49.622  1.00  0.00     0.050 C 
HETATM   17  H17 UNL     1      19.480   3.014  52.207  1.00  0.00     0.066 HD
BRANCH  14  18
HETATM   18  C2  UNL     1      16.605   3.758  51.565  1.00  0.00     0.055 C 
HETATM   19  C1  UNL     1      15.571   4.065  52.642  1.00  0.00     0.011 C 
ENDBRANCH  14  18
ENDBRANCH   8  10
ENDBRANCH   1   8
BRANCH   4  20
HETATM   20  O1  UNL     1      25.413   2.801  52.023  1.00  0.00    -0.345 OA
BRANCH  20  21
HETATM   21  C10 UNL     1      26.600   2.251  51.470  1.00  0.00     0.214 C 
BRANCH  21  22
HETATM   22  C11 UNL     1      27.405   1.576  52.508  1.00  0.00    -0.031 A 
HETATM   23  C12 UNL     1      27.324   0.223  52.766  1.00  0.00     0.009 A 
HETATM   24  C13 UNL     1      28.063  -0.430  53.727  1.00  0.00     0.004 A 
HETATM   25  C14 UNL     1      28.937   0.341  54.471  1.00  0.00     0.042 A 
HETATM   26  C15 UNL     1      29.064   1.695  54.262  1.00  0.00     0.117 A 
HETATM   27  F1  UNL     1      29.948   2.394  55.033  1.00  0.00    -0.206 F 
HETATM   28  C16 UNL     1      28.297   2.312  53.278  1.00  0.00     0.051 A 
ENDBRANCH  21  22
ENDBRANCH  20  21
ENDBRANCH   4  20
TORSDOF 6
ENDMDL
MODEL 9
REMARK VINA RESULT:      -7.4      5.837      7.743
REMARK  6 active torsions:
REMARK  status: ('A' for Active; 'I' for Inactive)
REMARK    1  A    between atoms: C2_2  and  C3_3 
REMARK    2  A    between atoms: C5_7  and  N3_8 
REMARK    3  A    between atoms: N3_8  and  C6_9 
REMARK    4  A    between atoms: C9_12  and  O1_13 
REMARK    5  A    between atoms: O1_13  and  C10_14 
REMARK    6  A    between atoms: C10_14  and  C11_15 
ROOT
HETATM    1  C6  UNL     1      22.115   3.019  52.346  1.00  0.00     0.035 A 
HETATM    2  C7  UNL     1      23.450   3.402  52.475  1.00  0.00     0.032 A 
HETATM    3  C8  UNL     1      24.328   2.446  52.889  1.00  0.00     0.041 A 
HETATM    4  C9  UNL     1      24.010   1.137  53.188  1.00  0.00     0.091 A 
HETATM    5  C17 UNL     1      22.670   0.763  53.054  1.00  0.00     0.069 A 
HETATM    6 CL1  UNL     1      22.143  -0.883  53.408  1.00  0.00    -0.081 Cl
HETATM    7  C18 UNL     1      21.761   1.737  52.631  1.00  0.00     0.056 A 
ENDROOT
BRANCH   1   8
HETATM    8  N3  UNL     1      21.137   3.961  51.919  1.00  0.00    -0.341 N 
HETATM    9  H7  UNL     1      21.264   4.983  52.181  1.00  0.00     0.167 HD
BRANCH   8  10
HETATM   10  C5  UNL     1      19.973   3.682  51.156  1.00  0.00     0.129 A 
HETATM   11  N2  UNL     1      18.844   3.585  52.012  1.00  0.00    -0.224 NA
HETATM   12  C4  UNL     1      17.644   3.342  51.619  1.00  0.00     0.235 A 
HETATM   13  N1  UNL     1      17.285   3.135  50.264  1.00  0.00    -0.246 NA
HETATM   14  C3  UNL     1      18.096   3.163  49.267  1.00  0.00     0.039 A 
HETATM   15  P1  UNL     1      19.827   3.485  49.557  1.00  0.00    -0.040 P 
HETATM   16  C19 UNL     1      20.865   2.139  48.941  1.00  0.00     0.050 C 
HETATM   17  H17 UNL     1      20.246   4.689  48.965  1.00  0.00     0.066 HD
BRANCH  14  18
HETATM   18  C2  UNL     1      18.004   2.991  47.816  1.00  0.00     0.055 C 
HETATM   19  C1  UNL     1      16.576   2.721  47.357  1.00  0.00     0.011 C 
ENDBRANCH  14  18
ENDBRANCH   8  10
ENDBRANCH   1   8
BRANCH   4  20
HETATM   20  O1  UNL     1      24.943   0.195  53.607  1.00  0.00    -0.345 OA
BRANCH  20  21
HETATM   21  C10 UNL     1      25.796  -0.404  52.643  1.00  0.00     0.214 C 
BRANCH  21  22
HETATM   22  C11 UNL     1      27.207  -0.349  53.077  1.00  0.00    -0.031 A 
HETATM   23  C12 UNL     1      28.069  -1.423  52.984  1.00  0.00     0.009 A 
HETATM   24  C13 UNL     1      29.388  -1.398  53.380  1.00  0.00     0.004 A 
HETATM   25  C14 UNL     1      29.858  -0.207  53.903  1.00  0.00     0.042 A 
HETATM   26  C15 UNL     1      29.049   0.900  54.022  1.00  0.00     0.117 A 
HETATM   27  F1  UNL     1      29.580   2.043  54.547  1.00  0.00    -0.206 F 
HETATM   28  C16 UNL     1      27.722   0.828  53.607  1.00  0.00     0.051 A 
ENDBRANCH  21  22
ENDBRANCH  20  21
ENDBRANCH   4  20
TORSDOF 6
ENDMDL
