MODEL 1
REMARK VINA RESULT:      -9.5      0.000      0.000
REMARK  6 active torsions:
REMARK  status: ('A' for Active; 'I' for Inactive)
REMARK    1  A    between atoms: O1_2  and  C2_3 
REMARK    2  A    between atoms: C6_9  and  N3_10 
REMARK    3  A    between atoms: N3_10  and  C7_11 
REMARK    4  A    between atoms: C15_21  and  C16_22 
REMARK    5  A    between atoms: C16_22  and  N4_23 
REMARK       I    between atoms: N4_23  and  C17_24 
REMARK    6  A    between atoms: C17_24  and  C18_26 
ROOT
HETATM    1  C2  UNL     1      20.372   1.526  52.370  1.00  0.00     0.078 A 
HETATM    2  C3  UNL     1      20.496   0.667  53.442  1.00  0.00     0.070 A 
HETATM    3  C4  UNL     1      21.706   0.126  53.753  1.00  0.00     0.074 A 
HETATM    4  N1  UNL     1      21.739  -0.706  54.819  1.00  0.00    -0.241 NA
HETATM    5  C5  UNL     1      22.872  -1.301  55.221  1.00  0.00     0.236 A 
HETATM    6  N2  UNL     1      23.956  -1.012  54.495  1.00  0.00    -0.224 NA
HETATM    7  C6  UNL     1      24.046  -0.224  53.445  1.00  0.00     0.142 A 
HETATM    8  C13 UNL     1      22.863   0.364  53.068  1.00  0.00     0.039 A 
HETATM    9  C14 UNL     1      22.703   1.224  52.005  1.00  0.00     0.029 A 
HETATM   10  C15 UNL     1      21.512   1.810  51.633  1.00  0.00    -0.006 A 
ENDROOT
BRANCH  10  11
HETATM   11  C16 UNL     1      21.408   2.724  50.479  1.00  0.00     0.164 C 
BRANCH  11  12
HETATM   12  N4  UNL     1      22.728   3.034  49.925  1.00  0.00    -0.355 N 
HETATM   13  C17 UNL     1      23.245   4.192  50.563  1.00  0.00     0.251 C 
HETATM   14  O2  UNL     1      22.617   4.831  51.477  1.00  0.00    -0.271 OA
HETATM   15  H13 UNL     1      23.346   2.613  49.198  1.00  0.00     0.162 HD
BRANCH  13  16
HETATM   16  C18 UNL     1      24.529   4.857  50.325  1.00  0.00     0.313 C 
HETATM   17  C19 UNL     1      25.613   3.883  50.771  1.00  0.00     0.046 C 
HETATM   18  C20 UNL     1      26.386   3.340  49.586  1.00  0.00     0.004 C 
HETATM   19  C21 UNL     1      27.135   4.487  48.911  1.00  0.00     0.030 C 
HETATM   20  C22 UNL     1      26.164   5.631  48.849  1.00  0.00     0.273 C 
HETATM   21  N5  UNL     1      24.779   5.212  48.943  1.00  0.00     0.098 N 
HETATM   22  C23 UNL     1      23.964   6.331  48.518  1.00  0.00     0.310 C 
ENDBRANCH  13  16
ENDBRANCH  11  12
ENDBRANCH  10  11
BRANCH   1  23
HETATM   23  O1  UNL     1      19.163   2.098  52.020  1.00  0.00    -0.355 OA
HETATM   24  C1  UNL     1      18.124   1.271  51.528  1.00  0.00     0.210 C 
ENDBRANCH   1  23
BRANCH   7  25
HETATM   25  N3  UNL     1      25.211   0.063  52.695  1.00  0.00    -0.340 N 
HETATM   26  H6  UNL     1      25.175   0.505  51.759  1.00  0.00     0.167 HD
BRANCH  25  27
HETATM   27  C7  UNL     1      26.573  -0.167  53.019  1.00  0.00     0.035 A 
HETATM   28  C8  UNL     1      27.260  -1.375  52.854  1.00  0.00     0.032 A 
HETATM   29  C9  UNL     1      28.576  -1.534  53.190  1.00  0.00     0.046 A 
HETATM   30  C10 UNL     1      29.314  -0.501  53.718  1.00  0.00     0.138 A 
HETATM   31  F1  UNL     1      30.597  -0.782  54.008  1.00  0.00    -0.204 F 
HETATM   32  C11 UNL     1      28.678   0.707  53.897  1.00  0.00     0.074 A 
HETATM   33 CL1  UNL     1      29.659   1.981  54.570  1.00  0.00    -0.081 Cl
HETATM   34  C12 UNL     1      27.356   0.831  53.549  1.00  0.00     0.056 A 
ENDBRANCH  25  27
ENDBRANCH   7  25
TORSDOF 6
ENDMDL
MODEL 2
REMARK VINA RESULT:      -9.4      1.018      1.574
REMARK  6 active torsions:
REMARK  status: ('A' for Active; 'I' for Inactive)
REMARK    1  A    between atoms: O1_2  and  C2_3 
REMARK    2  A    between atoms: C6_9  and  N3_10 
REMARK    3  A    between atoms: N3_10  and  C7_11 
REMARK    4  A    between atoms: C15_21  and  C16_22 
REMARK    5  A    between atoms: C16_22  and  N4_23 
REMARK       I    between atoms: N4_23  and  C17_24 
REMARK    6  A    between atoms: C17_24  and  C18_26 
ROOT
HETATM    1  C2  UNL     1      20.237   0.314  52.672  1.00  0.00     0.078 A 
HETATM    2  C3  UNL     1      20.544  -0.403  53.809  1.00  0.00     0.070 A 
HETATM    3  C4  UNL     1      21.842  -0.636  54.145  1.00  0.00     0.074 A 
HETATM    4  N1  UNL     1      22.055  -1.349  55.275  1.00  0.00    -0.241 NA
HETATM    5  C5  UNL     1      23.290  -1.644  55.708  1.00  0.00     0.236 A 
HETATM    6  N2  UNL     1      24.286  -1.184  54.944  1.00  0.00    -0.224 NA
HETATM    7  C6  UNL     1      24.203  -0.486  53.832  1.00  0.00     0.142 A 
HETATM    8  C13 UNL     1      22.921  -0.207  53.426  1.00  0.00     0.039 A 
HETATM    9  C14 UNL     1      22.578   0.505  52.298  1.00  0.00     0.029 A 
HETATM   10  C15 UNL     1      21.288   0.780  51.896  1.00  0.00    -0.006 A 
ENDROOT
BRANCH  10  11
HETATM   11  C16 UNL     1      20.989   1.549  50.673  1.00  0.00     0.164 C 
BRANCH  11  12
HETATM   12  N4  UNL     1      22.173   1.673  49.820  1.00  0.00    -0.355 N 
HETATM   13  C17 UNL     1      22.698   2.988  49.934  1.00  0.00     0.251 C 
HETATM   14  O2  UNL     1      22.182   3.889  50.682  1.00  0.00    -0.271 OA
HETATM   15  H13 UNL     1      22.693   1.041  49.175  1.00  0.00     0.162 HD
BRANCH  13  16
HETATM   16  C18 UNL     1      23.871   3.553  49.263  1.00  0.00     0.313 C 
HETATM   17  C19 UNL     1      23.384   4.769  48.485  1.00  0.00     0.046 C 
HETATM   18  C20 UNL     1      23.893   6.057  49.100  1.00  0.00     0.004 C 
HETATM   19  C21 UNL     1      25.415   6.096  48.986  1.00  0.00     0.030 C 
HETATM   20  C22 UNL     1      25.891   4.721  49.359  1.00  0.00     0.273 C 
HETATM   21  N5  UNL     1      24.931   3.980  50.155  1.00  0.00     0.098 N 
HETATM   22  C23 UNL     1      25.634   2.855  50.734  1.00  0.00     0.310 C 
ENDBRANCH  13  16
ENDBRANCH  11  12
ENDBRANCH  10  11
BRANCH   1  23
HETATM   23  O1  UNL     1      18.933   0.574  52.294  1.00  0.00    -0.355 OA
HETATM   24  C1  UNL     1      18.086  -0.506  51.945  1.00  0.00     0.210 C 
ENDBRANCH   1  23
BRANCH   7  25
HETATM   25  N3  UNL     1      25.279  -0.013  53.044  1.00  0.00    -0.340 N 
HETATM   26  H6  UNL     1      25.133   0.538  52.179  1.00  0.00     0.167 HD
BRANCH  25  27
HETATM   27  C7  UNL     1      26.675  -0.169  53.235  1.00  0.00     0.035 A 
HETATM   28  C8  UNL     1      27.416  -1.322  52.953  1.00  0.00     0.032 A 
HETATM   29  C9  UNL     1      28.764  -1.411  53.164  1.00  0.00     0.046 A 
HETATM   30  C10 UNL     1      29.483  -0.356  53.673  1.00  0.00     0.138 A 
HETATM   31  F1  UNL     1      30.803  -0.567  53.835  1.00  0.00    -0.204 F 
HETATM   32  C11 UNL     1      28.795   0.800  53.964  1.00  0.00     0.074 A 
HETATM   33 CL1  UNL     1      29.756   2.106  54.608  1.00  0.00    -0.081 Cl
HETATM   34  C12 UNL     1      27.442   0.855  53.740  1.00  0.00     0.056 A 
ENDBRANCH  25  27
ENDBRANCH   7  25
TORSDOF 6
ENDMDL
MODEL 3
REMARK VINA RESULT:      -9.4      2.026      2.491
REMARK  6 active torsions:
REMARK  status: ('A' for Active; 'I' for Inactive)
REMARK    1  A    between atoms: O1_2  and  C2_3 
REMARK    2  A    between atoms: C6_9  and  N3_10 
REMARK    3  A    between atoms: N3_10  and  C7_11 
REMARK    4  A    between atoms: C15_21  and  C16_22 
REMARK    5  A    between atoms: C16_22  and  N4_23 
REMARK       I    between atoms: N4_23  and  C17_24 
REMARK    6  A    between atoms: C17_24  and  C18_26 
ROOT
HETATM    1  C2  UNL     1      19.853   0.052  52.591  1.00  0.00     0.078 A 
HETATM    2  C3  UNL     1      20.251  -0.677  53.691  1.00  0.00     0.070 A 
HETATM    3  C4  UNL     1      21.569  -0.756  54.024  1.00  0.00     0.074 A 
HETATM    4  N1  UNL     1      21.872  -1.493  55.117  1.00  0.00    -0.241 NA
HETATM    5  C5  UNL     1      23.135  -1.646  55.543  1.00  0.00     0.236 A 
HETATM    6  N2  UNL     1      24.062  -1.020  54.812  1.00  0.00    -0.224 NA
HETATM    7  C6  UNL     1      23.889  -0.281  53.737  1.00  0.00     0.142 A 
HETATM    8  C13 UNL     1      22.582  -0.152  53.337  1.00  0.00     0.039 A 
HETATM    9  C14 UNL     1      22.149   0.568  52.245  1.00  0.00     0.029 A 
HETATM   10  C15 UNL     1      20.835   0.692  51.849  1.00  0.00    -0.006 A 
ENDROOT
BRANCH  10  11
HETATM   11  C16 UNL     1      20.438   1.479  50.665  1.00  0.00     0.164 C 
BRANCH  11  12
HETATM   12  N4  UNL     1      21.266   2.678  50.520  1.00  0.00    -0.355 N 
HETATM   13  C17 UNL     1      20.738   3.716  51.333  1.00  0.00     0.251 C 
HETATM   14  O2  UNL     1      19.695   3.576  52.062  1.00  0.00    -0.271 OA
HETATM   15  H13 UNL     1      22.121   2.929  49.978  1.00  0.00     0.162 HD
BRANCH  13  16
HETATM   16  C18 UNL     1      21.244   5.080  51.498  1.00  0.00     0.313 C 
HETATM   17  C19 UNL     1      22.547   4.971  52.280  1.00  0.00     0.046 C 
HETATM   18  C20 UNL     1      23.742   5.301  51.408  1.00  0.00     0.004 C 
HETATM   19  C21 UNL     1      23.657   6.764  50.982  1.00  0.00     0.030 C 
HETATM   20  C22 UNL     1      22.224   6.998  50.596  1.00  0.00     0.273 C 
HETATM   21  N5  UNL     1      21.517   5.778  50.257  1.00  0.00     0.098 N 
HETATM   22  C23 UNL     1      20.299   6.165  49.577  1.00  0.00     0.310 C 
ENDBRANCH  13  16
ENDBRANCH  11  12
ENDBRANCH  10  11
BRANCH   1  23
HETATM   23  O1  UNL     1      18.526   0.159  52.217  1.00  0.00    -0.355 OA
HETATM   24  C1  UNL     1      17.610  -0.838  52.631  1.00  0.00     0.210 C 
ENDBRANCH   1  23
BRANCH   7  25
HETATM   25  N3  UNL     1      24.894   0.370  52.983  1.00  0.00    -0.340 N 
HETATM   26  H6  UNL     1      24.674   0.988  52.181  1.00  0.00     0.167 HD
BRANCH  25  27
HETATM   27  C7  UNL     1      26.304   0.331  53.133  1.00  0.00     0.035 A 
HETATM   28  C8  UNL     1      27.139   1.439  53.313  1.00  0.00     0.032 A 
HETATM   29  C9  UNL     1      28.495   1.335  53.448  1.00  0.00     0.046 A 
HETATM   30  C10 UNL     1      29.129   0.116  53.416  1.00  0.00     0.138 A 
HETATM   31  F1  UNL     1      30.467   0.145  53.559  1.00  0.00    -0.204 F 
HETATM   32  C11 UNL     1      28.347  -1.003  53.241  1.00  0.00     0.074 A 
HETATM   33 CL1  UNL     1      29.203  -2.522  53.206  1.00  0.00    -0.081 Cl
HETATM   34  C12 UNL     1      26.988  -0.862  53.108  1.00  0.00     0.056 A 
ENDBRANCH  25  27
ENDBRANCH   7  25
TORSDOF 6
ENDMDL
MODEL 4
REMARK VINA RESULT:      -9.1      3.828      6.167
REMARK  6 active torsions:
REMARK  status: ('A' for Active; 'I' for Inactive)
REMARK    1  A    between atoms: O1_2  and  C2_3 
REMARK    2  A    between atoms: C6_9  and  N3_10 
REMARK    3  A    between atoms: N3_10  and  C7_11 
REMARK    4  A    between atoms: C15_21  and  C16_22 
REMARK    5  A    between atoms: C16_22  and  N4_23 
REMARK       I    between atoms: N4_23  and  C17_24 
REMARK    6  A    between atoms: C17_24  and  C18_26 
ROOT
HETATM    1  C2  UNL     1      25.926   6.314  49.454  1.00  0.00     0.078 A 
HETATM    2  C3  UNL     1      24.808   6.207  50.256  1.00  0.00     0.070 A 
HETATM    3  C4  UNL     1      24.486   5.015  50.829  1.00  0.00     0.074 A 
HETATM    4  N1  UNL     1      23.374   4.997  51.599  1.00  0.00    -0.241 NA
HETATM    5  C5  UNL     1      22.954   3.882  52.215  1.00  0.00     0.236 A 
HETATM    6  N2  UNL     1      23.711   2.800  52.012  1.00  0.00    -0.224 NA
HETATM    7  C6  UNL     1      24.805   2.696  51.289  1.00  0.00     0.142 A 
HETATM    8  C13 UNL     1      25.198   3.861  50.676  1.00  0.00     0.039 A 
HETATM    9  C14 UNL     1      26.306   4.004  49.871  1.00  0.00     0.029 A 
HETATM   10  C15 UNL     1      26.694   5.177  49.258  1.00  0.00    -0.006 A 
ENDROOT
BRANCH  10  11
HETATM   11  C16 UNL     1      27.894   5.262  48.404  1.00  0.00     0.164 C 
BRANCH  11  12
HETATM   12  N4  UNL     1      28.821   6.287  48.889  1.00  0.00    -0.355 N 
HETATM   13  C17 UNL     1      30.149   5.920  48.544  1.00  0.00     0.251 C 
HETATM   14  O2  UNL     1      30.439   4.849  47.906  1.00  0.00    -0.271 OA
HETATM   15  H13 UNL     1      28.729   7.186  49.408  1.00  0.00     0.162 HD
BRANCH  13  16
HETATM   16  C18 UNL     1      31.389   6.646  48.827  1.00  0.00     0.313 C 
HETATM   17  C19 UNL     1      32.456   5.595  49.111  1.00  0.00     0.046 C 
HETATM   18  C20 UNL     1      33.480   5.535  47.996  1.00  0.00     0.004 C 
HETATM   19  C21 UNL     1      34.235   6.861  47.941  1.00  0.00     0.030 C 
HETATM   20  C22 UNL     1      33.193   7.933  48.091  1.00  0.00     0.273 C 
HETATM   21  N5  UNL     1      31.858   7.487  47.743  1.00  0.00     0.098 N 
HETATM   22  C23 UNL     1      31.040   8.670  47.585  1.00  0.00     0.310 C 
ENDBRANCH  13  16
ENDBRANCH  11  12
ENDBRANCH  10  11
BRANCH   1  23
HETATM   23  O1  UNL     1      26.290   7.505  48.853  1.00  0.00    -0.355 OA
HETATM   24  C1  UNL     1      26.139   8.716  49.570  1.00  0.00     0.210 C 
ENDBRANCH   1  23
BRANCH   7  25
HETATM   25  N3  UNL     1      25.586   1.533  51.092  1.00  0.00    -0.340 N 
HETATM   26  H6  UNL     1      25.506   0.947  50.241  1.00  0.00     0.167 HD
BRANCH  25  27
HETATM   27  C7  UNL     1      26.567   0.950  51.934  1.00  0.00     0.035 A 
HETATM   28  C8  UNL     1      26.768  -0.420  52.131  1.00  0.00     0.032 A 
HETATM   29  C9  UNL     1      27.732  -0.920  52.961  1.00  0.00     0.046 A 
HETATM   30  C10 UNL     1      28.576  -0.092  53.663  1.00  0.00     0.138 A 
HETATM   31  F1  UNL     1      29.482  -0.704  54.448  1.00  0.00    -0.204 F 
HETATM   32  C11 UNL     1      28.415   1.265  53.500  1.00  0.00     0.074 A 
HETATM   33 CL1  UNL     1      29.510   2.268  54.414  1.00  0.00    -0.081 Cl
HETATM   34  C12 UNL     1      27.437   1.732  52.658  1.00  0.00     0.056 A 
ENDBRANCH  25  27
ENDBRANCH   7  25
TORSDOF 6
ENDMDL
MODEL 5
REMARK VINA RESULT:      -9.1      3.445      5.983
REMARK  6 active torsions:
REMARK  status: ('A' for Active; 'I' for Inactive)
REMARK    1  A    between atoms: O1_2  and  C2_3 
REMARK    2  A    between atoms: C6_9  and  N3_10 
REMARK    3  A    between atoms: N3_10  and  C7_11 
REMARK    4  A    between atoms: C15_21  and  C16_22 
REMARK    5  A    between atoms: C16_22  and  N4_23 
REMARK       I    between atoms: N4_23  and  C17_24 
REMARK    6  A    between atoms: C17_24  and  C18_26 
ROOT
HETATM    1  C2  UNL     1      27.080   0.797  53.362  1.00  0.00     0.078 A 
HETATM    2  C3  UNL     1      26.612   0.080  54.444  1.00  0.00     0.070 A 
HETATM    3  C4  UNL     1      25.326  -0.364  54.469  1.00  0.00     0.074 A 
HETATM    4  N1  UNL     1      24.948  -1.058  55.567  1.00  0.00    -0.241 NA
HETATM    5  C5  UNL     1      23.707  -1.545  55.708  1.00  0.00     0.236 A 
HETATM    6  N2  UNL     1      22.878  -1.295  54.689  1.00  0.00    -0.224 NA
HETATM    7  C6  UNL     1      23.129  -0.637  53.579  1.00  0.00     0.142 A 
HETATM    8  C13 UNL     1      24.412  -0.156  53.477  1.00  0.00     0.039 A 
HETATM    9  C14 UNL     1      24.912   0.562  52.414  1.00  0.00     0.029 A 
HETATM   10  C15 UNL     1      26.201   1.043  52.319  1.00  0.00    -0.006 A 
ENDROOT
BRANCH  10  11
HETATM   11  C16 UNL     1      26.674   1.809  51.150  1.00  0.00     0.164 C 
BRANCH  11  12
HETATM   12  N4  UNL     1      26.517   3.250  51.358  1.00  0.00    -0.355 N 
HETATM   13  C17 UNL     1      25.437   3.724  50.566  1.00  0.00     0.251 C 
HETATM   14  O2  UNL     1      24.739   2.969  49.805  1.00  0.00    -0.271 OA
HETATM   15  H13 UNL     1      26.999   3.974  51.933  1.00  0.00     0.162 HD
BRANCH  13  16
HETATM   16  C18 UNL     1      24.927   5.093  50.463  1.00  0.00     0.313 C 
HETATM   17  C19 UNL     1      25.083   5.508  49.005  1.00  0.00     0.046 C 
HETATM   18  C20 UNL     1      23.738   5.620  48.317  1.00  0.00     0.004 C 
HETATM   19  C21 UNL     1      22.939   6.748  48.966  1.00  0.00     0.030 C 
HETATM   20  C22 UNL     1      23.133   6.588  50.447  1.00  0.00     0.273 C 
HETATM   21  N5  UNL     1      23.533   5.249  50.831  1.00  0.00     0.098 N 
HETATM   22  C23 UNL     1      23.338   5.137  52.261  1.00  0.00     0.310 C 
ENDBRANCH  13  16
ENDBRANCH  11  12
ENDBRANCH  10  11
BRANCH   1  23
HETATM   23  O1  UNL     1      28.379   1.267  53.296  1.00  0.00    -0.355 OA
HETATM   24  C1  UNL     1      29.435   0.448  53.763  1.00  0.00     0.210 C 
ENDBRANCH   1  23
BRANCH   7  25
HETATM   25  N3  UNL     1      22.228  -0.388  52.517  1.00  0.00    -0.340 N 
HETATM   26  H6  UNL     1      21.902  -1.135  51.878  1.00  0.00     0.167 HD
BRANCH  25  27
HETATM   27  C7  UNL     1      21.619   0.829  52.116  1.00  0.00     0.035 A 
HETATM   28  C8  UNL     1      20.867   1.677  52.937  1.00  0.00     0.032 A 
HETATM   29  C9  UNL     1      20.301   2.837  52.488  1.00  0.00     0.046 A 
HETATM   30  C10 UNL     1      20.439   3.247  51.183  1.00  0.00     0.138 A 
HETATM   31  F1  UNL     1      19.835   4.407  50.864  1.00  0.00    -0.204 F 
HETATM   32  C11 UNL     1      21.172   2.444  50.339  1.00  0.00     0.074 A 
HETATM   33 CL1  UNL     1      21.315   3.011  48.696  1.00  0.00    -0.081 Cl
HETATM   34  C12 UNL     1      21.726   1.286  50.823  1.00  0.00     0.056 A 
ENDBRANCH  25  27
ENDBRANCH   7  25
TORSDOF 6
ENDMDL
MODEL 6
REMARK VINA RESULT:      -8.8      4.381      8.593
REMARK  6 active torsions:
REMARK  status: ('A' for Active; 'I' for Inactive)
REMARK    1  A    between atoms: O1_2  and  C2_3 
REMARK    2  A    between atoms: C6_9  and  N3_10 
REMARK    3  A    between atoms: N3_10  and  C7_11 
REMARK    4  A    between atoms: C15_21  and  C16_22 
REMARK    5  A    between atoms: C16_22  and  N4_23 
REMARK       I    between atoms: N4_23  and  C17_24 
REMARK    6  A    between atoms: C17_24  and  C18_26 
ROOT
HETATM    1  C2  UNL     1      25.415   5.653  49.031  1.00  0.00     0.078 A 
HETATM    2  C3  UNL     1      25.757   6.884  48.513  1.00  0.00     0.070 A 
HETATM    3  C4  UNL     1      27.030   7.124  48.095  1.00  0.00     0.074 A 
HETATM    4  N1  UNL     1      27.281   8.359  47.602  1.00  0.00    -0.241 NA
HETATM    5  C5  UNL     1      28.497   8.715  47.161  1.00  0.00     0.236 A 
HETATM    6  N2  UNL     1      29.433   7.765  47.245  1.00  0.00    -0.224 NA
HETATM    7  C6  UNL     1      29.309   6.538  47.703  1.00  0.00     0.142 A 
HETATM    8  C13 UNL     1      28.049   6.217  48.144  1.00  0.00     0.039 A 
HETATM    9  C14 UNL     1      27.672   5.000  48.666  1.00  0.00     0.029 A 
HETATM   10  C15 UNL     1      26.405   4.685  49.108  1.00  0.00    -0.006 A 
ENDROOT
BRANCH  10  11
HETATM   11  C16 UNL     1      26.067   3.359  49.659  1.00  0.00     0.164 C 
BRANCH  11  12
HETATM   12  N4  UNL     1      25.798   3.432  51.096  1.00  0.00    -0.355 N 
HETATM   13  C17 UNL     1      26.108   2.183  51.697  1.00  0.00     0.251 C 
HETATM   14  O2  UNL     1      26.553   1.178  51.040  1.00  0.00    -0.271 OA
HETATM   15  H13 UNL     1      25.445   4.164  51.750  1.00  0.00     0.162 HD
BRANCH  13  16
HETATM   16  C18 UNL     1      25.993   1.806  53.108  1.00  0.00     0.313 C 
HETATM   17  C19 UNL     1      24.668   1.069  53.256  1.00  0.00     0.046 C 
HETATM   18  C20 UNL     1      24.885  -0.406  53.526  1.00  0.00     0.004 C 
HETATM   19  C21 UNL     1      25.582  -0.568  54.874  1.00  0.00     0.030 C 
HETATM   20  C22 UNL     1      26.661   0.477  54.908  1.00  0.00     0.273 C 
HETATM   21  N5  UNL     1      27.051   0.939  53.590  1.00  0.00     0.098 N 
HETATM   22  C23 UNL     1      28.303   1.648  53.739  1.00  0.00     0.310 C 
ENDBRANCH  13  16
ENDBRANCH  11  12
ENDBRANCH  10  11
BRANCH   1  23
HETATM   23  O1  UNL     1      24.134   5.366  49.466  1.00  0.00    -0.355 OA
HETATM   24  C1  UNL     1      23.061   5.423  48.544  1.00  0.00     0.210 C 
ENDBRANCH   1  23
BRANCH   7  25
HETATM   25  N3  UNL     1      30.323   5.554  47.780  1.00  0.00    -0.340 N 
HETATM   26  H6  UNL     1      30.125   4.543  47.670  1.00  0.00     0.167 HD
BRANCH  25  27
HETATM   27  C7  UNL     1      31.714   5.706  48.006  1.00  0.00     0.035 A 
HETATM   28  C8  UNL     1      32.344   6.859  48.489  1.00  0.00     0.032 A 
HETATM   29  C9  UNL     1      33.694   6.945  48.682  1.00  0.00     0.046 A 
HETATM   30  C10 UNL     1      34.528   5.886  48.410  1.00  0.00     0.138 A 
HETATM   31  F1  UNL     1      35.838   6.094  48.640  1.00  0.00    -0.204 F 
HETATM   32  C11 UNL     1      33.952   4.730  47.932  1.00  0.00     0.074 A 
HETATM   33 CL1  UNL     1      35.055   3.420  47.603  1.00  0.00    -0.081 Cl
HETATM   34  C12 UNL     1      32.593   4.679  47.750  1.00  0.00     0.056 A 
ENDBRANCH  25  27
ENDBRANCH   7  25
TORSDOF 6
ENDMDL
MODEL 7
REMARK VINA RESULT:      -8.8      3.310      5.878
REMARK  6 active torsions:
REMARK  status: ('A' for Active; 'I' for Inactive)
REMARK    1  A    between atoms: O1_2  and  C2_3 
REMARK    2  A    between atoms: C6_9  and  N3_10 
REMARK    3  A    between atoms: N3_10  and  C7_11 
REMARK    4  A    between atoms: C15_21  and  C16_22 
REMARK    5  A    between atoms: C16_22  and  N4_23 
REMARK       I    between atoms: N4_23  and  C17_24 
REMARK    6  A    between atoms: C17_24  and  C18_26 
ROOT
HETATM    1  C2  UNL     1      23.386   0.176  53.397  1.00  0.00     0.078 A 
HETATM    2  C3  UNL     1      24.696   0.266  53.816  1.00  0.00     0.070 A 
HETATM    3  C4  UNL     1      25.601   0.983  53.095  1.00  0.00     0.074 A 
HETATM    4  N1  UNL     1      26.865   1.019  53.576  1.00  0.00    -0.241 NA
HETATM    5  C5  UNL     1      27.844   1.691  52.952  1.00  0.00     0.236 A 
HETATM    6  N2  UNL     1      27.479   2.317  51.829  1.00  0.00    -0.224 NA
HETATM    7  C6  UNL     1      26.290   2.354  51.267  1.00  0.00     0.142 A 
HETATM    8  C13 UNL     1      25.319   1.652  51.939  1.00  0.00     0.039 A 
HETATM    9  C14 UNL     1      24.002   1.541  51.550  1.00  0.00     0.029 A 
HETATM   10  C15 UNL     1      23.033   0.834  52.229  1.00  0.00    -0.006 A 
ENDROOT
BRANCH  10  11
HETATM   11  C16 UNL     1      21.637   0.754  51.756  1.00  0.00     0.164 C 
BRANCH  11  12
HETATM   12  N4  UNL     1      21.293   1.901  50.913  1.00  0.00    -0.355 N 
HETATM   13  C17 UNL     1      20.540   2.834  51.674  1.00  0.00     0.251 C 
HETATM   14  O2  UNL     1      20.235   2.655  52.904  1.00  0.00    -0.271 OA
HETATM   15  H13 UNL     1      21.470   2.175  49.922  1.00  0.00     0.162 HD
BRANCH  13  16
HETATM   16  C18 UNL     1      19.990   4.120  51.238  1.00  0.00     0.313 C 
HETATM   17  C19 UNL     1      21.158   5.096  51.174  1.00  0.00     0.046 C 
HETATM   18  C20 UNL     1      21.492   5.462  49.742  1.00  0.00     0.004 C 
HETATM   19  C21 UNL     1      20.311   6.216  49.134  1.00  0.00     0.030 C 
HETATM   20  C22 UNL     1      19.081   5.468  49.563  1.00  0.00     0.273 C 
HETATM   21  N5  UNL     1      19.349   4.094  49.939  1.00  0.00     0.098 N 
HETATM   22  C23 UNL     1      18.076   3.406  49.979  1.00  0.00     0.310 C 
ENDBRANCH  13  16
ENDBRANCH  11  12
ENDBRANCH  10  11
BRANCH   1  23
HETATM   23  O1  UNL     1      22.435  -0.541  54.100  1.00  0.00    -0.355 OA
HETATM   24  C1  UNL     1      22.833  -1.292  55.232  1.00  0.00     0.210 C 
ENDBRANCH   1  23
BRANCH   7  25
HETATM   25  N3  UNL     1      25.935   3.026  50.074  1.00  0.00    -0.340 N 
HETATM   26  H6  UNL     1      25.465   2.547  49.285  1.00  0.00     0.167 HD
BRANCH  25  27
HETATM   27  C7  UNL     1      26.122   4.385  49.714  1.00  0.00     0.035 A 
HETATM   28  C8  UNL     1      27.109   4.874  48.851  1.00  0.00     0.032 A 
HETATM   29  C9  UNL     1      27.240   6.200  48.545  1.00  0.00     0.046 A 
HETATM   30  C10 UNL     1      26.396   7.147  49.075  1.00  0.00     0.138 A 
HETATM   31  F1  UNL     1      26.626   8.418  48.698  1.00  0.00    -0.204 F 
HETATM   32  C11 UNL     1      25.408   6.711  49.930  1.00  0.00     0.074 A 
HETATM   33 CL1  UNL     1      24.368   7.953  50.574  1.00  0.00    -0.081 Cl
HETATM   34  C12 UNL     1      25.306   5.373  50.215  1.00  0.00     0.056 A 
ENDBRANCH  25  27
ENDBRANCH   7  25
TORSDOF 6
ENDMDL
MODEL 8
REMARK VINA RESULT:      -8.8      4.589      8.847
REMARK  6 active torsions:
REMARK  status: ('A' for Active; 'I' for Inactive)
REMARK    1  A    between atoms: O1_2  and  C2_3 
REMARK    2  A    between atoms: C6_9  and  N3_10 
REMARK    3  A    between atoms: N3_10  and  C7_11 
REMARK    4  A    between atoms: C15_21  and  C16_22 
REMARK    5  A    between atoms: C16_22  and  N4_23 
REMARK       I    between atoms: N4_23  and  C17_24 
REMARK    6  A    between atoms: C17_24  and  C18_26 
ROOT
HETATM    1  C2  UNL     1      26.488   7.549  49.628  1.00  0.00     0.078 A 
HETATM    2  C3  UNL     1      27.238   8.706  49.628  1.00  0.00     0.070 A 
HETATM    3  C4  UNL     1      28.436   8.749  48.984  1.00  0.00     0.074 A 
HETATM    4  N1  UNL     1      29.108   9.922  49.035  1.00  0.00    -0.241 NA
HETATM    5  C5  UNL     1      30.299  10.086  48.440  1.00  0.00     0.236 A 
HETATM    6  N2  UNL     1      30.767   9.012  47.797  1.00  0.00    -0.224 NA
HETATM    7  C6  UNL     1      30.209   7.827  47.680  1.00  0.00     0.142 A 
HETATM    8  C13 UNL     1      28.992   7.703  48.305  1.00  0.00     0.039 A 
HETATM    9  C14 UNL     1      28.217   6.565  48.324  1.00  0.00     0.029 A 
HETATM   10  C15 UNL     1      26.996   6.448  48.954  1.00  0.00    -0.006 A 
ENDROOT
BRANCH  10  11
HETATM   11  C16 UNL     1      26.216   5.196  48.938  1.00  0.00     0.164 C 
BRANCH  11  12
HETATM   12  N4  UNL     1      26.367   4.458  50.194  1.00  0.00    -0.355 N 
HETATM   13  C17 UNL     1      25.466   3.360  50.205  1.00  0.00     0.251 C 
HETATM   14  O2  UNL     1      24.667   3.097  49.241  1.00  0.00    -0.271 OA
HETATM   15  H13 UNL     1      26.961   4.554  51.045  1.00  0.00     0.162 HD
BRANCH  13  16
HETATM   16  C18 UNL     1      25.277   2.358  51.256  1.00  0.00     0.313 C 
HETATM   17  C19 UNL     1      26.618   1.660  51.441  1.00  0.00     0.046 C 
HETATM   18  C20 UNL     1      27.251   2.023  52.769  1.00  0.00     0.004 C 
HETATM   19  C21 UNL     1      26.371   1.497  53.900  1.00  0.00     0.030 C 
HETATM   20  C22 UNL     1      24.958   1.821  53.506  1.00  0.00     0.273 C 
HETATM   21  N5  UNL     1      24.866   2.896  52.538  1.00  0.00     0.098 N 
HETATM   22  C23 UNL     1      23.488   3.339  52.520  1.00  0.00     0.310 C 
ENDBRANCH  13  16
ENDBRANCH  11  12
ENDBRANCH  10  11
BRANCH   1  23
HETATM   23  O1  UNL     1      25.266   7.462  50.269  1.00  0.00    -0.355 OA
HETATM   24  C1  UNL     1      24.274   8.435  50.001  1.00  0.00     0.210 C 
ENDBRANCH   1  23
BRANCH   7  25
HETATM   25  N3  UNL     1      30.732   6.706  46.992  1.00  0.00    -0.340 N 
HETATM   26  H6  UNL     1      30.315   6.350  46.114  1.00  0.00     0.167 HD
BRANCH  25  27
HETATM   27  C7  UNL     1      31.843   5.886  47.316  1.00  0.00     0.035 A 
HETATM   28  C8  UNL     1      33.056   6.327  47.855  1.00  0.00     0.032 A 
HETATM   29  C9  UNL     1      34.094   5.484  48.142  1.00  0.00     0.046 A 
HETATM   30  C10 UNL     1      34.004   4.131  47.915  1.00  0.00     0.138 A 
HETATM   31  F1  UNL     1      35.092   3.407  48.238  1.00  0.00    -0.204 F 
HETATM   32  C11 UNL     1      32.828   3.652  47.385  1.00  0.00     0.074 A 
HETATM   33 CL1  UNL     1      32.770   1.930  47.116  1.00  0.00    -0.081 Cl
HETATM   34  C12 UNL     1      31.807   4.526  47.109  1.00  0.00     0.056 A 
ENDBRANCH  25  27
ENDBRANCH   7  25
TORSDOF 6
ENDMDL
MODEL 9
REMARK VINA RESULT:      -8.8      1.939      5.960
REMARK  6 active torsions:
REMARK  status: ('A' for Active; 'I' for Inactive)
REMARK    1  A    between atoms: O1_2  and  C2_3 
REMARK    2  A    between atoms: C6_9  and  N3_10 
REMARK    3  A    between atoms: N3_10  and  C7_11 
REMARK    4  A    between atoms: C15_21  and  C16_22 
REMARK    5  A    between atoms: C16_22  and  N4_23 
REMARK       I    between atoms: N4_23  and  C17_24 
REMARK    6  A    between atoms: C17_24  and  C18_26 
ROOT
HETATM    1  C2  UNL     1      22.916   5.891  50.355  1.00  0.00     0.078 A 
HETATM    2  C3  UNL     1      24.042   6.411  49.751  1.00  0.00     0.070 A 
HETATM    3  C4  UNL     1      25.139   5.631  49.554  1.00  0.00     0.074 A 
HETATM    4  N1  UNL     1      26.200   6.220  48.956  1.00  0.00    -0.241 NA
HETATM    5  C5  UNL     1      27.338   5.554  48.711  1.00  0.00     0.236 A 
HETATM    6  N2  UNL     1      27.345   4.275  49.099  1.00  0.00    -0.224 NA
HETATM    7  C6  UNL     1      26.382   3.598  49.686  1.00  0.00     0.142 A 
HETATM    8  C13 UNL     1      25.236   4.318  49.918  1.00  0.00     0.039 A 
HETATM    9  C14 UNL     1      24.095   3.832  50.517  1.00  0.00     0.029 A 
HETATM   10  C15 UNL     1      22.948   4.561  50.748  1.00  0.00    -0.006 A 
ENDROOT
BRANCH  10  11
HETATM   11  C16 UNL     1      21.759   3.979  51.398  1.00  0.00     0.164 C 
BRANCH  11  12
HETATM   12  N4  UNL     1      22.124   2.864  52.275  1.00  0.00    -0.355 N 
HETATM   13  C17 UNL     1      21.653   1.649  51.712  1.00  0.00     0.251 C 
HETATM   14  O2  UNL     1      21.014   1.588  50.605  1.00  0.00    -0.271 OA
HETATM   15  H13 UNL     1      22.630   2.768  53.182  1.00  0.00     0.162 HD
BRANCH  13  16
HETATM   16  C18 UNL     1      21.793   0.292  52.246  1.00  0.00     0.313 C 
HETATM   17  C19 UNL     1      23.274   0.090  52.541  1.00  0.00     0.046 C 
HETATM   18  C20 UNL     1      23.535   0.032  54.032  1.00  0.00     0.004 C 
HETATM   19  C21 UNL     1      22.844  -1.200  54.611  1.00  0.00     0.030 C 
HETATM   20  C22 UNL     1      21.482  -1.243  53.978  1.00  0.00     0.273 C 
HETATM   21  N5  UNL     1      21.049   0.042  53.465  1.00  0.00     0.098 N 
HETATM   22  C23 UNL     1      19.626  -0.053  53.218  1.00  0.00     0.310 C 
ENDBRANCH  13  16
ENDBRANCH  11  12
ENDBRANCH  10  11
BRANCH   1  23
HETATM   23  O1  UNL     1      21.780   6.648  50.573  1.00  0.00    -0.355 OA
HETATM   24  C1  UNL     1      21.078   7.176  49.463  1.00  0.00     0.210 C 
ENDBRANCH   1  23
BRANCH   7  25
HETATM   25  N3  UNL     1      26.419   2.241  50.086  1.00  0.00    -0.340 N 
HETATM   26  H6  UNL     1      26.184   1.465  49.442  1.00  0.00     0.167 HD
BRANCH  25  27
HETATM   27  C7  UNL     1      26.756   1.680  51.344  1.00  0.00     0.035 A 
HETATM   28  C8  UNL     1      27.128   2.397  52.487  1.00  0.00     0.032 A 
HETATM   29  C9  UNL     1      27.445   1.795  53.673  1.00  0.00     0.046 A 
HETATM   30  C10 UNL     1      27.415   0.428  53.816  1.00  0.00     0.138 A 
HETATM   31  F1  UNL     1      27.748  -0.044  55.032  1.00  0.00    -0.204 F 
HETATM   32  C11 UNL     1      27.054  -0.318  52.717  1.00  0.00     0.074 A 
HETATM   33 CL1  UNL     1      27.035  -2.046  52.953  1.00  0.00    -0.081 Cl
HETATM   34  C12 UNL     1      26.742   0.319  51.542  1.00  0.00     0.056 A 
ENDBRANCH  25  27
ENDBRANCH   7  25
TORSDOF 6
ENDMDL
