MODEL 1
REMARK VINA RESULT:      -8.7      0.000      0.000
REMARK  6 active torsions:
REMARK  status: ('A' for Active; 'I' for Inactive)
REMARK       I    between atoms: C1_2  and  N1_3 
REMARK    1  A    between atoms: C1_2  and  C9_14 
REMARK    2  A    between atoms: N1_3  and  C2_4 
REMARK    3  A    between atoms: C6_8  and  C7_9 
REMARK    4  A    between atoms: C14_19  and  N2_20 
REMARK    5  A    between atoms: N2_20  and  C15_21 
REMARK    6  A    between atoms: C15_21  and  C16_22 
ROOT
HETATM    1  C9  UNL     1      27.072   5.204  48.998  1.00  0.00     0.043 A 
HETATM    2  C10 UNL     1      28.245   4.913  48.487  1.00  0.00     0.014 A 
HETATM    3  C11 UNL     1      29.014   5.969  47.853  1.00  0.00    -0.003 A 
HETATM    4  C12 UNL     1      28.456   7.166  47.845  1.00  0.00    -0.024 A 
HETATM    5  C13 UNL     1      27.146   7.612  48.393  1.00  0.00     0.068 A 
HETATM    6  C14 UNL     1      26.345   6.504  49.017  1.00  0.00     0.262 A 
ENDROOT
BRANCH   1   7
HETATM    7  C1  UNL     1      26.266   4.175  49.647  1.00  0.00     0.254 C 
HETATM    8  O1  UNL     1      25.175   3.634  49.255  1.00  0.00    -0.268 OA
HETATM    9  N1  UNL     1      26.610   3.595  50.890  1.00  0.00    -0.323 N 
HETATM   10  H1  UNL     1      27.465   3.867  51.424  1.00  0.00     0.169 HD
BRANCH   9  11
HETATM   11  C2  UNL     1      25.841   2.587  51.548  1.00  0.00     0.035 A 
HETATM   12  C3  UNL     1      24.537   2.650  51.982  1.00  0.00     0.029 A 
HETATM   13  C4  UNL     1      24.034   1.520  52.593  1.00  0.00     0.003 A 
HETATM   14  C5  UNL     1      24.745   0.375  52.785  1.00  0.00     0.016 A 
HETATM   15  C6  UNL     1      26.070   0.314  52.344  1.00  0.00     0.050 A 
HETATM   16  C8  UNL     1      26.611   1.445  51.718  1.00  0.00     0.045 A 
BRANCH  15  17
HETATM   17  C7  UNL     1      26.826  -0.951  52.565  1.00  0.00     0.417 C 
HETATM   18  F1  UNL     1      26.333  -1.577  53.690  1.00  0.00    -0.166 F 
HETATM   19  F2  UNL     1      28.169  -0.716  52.751  1.00  0.00    -0.166 F 
HETATM   20  F3  UNL     1      26.665  -1.820  51.504  1.00  0.00    -0.166 F 
ENDBRANCH  15  17
ENDBRANCH   9  11
ENDBRANCH   1   7
BRANCH   6  21
HETATM   21  N2  UNL     1      26.027   6.875  50.376  1.00  0.00     0.097 N 
HETATM   22  H12 UNL     1      26.921   7.183  50.824  1.00  0.00     0.317 HD
BRANCH  21  23
HETATM   23  C15 UNL     1      25.024   7.908  50.389  1.00  0.00     0.309 C 
BRANCH  23  24
HETATM   24  C16 UNL     1      23.657   7.351  50.547  1.00  0.00    -0.028 A 
HETATM   25  C17 UNL     1      22.505   7.907  50.068  1.00  0.00     0.028 A 
HETATM   26  C18 UNL     1      21.288   7.281  50.285  1.00  0.00     0.116 A 
HETATM   27  N3  UNL     1      21.154   6.128  50.955  1.00  0.00    -0.273 NA
HETATM   28  C19 UNL     1      22.272   5.555  51.441  1.00  0.00     0.116 A 
HETATM   29  C20 UNL     1      23.501   6.152  51.242  1.00  0.00     0.028 A 
ENDBRANCH  23  24
ENDBRANCH  21  23
ENDBRANCH   6  21
TORSDOF 6
ENDMDL
MODEL 2
REMARK VINA RESULT:      -8.7      3.727      6.811
REMARK  6 active torsions:
REMARK  status: ('A' for Active; 'I' for Inactive)
REMARK       I    between atoms: C1_2  and  N1_3 
REMARK    1  A    between atoms: C1_2  and  C9_14 
REMARK    2  A    between atoms: N1_3  and  C2_4 
REMARK    3  A    between atoms: C6_8  and  C7_9 
REMARK    4  A    between atoms: C14_19  and  N2_20 
REMARK    5  A    between atoms: N2_20  and  C15_21 
REMARK    6  A    between atoms: C15_21  and  C16_22 
ROOT
HETATM    1  C9  UNL     1      26.989   1.839  53.313  1.00  0.00     0.043 A 
HETATM    2  C10 UNL     1      28.273   2.091  53.218  1.00  0.00     0.014 A 
HETATM    3  C11 UNL     1      29.196   1.351  54.061  1.00  0.00    -0.003 A 
HETATM    4  C12 UNL     1      28.653   0.461  54.871  1.00  0.00    -0.024 A 
HETATM    5  C13 UNL     1      27.223   0.089  55.060  1.00  0.00     0.068 A 
HETATM    6  C14 UNL     1      26.276   0.884  54.207  1.00  0.00     0.262 A 
ENDROOT
BRANCH   1   7
HETATM    7  C1  UNL     1      26.026   2.558  52.484  1.00  0.00     0.254 C 
HETATM    8  O1  UNL     1      24.830   2.915  52.758  1.00  0.00    -0.268 OA
HETATM    9  N1  UNL     1      26.310   2.984  51.166  1.00  0.00    -0.323 N 
HETATM   10  H1  UNL     1      27.229   2.814  50.700  1.00  0.00     0.169 HD
BRANCH   9  11
HETATM   11  C2  UNL     1      25.388   3.689  50.332  1.00  0.00     0.035 A 
HETATM   12  C3  UNL     1      25.356   5.031  50.033  1.00  0.00     0.029 A 
HETATM   13  C4  UNL     1      24.348   5.452  49.191  1.00  0.00     0.003 A 
HETATM   14  C5  UNL     1      23.405   4.628  48.655  1.00  0.00     0.016 A 
HETATM   15  C6  UNL     1      23.440   3.264  48.962  1.00  0.00     0.050 A 
HETATM   16  C8  UNL     1      24.452   2.804  49.814  1.00  0.00     0.045 A 
BRANCH  15  17
HETATM   17  C7  UNL     1      22.398   2.384  48.363  1.00  0.00     0.417 C 
HETATM   18  F1  UNL     1      22.188   1.306  49.195  1.00  0.00    -0.166 F 
HETATM   19  F2  UNL     1      22.777   1.914  47.127  1.00  0.00    -0.166 F 
HETATM   20  F3  UNL     1      21.194   3.051  48.239  1.00  0.00    -0.166 F 
ENDBRANCH  15  17
ENDBRANCH   9  11
ENDBRANCH   1   7
BRANCH   6  21
HETATM   21  N2  UNL     1      25.482  -0.032  53.421  1.00  0.00     0.097 N 
HETATM   22  H12 UNL     1      26.152  -0.674  52.936  1.00  0.00     0.317 HD
BRANCH  21  23
HETATM   23  C15 UNL     1      24.559  -0.743  54.268  1.00  0.00     0.309 C 
BRANCH  23  24
HETATM   24  C16 UNL     1      23.156  -0.593  53.805  1.00  0.00    -0.028 A 
HETATM   25  C17 UNL     1      22.741   0.141  52.731  1.00  0.00     0.028 A 
HETATM   26  C18 UNL     1      21.395   0.198  52.405  1.00  0.00     0.116 A 
HETATM   27  N3  UNL     1      20.437  -0.439  53.092  1.00  0.00    -0.273 NA
HETATM   28  C19 UNL     1      20.815  -1.171  54.157  1.00  0.00     0.116 A 
HETATM   29  C20 UNL     1      22.148  -1.250  54.509  1.00  0.00     0.028 A 
ENDBRANCH  23  24
ENDBRANCH  21  23
ENDBRANCH   6  21
TORSDOF 6
ENDMDL
MODEL 3
REMARK VINA RESULT:      -8.6      4.095      8.076
REMARK  6 active torsions:
REMARK  status: ('A' for Active; 'I' for Inactive)
REMARK       I    between atoms: C1_2  and  N1_3 
REMARK    1  A    between atoms: C1_2  and  C9_14 
REMARK    2  A    between atoms: N1_3  and  C2_4 
REMARK    3  A    between atoms: C6_8  and  C7_9 
REMARK    4  A    between atoms: C14_19  and  N2_20 
REMARK    5  A    between atoms: N2_20  and  C15_21 
REMARK    6  A    between atoms: C15_21  and  C16_22 
ROOT
HETATM    1  C9  UNL     1      22.701   1.395  52.578  1.00  0.00     0.043 A 
HETATM    2  C10 UNL     1      21.461   1.747  52.823  1.00  0.00     0.014 A 
HETATM    3  C11 UNL     1      20.556   0.766  53.397  1.00  0.00    -0.003 A 
HETATM    4  C12 UNL     1      21.070  -0.427  53.633  1.00  0.00    -0.024 A 
HETATM    5  C13 UNL     1      22.451  -0.934  53.403  1.00  0.00     0.068 A 
HETATM    6  C14 UNL     1      23.368   0.078  52.778  1.00  0.00     0.262 A 
ENDROOT
BRANCH   1   7
HETATM    7  C1  UNL     1      23.645   2.348  52.003  1.00  0.00     0.254 C 
HETATM    8  O1  UNL     1      24.288   3.295  52.573  1.00  0.00    -0.268 OA
HETATM    9  N1  UNL     1      24.001   2.352  50.634  1.00  0.00    -0.323 N 
HETATM   10  H1  UNL     1      23.610   1.671  49.945  1.00  0.00     0.169 HD
BRANCH   9  11
HETATM   11  C2  UNL     1      24.921   3.271  50.044  1.00  0.00     0.035 A 
HETATM   12  C3  UNL     1      26.290   3.173  49.952  1.00  0.00     0.029 A 
HETATM   13  C4  UNL     1      26.943   4.214  49.325  1.00  0.00     0.003 A 
HETATM   14  C5  UNL     1      26.317   5.307  48.805  1.00  0.00     0.016 A 
HETATM   15  C6  UNL     1      24.926   5.403  48.900  1.00  0.00     0.050 A 
HETATM   16  C8  UNL     1      24.232   4.363  49.532  1.00  0.00     0.045 A 
BRANCH  15  17
HETATM   17  C7  UNL     1      24.266   6.608  48.324  1.00  0.00     0.417 C 
HETATM   18  F1  UNL     1      23.777   7.386  49.350  1.00  0.00    -0.166 F 
HETATM   19  F2  UNL     1      23.219   6.269  47.497  1.00  0.00    -0.166 F 
HETATM   20  F3  UNL     1      25.167   7.378  47.614  1.00  0.00    -0.166 F 
ENDBRANCH  15  17
ENDBRANCH   9  11
ENDBRANCH   1   7
BRANCH   6  21
HETATM   21  N2  UNL     1      24.528   0.234  53.625  1.00  0.00     0.097 N 
HETATM   22  H12 UNL     1      24.361  -0.349  54.477  1.00  0.00     0.317 HD
BRANCH  21  23
HETATM   23  C15 UNL     1      25.718  -0.161  52.917  1.00  0.00     0.309 C 
BRANCH  23  24
HETATM   24  C16 UNL     1      26.938   0.458  53.496  1.00  0.00    -0.028 A 
HETATM   25  C17 UNL     1      27.748  -0.102  54.442  1.00  0.00     0.028 A 
HETATM   26  C18 UNL     1      28.860   0.586  54.900  1.00  0.00     0.116 A 
HETATM   27  N3  UNL     1      29.212   1.804  54.465  1.00  0.00    -0.273 NA
HETATM   28  C19 UNL     1      28.433   2.383  53.532  1.00  0.00     0.116 A 
HETATM   29  C20 UNL     1      27.316   1.725  53.054  1.00  0.00     0.028 A 
ENDBRANCH  23  24
ENDBRANCH  21  23
ENDBRANCH   6  21
TORSDOF 6
ENDMDL
MODEL 4
REMARK VINA RESULT:      -8.5      2.310      4.669
REMARK  6 active torsions:
REMARK  status: ('A' for Active; 'I' for Inactive)
REMARK       I    between atoms: C1_2  and  N1_3 
REMARK    1  A    between atoms: C1_2  and  C9_14 
REMARK    2  A    between atoms: N1_3  and  C2_4 
REMARK    3  A    between atoms: C6_8  and  C7_9 
REMARK    4  A    between atoms: C14_19  and  N2_20 
REMARK    5  A    between atoms: N2_20  and  C15_21 
REMARK    6  A    between atoms: C15_21  and  C16_22 
ROOT
HETATM    1  C9  UNL     1      23.830   3.845  50.118  1.00  0.00     0.043 A 
HETATM    2  C10 UNL     1      23.108   3.216  49.221  1.00  0.00     0.014 A 
HETATM    3  C11 UNL     1      22.648   3.950  48.055  1.00  0.00    -0.003 A 
HETATM    4  C12 UNL     1      23.006   5.219  47.991  1.00  0.00    -0.024 A 
HETATM    5  C13 UNL     1      23.821   6.030  48.938  1.00  0.00     0.068 A 
HETATM    6  C14 UNL     1      24.263   5.270  50.156  1.00  0.00     0.262 A 
ENDROOT
BRANCH   1   7
HETATM    7  C1  UNL     1      24.316   3.147  51.305  1.00  0.00     0.254 C 
HETATM    8  O1  UNL     1      24.274   3.508  52.531  1.00  0.00    -0.268 OA
HETATM    9  N1  UNL     1      24.947   1.882  51.252  1.00  0.00    -0.323 N 
HETATM   10  H1  UNL     1      25.105   1.365  50.358  1.00  0.00     0.169 HD
BRANCH   9  11
HETATM   11  C2  UNL     1      25.431   1.176  52.395  1.00  0.00     0.035 A 
HETATM   12  C3  UNL     1      24.765   0.272  53.190  1.00  0.00     0.029 A 
HETATM   13  C4  UNL     1      25.477  -0.268  54.241  1.00  0.00     0.003 A 
HETATM   14  C5  UNL     1      26.773   0.041  54.525  1.00  0.00     0.016 A 
HETATM   15  C6  UNL     1      27.447   0.960  53.716  1.00  0.00     0.050 A 
HETATM   16  C8  UNL     1      26.752   1.527  52.640  1.00  0.00     0.045 A 
BRANCH  15  17
HETATM   17  C7  UNL     1      28.863   1.281  54.049  1.00  0.00     0.417 C 
HETATM   18  F1  UNL     1      29.074   2.630  53.861  1.00  0.00    -0.166 F 
HETATM   19  F2  UNL     1      29.743   0.587  53.251  1.00  0.00    -0.166 F 
HETATM   20  F3  UNL     1      29.140   0.999  55.372  1.00  0.00    -0.166 F 
ENDBRANCH  15  17
ENDBRANCH   9  11
ENDBRANCH   1   7
BRANCH   6  21
HETATM   21  N2  UNL     1      25.701   5.350  50.252  1.00  0.00     0.097 N 
HETATM   22  H12 UNL     1      25.983   4.767  51.074  1.00  0.00     0.317 HD
BRANCH  21  23
HETATM   23  C15 UNL     1      26.308   4.897  49.027  1.00  0.00     0.309 C 
BRANCH  23  24
HETATM   24  C16 UNL     1      27.491   5.716  48.659  1.00  0.00    -0.028 A 
HETATM   25  C17 UNL     1      28.719   5.236  48.305  1.00  0.00     0.028 A 
HETATM   26  C18 UNL     1      29.742   6.113  47.983  1.00  0.00     0.116 A 
HETATM   27  N3  UNL     1      29.609   7.447  47.994  1.00  0.00    -0.273 NA
HETATM   28  C19 UNL     1      28.409   7.951  48.339  1.00  0.00     0.116 A 
HETATM   29  C20 UNL     1      27.367   7.105  48.665  1.00  0.00     0.028 A 
ENDBRANCH  23  24
ENDBRANCH  21  23
ENDBRANCH   6  21
TORSDOF 6
ENDMDL
MODEL 5
REMARK VINA RESULT:      -8.3      2.967      5.439
REMARK  6 active torsions:
REMARK  status: ('A' for Active; 'I' for Inactive)
REMARK       I    between atoms: C1_2  and  N1_3 
REMARK    1  A    between atoms: C1_2  and  C9_14 
REMARK    2  A    between atoms: N1_3  and  C2_4 
REMARK    3  A    between atoms: C6_8  and  C7_9 
REMARK    4  A    between atoms: C14_19  and  N2_20 
REMARK    5  A    between atoms: N2_20  and  C15_21 
REMARK    6  A    between atoms: C15_21  and  C16_22 
ROOT
HETATM    1  C9  UNL     1      23.929   4.005  51.266  1.00  0.00     0.043 A 
HETATM    2  C10 UNL     1      24.087   5.304  51.176  1.00  0.00     0.014 A 
HETATM    3  C11 UNL     1      23.144   6.071  50.381  1.00  0.00    -0.003 A 
HETATM    4  C12 UNL     1      22.179   5.380  49.803  1.00  0.00    -0.024 A 
HETATM    5  C13 UNL     1      21.898   3.918  49.838  1.00  0.00     0.068 A 
HETATM    6  C14 UNL     1      22.900   3.131  50.635  1.00  0.00     0.262 A 
ENDROOT
BRANCH   1   7
HETATM    7  C1  UNL     1      24.852   3.195  52.055  1.00  0.00     0.254 C 
HETATM    8  O1  UNL     1      24.752   2.804  53.268  1.00  0.00    -0.268 OA
HETATM    9  N1  UNL     1      26.073   2.698  51.543  1.00  0.00    -0.323 N 
HETATM   10  H1  UNL     1      26.393   2.878  50.565  1.00  0.00     0.169 HD
BRANCH   9  11
HETATM   11  C2  UNL     1      26.995   1.904  52.291  1.00  0.00     0.035 A 
HETATM   12  C3  UNL     1      28.064   2.319  53.051  1.00  0.00     0.029 A 
HETATM   13  C4  UNL     1      28.799   1.332  53.675  1.00  0.00     0.003 A 
HETATM   14  C5  UNL     1      28.526   0.000  53.579  1.00  0.00     0.016 A 
HETATM   15  C6  UNL     1      27.440  -0.418  52.806  1.00  0.00     0.050 A 
HETATM   16  C8  UNL     1      26.673   0.560  52.159  1.00  0.00     0.045 A 
BRANCH  15  17
HETATM   17  C7  UNL     1      27.164  -1.879  52.718  1.00  0.00     0.417 C 
HETATM   18  F1  UNL     1      26.719  -2.176  51.448  1.00  0.00    -0.166 F 
HETATM   19  F2  UNL     1      26.201  -2.271  53.620  1.00  0.00    -0.166 F 
HETATM   20  F3  UNL     1      28.311  -2.617  52.937  1.00  0.00    -0.166 F 
ENDBRANCH  15  17
ENDBRANCH   9  11
ENDBRANCH   1   7
BRANCH   6  21
HETATM   21  N2  UNL     1      22.195   2.383  51.650  1.00  0.00     0.097 N 
HETATM   22  H12 UNL     1      21.217   2.753  51.674  1.00  0.00     0.317 HD
BRANCH  21  23
HETATM   23  C15 UNL     1      22.241   0.974  51.352  1.00  0.00     0.309 C 
BRANCH  23  24
HETATM   24  C16 UNL     1      22.148   0.146  52.581  1.00  0.00    -0.028 A 
HETATM   25  C17 UNL     1      23.202  -0.313  53.318  1.00  0.00     0.028 A 
HETATM   26  C18 UNL     1      22.976  -1.082  54.449  1.00  0.00     0.116 A 
HETATM   27  N3  UNL     1      21.755  -1.418  54.888  1.00  0.00    -0.273 NA
HETATM   28  C19 UNL     1      20.696  -0.981  54.181  1.00  0.00     0.116 A 
HETATM   29  C20 UNL     1      20.885  -0.213  53.049  1.00  0.00     0.028 A 
ENDBRANCH  23  24
ENDBRANCH  21  23
ENDBRANCH   6  21
TORSDOF 6
ENDMDL
MODEL 6
REMARK VINA RESULT:      -8.3      2.525      4.824
REMARK  6 active torsions:
REMARK  status: ('A' for Active; 'I' for Inactive)
REMARK       I    between atoms: C1_2  and  N1_3 
REMARK    1  A    between atoms: C1_2  and  C9_14 
REMARK    2  A    between atoms: N1_3  and  C2_4 
REMARK    3  A    between atoms: C6_8  and  C7_9 
REMARK    4  A    between atoms: C14_19  and  N2_20 
REMARK    5  A    between atoms: N2_20  and  C15_21 
REMARK    6  A    between atoms: C15_21  and  C16_22 
ROOT
HETATM    1  C9  UNL     1      22.706   2.566  50.653  1.00  0.00     0.043 A 
HETATM    2  C10 UNL     1      22.477   1.717  49.680  1.00  0.00     0.014 A 
HETATM    3  C11 UNL     1      21.678   2.150  48.547  1.00  0.00    -0.003 A 
HETATM    4  C12 UNL     1      21.241   3.395  48.589  1.00  0.00    -0.024 A 
HETATM    5  C13 UNL     1      21.442   4.443  49.629  1.00  0.00     0.068 A 
HETATM    6  C14 UNL     1      22.241   3.972  50.812  1.00  0.00     0.262 A 
ENDROOT
BRANCH   1   7
HETATM    7  C1  UNL     1      23.505   2.175  51.811  1.00  0.00     0.254 C 
HETATM    8  O1  UNL     1      23.536   2.684  52.983  1.00  0.00    -0.268 OA
HETATM    9  N1  UNL     1      24.422   1.098  51.787  1.00  0.00    -0.323 N 
HETATM   10  H1  UNL     1      24.586   0.512  50.937  1.00  0.00     0.169 HD
BRANCH   9  11
HETATM   11  C2  UNL     1      25.216   0.692  52.902  1.00  0.00     0.035 A 
HETATM   12  C3  UNL     1      24.868  -0.131  53.948  1.00  0.00     0.029 A 
HETATM   13  C4  UNL     1      25.837  -0.361  54.902  1.00  0.00     0.003 A 
HETATM   14  C5  UNL     1      27.090   0.172  54.863  1.00  0.00     0.016 A 
HETATM   15  C6  UNL     1      27.441   1.009  53.800  1.00  0.00     0.050 A 
HETATM   16  C8  UNL     1      26.479   1.263  52.814  1.00  0.00     0.045 A 
BRANCH  15  17
HETATM   17  C7  UNL     1      28.816   1.580  53.781  1.00  0.00     0.417 C 
HETATM   18  F1  UNL     1      29.333   1.549  55.058  1.00  0.00    -0.166 F 
HETATM   19  F2  UNL     1      28.821   2.883  53.340  1.00  0.00    -0.166 F 
HETATM   20  F3  UNL     1      29.655   0.831  52.978  1.00  0.00    -0.166 F 
ENDBRANCH  15  17
ENDBRANCH   9  11
ENDBRANCH   1   7
BRANCH   6  21
HETATM   21  N2  UNL     1      23.372   4.854  50.983  1.00  0.00     0.097 N 
HETATM   22  H12 UNL     1      24.166   4.265  51.326  1.00  0.00     0.317 HD
BRANCH  21  23
HETATM   23  C15 UNL     1      23.680   5.516  49.741  1.00  0.00     0.309 C 
BRANCH  23  24
HETATM   24  C16 UNL     1      25.101   5.331  49.352  1.00  0.00    -0.028 A 
HETATM   25  C17 UNL     1      25.820   4.176  49.473  1.00  0.00     0.028 A 
HETATM   26  C18 UNL     1      27.145   4.137  49.070  1.00  0.00     0.116 A 
HETATM   27  N3  UNL     1      27.796   5.188  48.551  1.00  0.00    -0.273 NA
HETATM   28  C19 UNL     1      27.114   6.341  48.420  1.00  0.00     0.116 A 
HETATM   29  C20 UNL     1      25.791   6.415  48.811  1.00  0.00     0.028 A 
ENDBRANCH  23  24
ENDBRANCH  21  23
ENDBRANCH   6  21
TORSDOF 6
ENDMDL
MODEL 7
REMARK VINA RESULT:      -8.3      4.517      7.423
REMARK  6 active torsions:
REMARK  status: ('A' for Active; 'I' for Inactive)
REMARK       I    between atoms: C1_2  and  N1_3 
REMARK    1  A    between atoms: C1_2  and  C9_14 
REMARK    2  A    between atoms: N1_3  and  C2_4 
REMARK    3  A    between atoms: C6_8  and  C7_9 
REMARK    4  A    between atoms: C14_19  and  N2_20 
REMARK    5  A    between atoms: N2_20  and  C15_21 
REMARK    6  A    between atoms: C15_21  and  C16_22 
ROOT
HETATM    1  C9  UNL     1      26.358   1.790  53.180  1.00  0.00     0.043 A 
HETATM    2  C10 UNL     1      27.579   2.174  52.897  1.00  0.00     0.014 A 
HETATM    3  C11 UNL     1      28.690   1.542  53.587  1.00  0.00    -0.003 A 
HETATM    4  C12 UNL     1      28.370   0.606  54.462  1.00  0.00    -0.024 A 
HETATM    5  C13 UNL     1      27.032   0.087  54.858  1.00  0.00     0.068 A 
HETATM    6  C14 UNL     1      25.890   0.772  54.162  1.00  0.00     0.262 A 
ENDROOT
BRANCH   1   7
HETATM    7  C1  UNL     1      25.211   2.396  52.510  1.00  0.00     0.254 C 
HETATM    8  O1  UNL     1      24.634   2.052  51.422  1.00  0.00    -0.268 OA
HETATM    9  N1  UNL     1      24.537   3.533  53.012  1.00  0.00    -0.323 N 
HETATM   10  H1  UNL     1      24.816   4.012  53.898  1.00  0.00     0.169 HD
BRANCH   9  11
HETATM   11  C2  UNL     1      23.414   4.148  52.379  1.00  0.00     0.035 A 
HETATM   12  C3  UNL     1      22.118   3.693  52.302  1.00  0.00     0.029 A 
HETATM   13  C4  UNL     1      21.222   4.492  51.624  1.00  0.00     0.003 A 
HETATM   14  C5  UNL     1      21.546   5.679  51.040  1.00  0.00     0.016 A 
HETATM   15  C6  UNL     1      22.864   6.139  51.119  1.00  0.00     0.050 A 
HETATM   16  C8  UNL     1      23.799   5.350  51.802  1.00  0.00     0.045 A 
BRANCH  15  17
HETATM   17  C7  UNL     1      23.193   7.440  50.473  1.00  0.00     0.417 C 
HETATM   18  F1  UNL     1      24.169   8.074  51.210  1.00  0.00    -0.166 F 
HETATM   19  F2  UNL     1      22.094   8.266  50.402  1.00  0.00    -0.166 F 
HETATM   20  F3  UNL     1      23.694   7.251  49.200  1.00  0.00    -0.166 F 
ENDBRANCH  15  17
ENDBRANCH   9  11
ENDBRANCH   1   7
BRANCH   6  21
HETATM   21  N2  UNL     1      25.089  -0.229  53.497  1.00  0.00     0.097 N 
HETATM   22  H12 UNL     1      25.755  -0.894  53.038  1.00  0.00     0.317 HD
BRANCH  21  23
HETATM   23  C15 UNL     1      24.225  -0.886  54.443  1.00  0.00     0.309 C 
BRANCH  23  24
HETATM   24  C16 UNL     1      22.792  -0.719  54.093  1.00  0.00    -0.028 A 
HETATM   25  C17 UNL     1      22.253   0.332  53.406  1.00  0.00     0.028 A 
HETATM   26  C18 UNL     1      20.892   0.366  53.144  1.00  0.00     0.116 A 
HETATM   27  N3  UNL     1      20.037  -0.591  53.528  1.00  0.00    -0.273 NA
HETATM   28  C19 UNL     1      20.538  -1.640  54.207  1.00  0.00     0.116 A 
HETATM   29  C20 UNL     1      21.889  -1.706  54.486  1.00  0.00     0.028 A 
ENDBRANCH  23  24
ENDBRANCH  21  23
ENDBRANCH   6  21
TORSDOF 6
ENDMDL
MODEL 8
REMARK VINA RESULT:      -8.3      4.683      7.618
REMARK  6 active torsions:
REMARK  status: ('A' for Active; 'I' for Inactive)
REMARK       I    between atoms: C1_2  and  N1_3 
REMARK    1  A    between atoms: C1_2  and  C9_14 
REMARK    2  A    between atoms: N1_3  and  C2_4 
REMARK    3  A    between atoms: C6_8  and  C7_9 
REMARK    4  A    between atoms: C14_19  and  N2_20 
REMARK    5  A    between atoms: N2_20  and  C15_21 
REMARK    6  A    between atoms: C15_21  and  C16_22 
ROOT
HETATM    1  C9  UNL     1      24.169   2.493  50.975  1.00  0.00     0.043 A 
HETATM    2  C10 UNL     1      23.893   2.973  49.786  1.00  0.00     0.014 A 
HETATM    3  C11 UNL     1      24.960   3.582  49.012  1.00  0.00    -0.003 A 
HETATM    4  C12 UNL     1      26.151   3.600  49.582  1.00  0.00    -0.024 A 
HETATM    5  C13 UNL     1      26.581   3.086  50.911  1.00  0.00     0.068 A 
HETATM    6  C14 UNL     1      25.462   2.488  51.717  1.00  0.00     0.262 A 
ENDROOT
BRANCH   1   7
HETATM    7  C1  UNL     1      23.129   1.871  51.788  1.00  0.00     0.254 C 
HETATM    8  O1  UNL     1      22.758   2.148  52.980  1.00  0.00    -0.268 OA
HETATM    9  N1  UNL     1      22.332   0.795  51.330  1.00  0.00    -0.323 N 
HETATM   10  H1  UNL     1      22.438   0.378  50.378  1.00  0.00     0.169 HD
BRANCH   9  11
HETATM   11  C2  UNL     1      21.308   0.167  52.102  1.00  0.00     0.035 A 
HETATM   12  C3  UNL     1      21.426  -0.509  53.294  1.00  0.00     0.029 A 
HETATM   13  C4  UNL     1      20.263  -1.024  53.830  1.00  0.00     0.003 A 
HETATM   14  C5  UNL     1      19.035  -0.900  53.253  1.00  0.00     0.016 A 
HETATM   15  C6  UNL     1      18.919  -0.212  52.041  1.00  0.00     0.050 A 
HETATM   16  C8  UNL     1      20.081   0.322  51.470  1.00  0.00     0.045 A 
BRANCH  15  17
HETATM   17  C7  UNL     1      17.566  -0.091  51.432  1.00  0.00     0.417 C 
HETATM   18  F1  UNL     1      17.693  -0.046  50.060  1.00  0.00    -0.166 F 
HETATM   19  F2  UNL     1      16.920   1.052  51.846  1.00  0.00    -0.166 F 
HETATM   20  F3  UNL     1      16.781  -1.185  51.738  1.00  0.00    -0.166 F 
ENDBRANCH  15  17
ENDBRANCH   9  11
ENDBRANCH   1   7
BRANCH   6  21
HETATM   21  N2  UNL     1      25.823   1.137  52.075  1.00  0.00     0.097 N 
HETATM   22  H12 UNL     1      26.097   0.651  51.190  1.00  0.00     0.317 HD
BRANCH  21  23
HETATM   23  C15 UNL     1      26.887   1.146  53.046  1.00  0.00     0.309 C 
BRANCH  23  24
HETATM   24  C16 UNL     1      27.600  -0.156  53.099  1.00  0.00    -0.028 A 
HETATM   25  C17 UNL     1      28.887  -0.347  53.514  1.00  0.00     0.028 A 
HETATM   26  C18 UNL     1      29.435  -1.620  53.514  1.00  0.00     0.116 A 
HETATM   27  N3  UNL     1      28.769  -2.716  53.123  1.00  0.00    -0.273 NA
HETATM   28  C19 UNL     1      27.498  -2.559  52.709  1.00  0.00     0.116 A 
HETATM   29  C20 UNL     1      26.921  -1.305  52.696  1.00  0.00     0.028 A 
ENDBRANCH  23  24
ENDBRANCH  21  23
ENDBRANCH   6  21
TORSDOF 6
ENDMDL
MODEL 9
REMARK VINA RESULT:      -8.1      4.169      7.255
REMARK  6 active torsions:
REMARK  status: ('A' for Active; 'I' for Inactive)
REMARK       I    between atoms: C1_2  and  N1_3 
REMARK    1  A    between atoms: C1_2  and  C9_14 
REMARK    2  A    between atoms: N1_3  and  C2_4 
REMARK    3  A    between atoms: C6_8  and  C7_9 
REMARK    4  A    between atoms: C14_19  and  N2_20 
REMARK    5  A    between atoms: N2_20  and  C15_21 
REMARK    6  A    between atoms: C15_21  and  C16_22 
ROOT
HETATM    1  C9  UNL     1      25.505   1.306  52.118  1.00  0.00     0.043 A 
HETATM    2  C10 UNL     1      26.537   0.602  51.718  1.00  0.00     0.014 A 
HETATM    3  C11 UNL     1      26.818  -0.662  52.375  1.00  0.00    -0.003 A 
HETATM    4  C12 UNL     1      25.989  -1.009  53.343  1.00  0.00    -0.024 A 
HETATM    5  C13 UNL     1      24.792  -0.300  53.874  1.00  0.00     0.068 A 
HETATM    6  C14 UNL     1      24.531   1.022  53.209  1.00  0.00     0.262 A 
ENDROOT
BRANCH   1   7
HETATM    7  C1  UNL     1      25.183   2.582  51.485  1.00  0.00     0.254 C 
HETATM    8  O1  UNL     1      24.573   3.595  51.970  1.00  0.00    -0.268 OA
HETATM    9  N1  UNL     1      25.530   2.889  50.149  1.00  0.00    -0.323 N 
HETATM   10  H1  UNL     1      26.040   2.221  49.528  1.00  0.00     0.169 HD
BRANCH   9  11
HETATM   11  C2  UNL     1      25.229   4.127  49.503  1.00  0.00     0.035 A 
HETATM   12  C3  UNL     1      23.999   4.636  49.156  1.00  0.00     0.029 A 
HETATM   13  C4  UNL     1      23.993   5.868  48.536  1.00  0.00     0.003 A 
HETATM   14  C5  UNL     1      25.115   6.588  48.256  1.00  0.00     0.016 A 
HETATM   15  C6  UNL     1      26.364   6.068  48.609  1.00  0.00     0.050 A 
HETATM   16  C8  UNL     1      26.404   4.818  49.241  1.00  0.00     0.045 A 
BRANCH  15  17
HETATM   17  C7  UNL     1      27.575   6.875  48.292  1.00  0.00     0.417 C 
HETATM   18  F1  UNL     1      28.678   6.048  48.290  1.00  0.00    -0.166 F 
HETATM   19  F2  UNL     1      27.779   7.873  49.217  1.00  0.00    -0.166 F 
HETATM   20  F3  UNL     1      27.481   7.441  47.035  1.00  0.00    -0.166 F 
ENDBRANCH  15  17
ENDBRANCH   9  11
ENDBRANCH   1   7
BRANCH   6  21
HETATM   21  N2  UNL     1      23.186   1.016  52.684  1.00  0.00     0.097 N 
HETATM   22  H12 UNL     1      23.265   0.909  51.646  1.00  0.00     0.317 HD
BRANCH  21  23
HETATM   23  C15 UNL     1      22.421  -0.045  53.287  1.00  0.00     0.309 C 
BRANCH  23  24
HETATM   24  C16 UNL     1      21.033  -0.095  52.761  1.00  0.00    -0.028 A 
HETATM   25  C17 UNL     1      20.616   0.390  51.554  1.00  0.00     0.028 A 
HETATM   26  C18 UNL     1      19.285   0.280  51.182  1.00  0.00     0.116 A 
HETATM   27  N3  UNL     1      18.345  -0.289  51.949  1.00  0.00    -0.273 NA
HETATM   28  C19 UNL     1      18.724  -0.776  53.145  1.00  0.00     0.116 A 
HETATM   29  C20 UNL     1      20.042  -0.683  53.546  1.00  0.00     0.028 A 
ENDBRANCH  23  24
ENDBRANCH  21  23
ENDBRANCH   6  21
TORSDOF 6
ENDMDL
