MODEL 1
REMARK VINA RESULT:      -6.2      0.000      0.000
REMARK  9 active torsions:
REMARK  status: ('A' for Active; 'I' for Inactive)
REMARK    1  A    between atoms: C2_2  and  C3_3 
REMARK    2  A    between atoms: C3_3  and  C4_4 
REMARK    3  A    between atoms: C4_4  and  C5_6 
REMARK    4  A    between atoms: C5_6  and  C6_7 
REMARK    5  A    between atoms: C6_7  and  N1_8 
REMARK    6  A    between atoms: N1_8  and  C7_9 
REMARK    7  A    between atoms: C8_11  and  N3_12 
REMARK    8  A    between atoms: N3_12  and  C9_13 
REMARK    9  A    between atoms: C9_13  and  C10_14 
ROOT
HETATM    1  C7  UNL     1      23.144   3.412  51.265  1.00  0.00     0.156 A 
HETATM    2  N2  UNL     1      23.252   4.134  52.387  1.00  0.00    -0.230 NA
HETATM    3  C8  UNL     1      24.522   3.807  51.724  1.00  0.00     0.412 A 
ENDROOT
BRANCH   3   4
HETATM    4  N3  UNL     1      25.305   2.832  52.401  1.00  0.00     0.116 N 
HETATM    5  H9  UNL     1      24.705   2.039  52.699  1.00  0.00     0.319 HD
BRANCH   4   6
HETATM    6  C9  UNL     1      26.475   2.397  51.704  1.00  0.00     0.283 C 
BRANCH   6   7
HETATM    7  C10 UNL     1      27.161   1.219  52.322  1.00  0.00     0.065 C 
HETATM    8  C11 UNL     1      26.123   0.107  52.393  1.00  0.00     0.038 C 
HETATM    9  C12 UNL     1      26.763  -1.112  52.956  1.00  0.00     0.168 C 
HETATM   10  O1  UNL     1      27.711  -0.895  53.929  1.00  0.00    -0.385 OA
HETATM   11  C13 UNL     1      27.521   0.286  54.630  1.00  0.00     0.221 C 
HETATM   12  C14 UNL     1      27.567   1.477  53.731  1.00  0.00     0.033 C 
HETATM   13  N4  UNL     1      27.905   2.679  53.996  1.00  0.00    -0.306 NA
HETATM   14  H19 UNL     1      28.195   2.914  54.948  1.00  0.00     0.186 HD
ENDBRANCH   6   7
ENDBRANCH   4   6
ENDBRANCH   3   4
BRANCH   1  15
HETATM   15  N1  UNL     1      22.347   2.744  50.307  1.00  0.00    -0.351 N 
HETATM   16  H7  UNL     1      21.792   3.331  49.618  1.00  0.00     0.166 HD
BRANCH  15  17
HETATM   17  C6  UNL     1      22.273   1.328  50.249  1.00  0.00     0.092 C 
BRANCH  17  18
HETATM   18  C5  UNL     1      21.108   0.771  50.539  1.00  0.00     0.049 C 
BRANCH  18  19
HETATM   19  C4  UNL     1      20.744   0.188  51.791  1.00  0.00     0.076 C 
HETATM   20 CL1  UNL     1      19.221  -0.234  52.513  1.00  0.00    -0.075 Cl
BRANCH  19  21
HETATM   21  C3  UNL     1      21.763  -0.098  52.591  1.00  0.00    -0.126 C 
BRANCH  21  22
HETATM   22  C2  UNL     1      22.569  -0.524  53.559  1.00  0.00     0.069 C 
HETATM   23  C1  UNL     1      21.958  -0.914  54.840  1.00  0.00     0.024 C 
ENDBRANCH  21  22
ENDBRANCH  19  21
ENDBRANCH  18  19
ENDBRANCH  17  18
ENDBRANCH  15  17
ENDBRANCH   1  15
TORSDOF 9
ENDMDL
MODEL 2
REMARK VINA RESULT:      -6.2      3.211      5.262
REMARK  9 active torsions:
REMARK  status: ('A' for Active; 'I' for Inactive)
REMARK    1  A    between atoms: C2_2  and  C3_3 
REMARK    2  A    between atoms: C3_3  and  C4_4 
REMARK    3  A    between atoms: C4_4  and  C5_6 
REMARK    4  A    between atoms: C5_6  and  C6_7 
REMARK    5  A    between atoms: C6_7  and  N1_8 
REMARK    6  A    between atoms: N1_8  and  C7_9 
REMARK    7  A    between atoms: C8_11  and  N3_12 
REMARK    8  A    between atoms: N3_12  and  C9_13 
REMARK    9  A    between atoms: C9_13  and  C10_14 
ROOT
HETATM    1  C7  UNL     1      23.624   4.721  51.903  1.00  0.00     0.156 A 
HETATM    2  N2  UNL     1      23.140   3.489  51.706  1.00  0.00    -0.230 NA
HETATM    3  C8  UNL     1      24.021   3.639  52.873  1.00  0.00     0.412 A 
ENDROOT
BRANCH   3   4
HETATM    4  N3  UNL     1      25.303   3.046  52.723  1.00  0.00     0.116 N 
HETATM    5  H9  UNL     1      26.044   3.762  52.852  1.00  0.00     0.319 HD
BRANCH   4   6
HETATM    6  C9  UNL     1      25.533   1.877  53.514  1.00  0.00     0.283 C 
BRANCH   6   7
HETATM    7  C10 UNL     1      26.697   1.048  53.069  1.00  0.00     0.065 C 
HETATM    8  C11 UNL     1      26.390  -0.383  53.490  1.00  0.00     0.038 C 
HETATM    9  C12 UNL     1      27.495  -1.266  53.029  1.00  0.00     0.168 C 
HETATM   10  O1  UNL     1      28.756  -0.716  53.067  1.00  0.00    -0.385 OA
HETATM   11  C13 UNL     1      28.894   0.279  54.022  1.00  0.00     0.221 C 
HETATM   12  C14 UNL     1      27.954   1.413  53.780  1.00  0.00     0.033 C 
HETATM   13  N4  UNL     1      28.073   2.645  54.091  1.00  0.00    -0.306 NA
HETATM   14  H19 UNL     1      28.917   2.954  54.579  1.00  0.00     0.186 HD
ENDBRANCH   6   7
ENDBRANCH   4   6
ENDBRANCH   3   4
BRANCH   1  15
HETATM   15  N1  UNL     1      23.723   6.078  51.517  1.00  0.00    -0.351 N 
HETATM   16  H7  UNL     1      23.041   6.772  51.941  1.00  0.00     0.166 HD
BRANCH  15  17
HETATM   17  C6  UNL     1      24.698   6.524  50.587  1.00  0.00     0.092 C 
BRANCH  17  18
HETATM   18  C5  UNL     1      24.871   5.796  49.496  1.00  0.00     0.049 C 
BRANCH  18  19
HETATM   19  C4  UNL     1      25.977   4.932  49.229  1.00  0.00     0.076 C 
HETATM   20 CL1  UNL     1      26.256   3.237  49.484  1.00  0.00    -0.075 Cl
BRANCH  19  21
HETATM   21  C3  UNL     1      27.026   5.524  48.671  1.00  0.00    -0.126 C 
BRANCH  21  22
HETATM   22  C2  UNL     1      28.050   6.308  48.349  1.00  0.00     0.069 C 
HETATM   23  C1  UNL     1      29.356   5.671  48.112  1.00  0.00     0.024 C 
ENDBRANCH  21  22
ENDBRANCH  19  21
ENDBRANCH  18  19
ENDBRANCH  17  18
ENDBRANCH  15  17
ENDBRANCH   1  15
TORSDOF 9
ENDMDL
MODEL 3
REMARK VINA RESULT:      -6.2      1.503      1.917
REMARK  9 active torsions:
REMARK  status: ('A' for Active; 'I' for Inactive)
REMARK    1  A    between atoms: C2_2  and  C3_3 
REMARK    2  A    between atoms: C3_3  and  C4_4 
REMARK    3  A    between atoms: C4_4  and  C5_6 
REMARK    4  A    between atoms: C5_6  and  C6_7 
REMARK    5  A    between atoms: C6_7  and  N1_8 
REMARK    6  A    between atoms: N1_8  and  C7_9 
REMARK    7  A    between atoms: C8_11  and  N3_12 
REMARK    8  A    between atoms: N3_12  and  C9_13 
REMARK    9  A    between atoms: C9_13  and  C10_14 
ROOT
HETATM    1  C7  UNL     1      24.973   3.627  49.909  1.00  0.00     0.156 A 
HETATM    2  N2  UNL     1      26.054   4.285  49.474  1.00  0.00    -0.230 NA
HETATM    3  C8  UNL     1      26.321   2.987  50.110  1.00  0.00     0.412 A 
ENDROOT
BRANCH   3   4
HETATM    4  N3  UNL     1      26.915   3.073  51.397  1.00  0.00     0.116 N 
HETATM    5  H9  UNL     1      26.834   4.041  51.763  1.00  0.00     0.319 HD
BRANCH   4   6
HETATM    6  C9  UNL     1      26.472   2.096  52.343  1.00  0.00     0.283 C 
BRANCH   6   7
HETATM    7  C10 UNL     1      27.465   1.013  52.626  1.00  0.00     0.065 C 
HETATM    8  C11 UNL     1      26.660  -0.256  52.870  1.00  0.00     0.038 C 
HETATM    9  C12 UNL     1      27.601  -1.383  53.109  1.00  0.00     0.168 C 
HETATM   10  O1  UNL     1      28.749  -1.068  53.798  1.00  0.00    -0.385 OA
HETATM   11  C13 UNL     1      28.604   0.025  54.639  1.00  0.00     0.221 C 
HETATM   12  C14 UNL     1      28.221   1.255  53.886  1.00  0.00     0.033 C 
HETATM   13  N4  UNL     1      28.448   2.480  54.165  1.00  0.00    -0.306 NA
HETATM   14  H19 UNL     1      28.964   2.707  55.019  1.00  0.00     0.186 HD
ENDBRANCH   6   7
ENDBRANCH   4   6
ENDBRANCH   3   4
BRANCH   1  15
HETATM   15  N1  UNL     1      23.571   3.546  50.080  1.00  0.00    -0.351 N 
HETATM   16  H7  UNL     1      22.973   3.337  49.228  1.00  0.00     0.166 HD
BRANCH  15  17
HETATM   17  C6  UNL     1      22.957   3.737  51.345  1.00  0.00     0.092 C 
BRANCH  17  18
HETATM   18  C5  UNL     1      23.031   2.738  52.210  1.00  0.00     0.049 C 
BRANCH  18  19
HETATM   19  C4  UNL     1      22.513   1.422  52.019  1.00  0.00     0.076 C 
HETATM   20 CL1  UNL     1      21.619   0.665  50.736  1.00  0.00    -0.075 Cl
BRANCH  19  21
HETATM   21  C3  UNL     1      22.746   0.579  53.019  1.00  0.00    -0.126 C 
BRANCH  21  22
HETATM   22  C2  UNL     1      23.031  -0.462  53.793  1.00  0.00     0.069 C 
HETATM   23  C1  UNL     1      22.018  -0.889  54.772  1.00  0.00     0.024 C 
ENDBRANCH  21  22
ENDBRANCH  19  21
ENDBRANCH  18  19
ENDBRANCH  17  18
ENDBRANCH  15  17
ENDBRANCH   1  15
TORSDOF 9
ENDMDL
MODEL 4
REMARK VINA RESULT:      -5.9      1.787      2.029
REMARK  9 active torsions:
REMARK  status: ('A' for Active; 'I' for Inactive)
REMARK    1  A    between atoms: C2_2  and  C3_3 
REMARK    2  A    between atoms: C3_3  and  C4_4 
REMARK    3  A    between atoms: C4_4  and  C5_6 
REMARK    4  A    between atoms: C5_6  and  C6_7 
REMARK    5  A    between atoms: C6_7  and  N1_8 
REMARK    6  A    between atoms: N1_8  and  C7_9 
REMARK    7  A    between atoms: C8_11  and  N3_12 
REMARK    8  A    between atoms: N3_12  and  C9_13 
REMARK    9  A    between atoms: C9_13  and  C10_14 
ROOT
HETATM    1  C7  UNL     1      22.849   2.771  52.117  1.00  0.00     0.156 A 
HETATM    2  N2  UNL     1      23.784   3.474  52.766  1.00  0.00    -0.230 NA
HETATM    3  C8  UNL     1      24.243   2.796  51.546  1.00  0.00     0.412 A 
ENDROOT
BRANCH   3   4
HETATM    4  N3  UNL     1      25.078   1.670  51.776  1.00  0.00     0.116 N 
HETATM    5  H9  UNL     1      24.710   0.843  51.268  1.00  0.00     0.319 HD
BRANCH   4   6
HETATM    6  C9  UNL     1      26.472   1.882  51.533  1.00  0.00     0.283 C 
BRANCH   6   7
HETATM    7  C10 UNL     1      27.381   1.003  52.333  1.00  0.00     0.065 C 
HETATM    8  C11 UNL     1      26.798  -0.402  52.254  1.00  0.00     0.038 C 
HETATM    9  C12 UNL     1      27.692  -1.333  52.994  1.00  0.00     0.168 C 
HETATM   10  O1  UNL     1      28.289  -0.820  54.123  1.00  0.00    -0.385 OA
HETATM   11  C13 UNL     1      27.564   0.205  54.711  1.00  0.00     0.221 C 
HETATM   12  C14 UNL     1      27.379   1.356  53.780  1.00  0.00     0.033 C 
HETATM   13  N4  UNL     1      27.220   2.595  54.043  1.00  0.00    -0.306 NA
HETATM   14  H19 UNL     1      27.212   2.897  55.021  1.00  0.00     0.186 HD
ENDBRANCH   6   7
ENDBRANCH   4   6
ENDBRANCH   3   4
BRANCH   1  15
HETATM   15  N1  UNL     1      21.517   2.309  52.003  1.00  0.00    -0.351 N 
HETATM   16  H7  UNL     1      20.749   2.872  52.473  1.00  0.00     0.166 HD
BRANCH  15  17
HETATM   17  C6  UNL     1      21.191   1.127  51.288  1.00  0.00     0.092 C 
BRANCH  17  18
HETATM   18  C5  UNL     1      20.119   0.459  51.681  1.00  0.00     0.049 C 
BRANCH  18  19
HETATM   19  C4  UNL     1      19.933  -0.157  52.956  1.00  0.00     0.076 C 
HETATM   20 CL1  UNL     1      20.922  -0.275  54.380  1.00  0.00    -0.075 Cl
BRANCH  19  21
HETATM   21  C3  UNL     1      18.772  -0.780  53.112  1.00  0.00    -0.126 C 
BRANCH  21  22
HETATM   22  C2  UNL     1      17.705  -1.569  53.030  1.00  0.00     0.069 C 
HETATM   23  C1  UNL     1      17.755  -2.866  53.724  1.00  0.00     0.024 C 
ENDBRANCH  21  22
ENDBRANCH  19  21
ENDBRANCH  18  19
ENDBRANCH  17  18
ENDBRANCH  15  17
ENDBRANCH   1  15
TORSDOF 9
ENDMDL
MODEL 5
REMARK VINA RESULT:      -5.9      1.548      1.867
REMARK  9 active torsions:
REMARK  status: ('A' for Active; 'I' for Inactive)
REMARK    1  A    between atoms: C2_2  and  C3_3 
REMARK    2  A    between atoms: C3_3  and  C4_4 
REMARK    3  A    between atoms: C4_4  and  C5_6 
REMARK    4  A    between atoms: C5_6  and  C6_7 
REMARK    5  A    between atoms: C6_7  and  N1_8 
REMARK    6  A    between atoms: N1_8  and  C7_9 
REMARK    7  A    between atoms: C8_11  and  N3_12 
REMARK    8  A    between atoms: N3_12  and  C9_13 
REMARK    9  A    between atoms: C9_13  and  C10_14 
ROOT
HETATM    1  C7  UNL     1      23.036   2.868  51.142  1.00  0.00     0.156 A 
HETATM    2  N2  UNL     1      22.849   3.646  52.214  1.00  0.00    -0.230 NA
HETATM    3  C8  UNL     1      24.118   2.906  52.187  1.00  0.00     0.412 A 
ENDROOT
BRANCH   3   4
HETATM    4  N3  UNL     1      24.192   1.830  53.111  1.00  0.00     0.116 N 
HETATM    5  H9  UNL     1      23.316   1.273  53.080  1.00  0.00     0.319 HD
BRANCH   4   6
HETATM    6  C9  UNL     1      25.360   1.011  53.006  1.00  0.00     0.283 C 
BRANCH   6   7
HETATM    7  C10 UNL     1      26.515   1.470  53.839  1.00  0.00     0.065 C 
HETATM    8  C11 UNL     1      27.604   1.897  52.864  1.00  0.00     0.038 C 
HETATM    9  C12 UNL     1      28.765   2.413  53.638  1.00  0.00     0.168 C 
HETATM   10  O1  UNL     1      29.020   1.775  54.830  1.00  0.00    -0.385 OA
HETATM   11  C13 UNL     1      28.582   0.460  54.856  1.00  0.00     0.221 C 
HETATM   12  C14 UNL     1      27.108   0.364  54.641  1.00  0.00     0.033 C 
HETATM   13  N4  UNL     1      26.286  -0.525  55.044  1.00  0.00    -0.306 NA
HETATM   14  H19 UNL     1      26.637  -1.308  55.601  1.00  0.00     0.186 HD
ENDBRANCH   6   7
ENDBRANCH   4   6
ENDBRANCH   3   4
BRANCH   1  15
HETATM   15  N1  UNL     1      22.583   2.352  49.905  1.00  0.00    -0.351 N 
HETATM   16  H7  UNL     1      23.015   2.734  49.013  1.00  0.00     0.166 HD
BRANCH  15  17
HETATM   17  C6  UNL     1      21.579   1.352  49.832  1.00  0.00     0.092 C 
BRANCH  17  18
HETATM   18  C5  UNL     1      21.524   0.476  50.823  1.00  0.00     0.049 C 
BRANCH  18  19
HETATM   19  C4  UNL     1      20.399   0.231  51.666  1.00  0.00     0.076 C 
HETATM   20 CL1  UNL     1      18.715  -0.063  51.355  1.00  0.00    -0.075 Cl
BRANCH  19  21
HETATM   21  C3  UNL     1      20.666   0.226  52.967  1.00  0.00    -0.126 C 
BRANCH  21  22
HETATM   22  C2  UNL     1      21.181   0.067  54.181  1.00  0.00     0.069 C 
HETATM   23  C1  UNL     1      21.403  -1.307  54.660  1.00  0.00     0.024 C 
ENDBRANCH  21  22
ENDBRANCH  19  21
ENDBRANCH  18  19
ENDBRANCH  17  18
ENDBRANCH  15  17
ENDBRANCH   1  15
TORSDOF 9
ENDMDL
MODEL 6
REMARK VINA RESULT:      -5.9      4.987      7.050
REMARK  9 active torsions:
REMARK  status: ('A' for Active; 'I' for Inactive)
REMARK    1  A    between atoms: C2_2  and  C3_3 
REMARK    2  A    between atoms: C3_3  and  C4_4 
REMARK    3  A    between atoms: C4_4  and  C5_6 
REMARK    4  A    between atoms: C5_6  and  C6_7 
REMARK    5  A    between atoms: C6_7  and  N1_8 
REMARK    6  A    between atoms: N1_8  and  C7_9 
REMARK    7  A    between atoms: C8_11  and  N3_12 
REMARK    8  A    between atoms: N3_12  and  C9_13 
REMARK    9  A    between atoms: C9_13  and  C10_14 
ROOT
HETATM    1  C7  UNL     1      26.386   4.799  49.164  1.00  0.00     0.156 A 
HETATM    2  N2  UNL     1      27.499   4.083  48.964  1.00  0.00    -0.230 NA
HETATM    3  C8  UNL     1      26.464   3.423  49.772  1.00  0.00     0.412 A 
ENDROOT
BRANCH   3   4
HETATM    4  N3  UNL     1      26.773   3.322  51.155  1.00  0.00     0.116 N 
HETATM    5  H9  UNL     1      26.621   4.237  51.622  1.00  0.00     0.319 HD
BRANCH   4   6
HETATM    6  C9  UNL     1      26.134   2.246  51.848  1.00  0.00     0.283 C 
BRANCH   6   7
HETATM    7  C10 UNL     1      27.070   1.196  52.359  1.00  0.00     0.065 C 
HETATM    8  C11 UNL     1      26.271  -0.099  52.419  1.00  0.00     0.038 C 
HETATM    9  C12 UNL     1      27.167  -1.194  52.876  1.00  0.00     0.168 C 
HETATM   10  O1  UNL     1      28.116  -0.843  53.809  1.00  0.00    -0.385 OA
HETATM   11  C13 UNL     1      27.746   0.244  54.586  1.00  0.00     0.221 C 
HETATM   12  C14 UNL     1      27.507   1.462  53.757  1.00  0.00     0.033 C 
HETATM   13  N4  UNL     1      27.624   2.693  54.073  1.00  0.00    -0.306 NA
HETATM   14  H19 UNL     1      27.923   2.936  55.020  1.00  0.00     0.186 HD
ENDBRANCH   6   7
ENDBRANCH   4   6
ENDBRANCH   3   4
BRANCH   1  15
HETATM   15  N1  UNL     1      25.634   5.981  48.970  1.00  0.00    -0.351 N 
HETATM   16  H7  UNL     1      24.685   6.055  49.440  1.00  0.00     0.166 HD
BRANCH  15  17
HETATM   17  C6  UNL     1      26.114   7.053  48.174  1.00  0.00     0.092 C 
BRANCH  17  18
HETATM   18  C5  UNL     1      27.329   7.507  48.439  1.00  0.00     0.049 C 
BRANCH  18  19
HETATM   19  C4  UNL     1      28.427   7.551  47.528  1.00  0.00     0.076 C 
HETATM   20 CL1  UNL     1      28.597   8.099  45.888  1.00  0.00    -0.075 Cl
BRANCH  19  21
HETATM   21  C3  UNL     1      29.570   7.076  48.008  1.00  0.00    -0.126 C 
BRANCH  21  22
HETATM   22  C2  UNL     1      30.627   6.346  48.347  1.00  0.00     0.069 C 
HETATM   23  C1  UNL     1      30.831   5.066  47.648  1.00  0.00     0.024 C 
ENDBRANCH  21  22
ENDBRANCH  19  21
ENDBRANCH  18  19
ENDBRANCH  17  18
ENDBRANCH  15  17
ENDBRANCH   1  15
TORSDOF 9
ENDMDL
MODEL 7
REMARK VINA RESULT:      -5.8      3.912      5.682
REMARK  9 active torsions:
REMARK  status: ('A' for Active; 'I' for Inactive)
REMARK    1  A    between atoms: C2_2  and  C3_3 
REMARK    2  A    between atoms: C3_3  and  C4_4 
REMARK    3  A    between atoms: C4_4  and  C5_6 
REMARK    4  A    between atoms: C5_6  and  C6_7 
REMARK    5  A    between atoms: C6_7  and  N1_8 
REMARK    6  A    between atoms: N1_8  and  C7_9 
REMARK    7  A    between atoms: C8_11  and  N3_12 
REMARK    8  A    between atoms: N3_12  and  C9_13 
REMARK    9  A    between atoms: C9_13  and  C10_14 
ROOT
HETATM    1  C7  UNL     1      25.634   3.264  50.113  1.00  0.00     0.156 A 
HETATM    2  N2  UNL     1      26.937   3.324  50.413  1.00  0.00    -0.230 NA
HETATM    3  C8  UNL     1      26.148   2.380  51.218  1.00  0.00     0.412 A 
ENDROOT
BRANCH   3   4
HETATM    4  N3  UNL     1      25.927   2.793  52.560  1.00  0.00     0.116 N 
HETATM    5  H9  UNL     1      24.932   3.059  52.690  1.00  0.00     0.319 HD
BRANCH   4   6
HETATM    6  C9  UNL     1      26.383   1.882  53.563  1.00  0.00     0.283 C 
BRANCH   6   7
HETATM    7  C10 UNL     1      27.480   0.967  53.117  1.00  0.00     0.065 C 
HETATM    8  C11 UNL     1      27.134  -0.413  53.659  1.00  0.00     0.038 C 
HETATM    9  C12 UNL     1      28.168  -1.380  53.203  1.00  0.00     0.168 C 
HETATM   10  O1  UNL     1      29.453  -0.893  53.131  1.00  0.00    -0.385 OA
HETATM   11  C13 UNL     1      29.692   0.160  54.001  1.00  0.00     0.221 C 
HETATM   12  C14 UNL     1      28.792   1.319  53.728  1.00  0.00     0.033 C 
HETATM   13  N4  UNL     1      28.984   2.563  53.940  1.00  0.00    -0.306 NA
HETATM   14  H19 UNL     1      29.869   2.863  54.357  1.00  0.00     0.186 HD
ENDBRANCH   6   7
ENDBRANCH   4   6
ENDBRANCH   3   4
BRANCH   1  15
HETATM   15  N1  UNL     1      24.532   3.692  49.337  1.00  0.00    -0.351 N 
HETATM   16  H7  UNL     1      24.016   2.969  48.756  1.00  0.00     0.166 HD
BRANCH  15  17
HETATM   17  C6  UNL     1      24.109   5.047  49.318  1.00  0.00     0.092 C 
BRANCH  17  18
HETATM   18  C5  UNL     1      24.821   5.892  48.589  1.00  0.00     0.049 C 
BRANCH  18  19
HETATM   19  C4  UNL     1      25.641   6.948  49.090  1.00  0.00     0.076 C 
HETATM   20 CL1  UNL     1      25.364   8.245  50.213  1.00  0.00    -0.075 Cl
BRANCH  19  21
HETATM   21  C3  UNL     1      26.879   6.969  48.611  1.00  0.00    -0.126 C 
BRANCH  21  22
HETATM   22  C2  UNL     1      28.042   6.717  48.019  1.00  0.00     0.069 C 
HETATM   23  C1  UNL     1      28.656   5.398  48.245  1.00  0.00     0.024 C 
ENDBRANCH  21  22
ENDBRANCH  19  21
ENDBRANCH  18  19
ENDBRANCH  17  18
ENDBRANCH  15  17
ENDBRANCH   1  15
TORSDOF 9
ENDMDL
MODEL 8
REMARK VINA RESULT:      -5.5      3.662      5.499
REMARK  9 active torsions:
REMARK  status: ('A' for Active; 'I' for Inactive)
REMARK    1  A    between atoms: C2_2  and  C3_3 
REMARK    2  A    between atoms: C3_3  and  C4_4 
REMARK    3  A    between atoms: C4_4  and  C5_6 
REMARK    4  A    between atoms: C5_6  and  C6_7 
REMARK    5  A    between atoms: C6_7  and  N1_8 
REMARK    6  A    between atoms: N1_8  and  C7_9 
REMARK    7  A    between atoms: C8_11  and  N3_12 
REMARK    8  A    between atoms: N3_12  and  C9_13 
REMARK    9  A    between atoms: C9_13  and  C10_14 
ROOT
HETATM    1  C7  UNL     1      26.572   5.051  49.484  1.00  0.00     0.156 A 
HETATM    2  N2  UNL     1      27.460   4.191  48.970  1.00  0.00    -0.230 NA
HETATM    3  C8  UNL     1      26.435   3.594  49.838  1.00  0.00     0.412 A 
ENDROOT
BRANCH   3   4
HETATM    4  N3  UNL     1      26.912   3.167  51.106  1.00  0.00     0.116 N 
HETATM    5  H9  UNL     1      26.955   3.972  51.760  1.00  0.00     0.319 HD
BRANCH   4   6
HETATM    6  C9  UNL     1      26.230   2.044  51.671  1.00  0.00     0.283 C 
BRANCH   6   7
HETATM    7  C10 UNL     1      27.127   1.034  52.314  1.00  0.00     0.065 C 
HETATM    8  C11 UNL     1      26.353  -0.277  52.333  1.00  0.00     0.038 C 
HETATM    9  C12 UNL     1      27.218  -1.336  52.920  1.00  0.00     0.168 C 
HETATM   10  O1  UNL     1      28.052  -0.932  53.937  1.00  0.00    -0.385 OA
HETATM   11  C13 UNL     1      27.579   0.170  54.633  1.00  0.00     0.221 C 
HETATM   12  C14 UNL     1      27.406   1.355  53.742  1.00  0.00     0.033 C 
HETATM   13  N4  UNL     1      27.463   2.598  54.026  1.00  0.00    -0.306 NA
HETATM   14  H19 UNL     1      27.653   2.878  54.991  1.00  0.00     0.186 HD
ENDBRANCH   6   7
ENDBRANCH   4   6
ENDBRANCH   3   4
BRANCH   1  15
HETATM   15  N1  UNL     1      26.079   6.369  49.625  1.00  0.00    -0.351 N 
HETATM   16  H7  UNL     1      26.540   7.004  50.341  1.00  0.00     0.166 HD
BRANCH  15  17
HETATM   17  C6  UNL     1      24.997   6.853  48.844  1.00  0.00     0.092 C 
BRANCH  17  18
HETATM   18  C5  UNL     1      23.809   6.310  49.055  1.00  0.00     0.049 C 
BRANCH  18  19
HETATM   19  C4  UNL     1      22.785   6.831  49.902  1.00  0.00     0.076 C 
HETATM   20 CL1  UNL     1      21.888   6.171  51.236  1.00  0.00    -0.075 Cl
BRANCH  19  21
HETATM   21  C3  UNL     1      22.420   8.079  49.635  1.00  0.00    -0.126 C 
BRANCH  21  22
HETATM   22  C2  UNL     1      22.030   9.223  49.081  1.00  0.00     0.069 C 
HETATM   23  C1  UNL     1      20.585   9.458  48.934  1.00  0.00     0.024 C 
ENDBRANCH  21  22
ENDBRANCH  19  21
ENDBRANCH  18  19
ENDBRANCH  17  18
ENDBRANCH  15  17
ENDBRANCH   1  15
TORSDOF 9
ENDMDL
MODEL 9
REMARK VINA RESULT:      -5.5      1.634      2.226
REMARK  9 active torsions:
REMARK  status: ('A' for Active; 'I' for Inactive)
REMARK    1  A    between atoms: C2_2  and  C3_3 
REMARK    2  A    between atoms: C3_3  and  C4_4 
REMARK    3  A    between atoms: C4_4  and  C5_6 
REMARK    4  A    between atoms: C5_6  and  C6_7 
REMARK    5  A    between atoms: C6_7  and  N1_8 
REMARK    6  A    between atoms: N1_8  and  C7_9 
REMARK    7  A    between atoms: C8_11  and  N3_12 
REMARK    8  A    between atoms: N3_12  and  C9_13 
REMARK    9  A    between atoms: C9_13  and  C10_14 
ROOT
HETATM    1  C7  UNL     1      21.764   3.007  49.625  1.00  0.00     0.156 A 
HETATM    2  N2  UNL     1      22.606   3.415  48.669  1.00  0.00    -0.230 NA
HETATM    3  C8  UNL     1      23.242   2.836  49.860  1.00  0.00     0.412 A 
ENDROOT
BRANCH   3   4
HETATM    4  N3  UNL     1      23.898   3.780  50.695  1.00  0.00     0.116 N 
HETATM    5  H9  UNL     1      23.299   4.619  50.824  1.00  0.00     0.319 HD
BRANCH   4   6
HETATM    6  C9  UNL     1      24.386   3.264  51.937  1.00  0.00     0.283 C 
BRANCH   6   7
HETATM    7  C10 UNL     1      25.018   1.912  51.840  1.00  0.00     0.065 C 
HETATM    8  C11 UNL     1      24.637   1.168  53.112  1.00  0.00     0.038 C 
HETATM    9  C12 UNL     1      25.198  -0.208  53.050  1.00  0.00     0.168 C 
HETATM   10  O1  UNL     1      26.426  -0.327  52.440  1.00  0.00    -0.385 OA
HETATM   11  C13 UNL     1      27.188   0.829  52.507  1.00  0.00     0.221 C 
HETATM   12  C14 UNL     1      26.506   1.981  51.848  1.00  0.00     0.033 C 
HETATM   13  N4  UNL     1      27.012   3.013  51.291  1.00  0.00    -0.306 NA
HETATM   14  H19 UNL     1      28.029   3.113  51.266  1.00  0.00     0.186 HD
ENDBRANCH   6   7
ENDBRANCH   4   6
ENDBRANCH   3   4
BRANCH   1  15
HETATM   15  N1  UNL     1      20.447   2.837  50.111  1.00  0.00    -0.351 N 
HETATM   16  H7  UNL     1      19.720   2.422  49.458  1.00  0.00     0.166 HD
BRANCH  15  17
HETATM   17  C6  UNL     1      20.081   3.204  51.433  1.00  0.00     0.092 C 
BRANCH  17  18
HETATM   18  C5  UNL     1      20.553   2.459  52.420  1.00  0.00     0.049 C 
BRANCH  18  19
HETATM   19  C4  UNL     1      20.232   1.090  52.667  1.00  0.00     0.076 C 
HETATM   20 CL1  UNL     1      19.100  -0.018  51.953  1.00  0.00    -0.075 Cl
BRANCH  19  21
HETATM   21  C3  UNL     1      20.926   0.521  53.645  1.00  0.00    -0.126 C 
BRANCH  21  22
HETATM   22  C2  UNL     1      21.345  -0.120  54.731  1.00  0.00     0.069 C 
HETATM   23  C1  UNL     1      21.942  -1.454  54.554  1.00  0.00     0.024 C 
ENDBRANCH  21  22
ENDBRANCH  19  21
ENDBRANCH  18  19
ENDBRANCH  17  18
ENDBRANCH  15  17
ENDBRANCH   1  15
TORSDOF 9
ENDMDL
