MODEL 1
REMARK VINA RESULT:      -7.9      0.000      0.000
REMARK  4 active torsions:
REMARK  status: ('A' for Active; 'I' for Inactive)
REMARK    1  A    between atoms: O1_2  and  C2_3 
REMARK    2  A    between atoms: C5_6  and  O2_7 
REMARK    3  A    between atoms: O2_7  and  C6_8 
REMARK    4  A    between atoms: C14_19  and  O3_20 
ROOT
HETATM    1  C2  UNL     1      24.309   0.115  53.384  1.00  0.00     0.104 C 
HETATM    2  C3  UNL     1      24.575   0.784  52.212  1.00  0.00     0.051 C 
HETATM    3  C4  UNL     1      26.026   1.043  51.967  1.00  0.00     0.004 C 
HETATM    4  C5  UNL     1      26.597   2.247  51.771  1.00  0.00     0.177 C 
HETATM    5  N1  UNL     1      27.980   2.443  52.319  1.00  0.00    -0.219 NA
HETATM    6  C12 UNL     1      28.248   2.110  53.621  1.00  0.00     0.210 C 
HETATM    7  N2  UNL     1      27.691   0.948  54.413  1.00  0.00    -0.351 N 
HETATM    8  C13 UNL     1      26.699   0.118  53.736  1.00  0.00     0.051 C 
HETATM    9  C14 UNL     1      25.501  -0.251  54.252  1.00  0.00     0.124 C 
HETATM   10  C16 UNL     1      26.842  -0.270  52.203  1.00  0.00     0.103 C 
HETATM   11  H10 UNL     1      27.703   0.459  55.330  1.00  0.00     0.166 HD
ENDROOT
BRANCH   4  12
HETATM   12  O2  UNL     1      25.566   2.868  51.079  1.00  0.00    -0.291 OA
BRANCH  12  13
HETATM   13  C6  UNL     1      25.869   4.001  50.300  1.00  0.00     0.079 A 
HETATM   14  C7  UNL     1      26.902   4.025  49.361  1.00  0.00     0.037 A 
HETATM   15  C8  UNL     1      27.135   5.177  48.636  1.00  0.00     0.004 A 
HETATM   16  C9  UNL     1      26.377   6.304  48.816  1.00  0.00     0.019 A 
HETATM   17  C10 UNL     1      25.342   6.325  49.736  1.00  0.00     0.013 A 
HETATM   18 BR1  UNL     1      24.267   7.864  50.016  1.00  0.00    -0.051 Br
HETATM   19  C11 UNL     1      25.146   5.159  50.434  1.00  0.00     0.056 A 
ENDBRANCH  12  13
ENDBRANCH   4  12
BRANCH   1  20
HETATM   20  O1  UNL     1      23.087  -0.230  53.811  1.00  0.00    -0.353 OA
HETATM   21  C1  UNL     1      22.220  -1.233  53.415  1.00  0.00     0.210 C 
ENDBRANCH   1  20
BRANCH   9  22
HETATM   22  O3  UNL     1      25.861  -0.831  55.423  1.00  0.00    -0.351 OA
HETATM   23  C15 UNL     1      24.936  -0.905  56.498  1.00  0.00     0.210 C 
ENDBRANCH   9  22
TORSDOF 4
ENDMDL
MODEL 2
REMARK VINA RESULT:      -7.7      3.473      5.985
REMARK  4 active torsions:
REMARK  status: ('A' for Active; 'I' for Inactive)
REMARK    1  A    between atoms: O1_2  and  C2_3 
REMARK    2  A    between atoms: C5_6  and  O2_7 
REMARK    3  A    between atoms: O2_7  and  C6_8 
REMARK    4  A    between atoms: C14_19  and  O3_20 
ROOT
HETATM    1  C2  UNL     1      27.576  -0.720  53.162  1.00  0.00     0.104 C 
HETATM    2  C3  UNL     1      26.290  -0.967  52.741  1.00  0.00     0.051 C 
HETATM    3  C4  UNL     1      25.511   0.259  52.390  1.00  0.00     0.004 C 
HETATM    4  C5  UNL     1      24.338   0.638  52.932  1.00  0.00     0.177 C 
HETATM    5  N1  UNL     1      24.110   2.112  53.102  1.00  0.00    -0.219 NA
HETATM    6  C12 UNL     1      25.069   2.881  53.709  1.00  0.00     0.210 C 
HETATM    7  N2  UNL     1      26.571   2.743  53.603  1.00  0.00    -0.351 N 
HETATM    8  C13 UNL     1      27.064   1.616  52.816  1.00  0.00     0.051 C 
HETATM    9  C14 UNL     1      28.013   0.735  53.218  1.00  0.00     0.124 C 
HETATM   10  C16 UNL     1      26.368   1.178  51.459  1.00  0.00     0.103 C 
HETATM   11  H10 UNL     1      27.485   3.136  53.901  1.00  0.00     0.166 HD
ENDROOT
BRANCH   4  12
HETATM   12  O2  UNL     1      23.773  -0.614  53.131  1.00  0.00    -0.291 OA
BRANCH  12  13
HETATM   13  C6  UNL     1      22.372  -0.709  53.235  1.00  0.00     0.079 A 
HETATM   14  C7  UNL     1      21.731  -1.467  54.215  1.00  0.00     0.037 A 
HETATM   15  C8  UNL     1      20.350  -1.508  54.249  1.00  0.00     0.004 A 
HETATM   16  C9  UNL     1      19.590  -0.822  53.338  1.00  0.00     0.019 A 
HETATM   17  C10 UNL     1      20.185  -0.058  52.348  1.00  0.00     0.013 A 
HETATM   18 BR1  UNL     1      19.169   0.908  51.069  1.00  0.00    -0.051 Br
HETATM   19  C11 UNL     1      21.557  -0.045  52.353  1.00  0.00     0.056 A 
ENDBRANCH  12  13
ENDBRANCH   4  12
BRANCH   1  20
HETATM   20  O1  UNL     1      28.459  -1.659  53.524  1.00  0.00    -0.353 OA
HETATM   21  C1  UNL     1      29.840  -1.707  53.448  1.00  0.00     0.210 C 
ENDBRANCH   1  20
BRANCH   9  22
HETATM   22  O3  UNL     1      29.043   1.552  53.544  1.00  0.00    -0.351 OA
HETATM   23  C15 UNL     1      29.484   1.645  54.890  1.00  0.00     0.210 C 
ENDBRANCH   9  22
TORSDOF 4
ENDMDL
MODEL 3
REMARK VINA RESULT:      -7.4      3.390      7.153
REMARK  4 active torsions:
REMARK  status: ('A' for Active; 'I' for Inactive)
REMARK    1  A    between atoms: O1_2  and  C2_3 
REMARK    2  A    between atoms: C5_6  and  O2_7 
REMARK    3  A    between atoms: O2_7  and  C6_8 
REMARK    4  A    between atoms: C14_19  and  O3_20 
ROOT
HETATM    1  C2  UNL     1      26.221   4.762  49.375  1.00  0.00     0.104 C 
HETATM    2  C3  UNL     1      25.432   3.637  49.438  1.00  0.00     0.051 C 
HETATM    3  C4  UNL     1      24.122   3.842  50.129  1.00  0.00     0.004 C 
HETATM    4  C5  UNL     1      23.673   3.161  51.200  1.00  0.00     0.177 C 
HETATM    5  N1  UNL     1      22.849   3.923  52.196  1.00  0.00    -0.219 NA
HETATM    6  C12 UNL     1      23.304   5.122  52.679  1.00  0.00     0.210 C 
HETATM    7  N2  UNL     1      24.072   6.189  51.932  1.00  0.00    -0.351 N 
HETATM    8  C13 UNL     1      24.432   5.882  50.551  1.00  0.00     0.051 C 
HETATM    9  C14 UNL     1      25.668   6.026  50.012  1.00  0.00     0.124 C 
HETATM   10  C16 UNL     1      23.431   5.131  49.575  1.00  0.00     0.103 C 
HETATM   11  H10 UNL     1      24.511   7.129  52.002  1.00  0.00     0.166 HD
ENDROOT
BRANCH   4  12
HETATM   12  O2  UNL     1      24.217   1.917  50.913  1.00  0.00    -0.291 OA
BRANCH  12  13
HETATM   13  C6  UNL     1      24.512   1.051  51.983  1.00  0.00     0.079 A 
HETATM   14  C7  UNL     1      25.815   0.710  52.350  1.00  0.00     0.037 A 
HETATM   15  C8  UNL     1      26.020  -0.147  53.414  1.00  0.00     0.004 A 
HETATM   16  C9  UNL     1      24.972  -0.677  54.121  1.00  0.00     0.019 A 
HETATM   17  C10 UNL     1      23.663  -0.366  53.790  1.00  0.00     0.013 A 
HETATM   18 BR1  UNL     1      22.183  -1.077  54.743  1.00  0.00    -0.051 Br
HETATM   19  C11 UNL     1      23.506   0.489  52.728  1.00  0.00     0.056 A 
ENDBRANCH  12  13
ENDBRANCH   4  12
BRANCH   1  20
HETATM   20  O1  UNL     1      27.430   4.820  48.802  1.00  0.00    -0.353 OA
HETATM   21  C1  UNL     1      28.163   5.880  48.298  1.00  0.00     0.210 C 
ENDBRANCH   1  20
BRANCH   9  22
HETATM   22  O3  UNL     1      25.948   7.325  50.281  1.00  0.00    -0.351 OA
HETATM   23  C15 UNL     1      25.517   8.347  49.395  1.00  0.00     0.210 C 
ENDBRANCH   9  22
TORSDOF 4
ENDMDL
MODEL 4
REMARK VINA RESULT:      -7.4      3.176      7.009
REMARK  4 active torsions:
REMARK  status: ('A' for Active; 'I' for Inactive)
REMARK    1  A    between atoms: O1_2  and  C2_3 
REMARK    2  A    between atoms: C5_6  and  O2_7 
REMARK    3  A    between atoms: O2_7  and  C6_8 
REMARK    4  A    between atoms: C14_19  and  O3_20 
ROOT
HETATM    1  C2  UNL     1      26.423   4.454  49.466  1.00  0.00     0.104 C 
HETATM    2  C3  UNL     1      25.662   3.312  49.553  1.00  0.00     0.051 C 
HETATM    3  C4  UNL     1      24.309   3.518  50.154  1.00  0.00     0.004 C 
HETATM    4  C5  UNL     1      23.816   2.890  51.238  1.00  0.00     0.177 C 
HETATM    5  N1  UNL     1      22.913   3.685  52.135  1.00  0.00    -0.219 NA
HETATM    6  C12 UNL     1      23.307   4.925  52.568  1.00  0.00     0.210 C 
HETATM    7  N2  UNL     1      24.089   5.967  51.801  1.00  0.00    -0.351 N 
HETATM    8  C13 UNL     1      24.538   5.588  50.465  1.00  0.00     0.051 C 
HETATM    9  C14 UNL     1      25.800   5.737  49.990  1.00  0.00     0.124 C 
HETATM   10  C16 UNL     1      23.618   4.749  49.481  1.00  0.00     0.103 C 
HETATM   11  H10 UNL     1      24.498   6.922  51.838  1.00  0.00     0.166 HD
ENDROOT
BRANCH   4  12
HETATM   12  O2  UNL     1      24.409   1.648  51.060  1.00  0.00    -0.291 OA
BRANCH  12  13
HETATM   13  C6  UNL     1      24.883   0.962  52.196  1.00  0.00     0.079 A 
HETATM   14  C7  UNL     1      24.061   0.185  53.013  1.00  0.00     0.037 A 
HETATM   15  C8  UNL     1      24.603  -0.456  54.110  1.00  0.00     0.004 A 
HETATM   16  C9  UNL     1      25.934  -0.346  54.420  1.00  0.00     0.019 A 
HETATM   17  C10 UNL     1      26.785   0.415  53.636  1.00  0.00     0.013 A 
HETATM   18 BR1  UNL     1      28.634   0.593  54.029  1.00  0.00    -0.051 Br
HETATM   19  C11 UNL     1      26.204   1.033  52.557  1.00  0.00     0.056 A 
ENDBRANCH  12  13
ENDBRANCH   4  12
BRANCH   1  20
HETATM   20  O1  UNL     1      27.662   4.514  48.961  1.00  0.00    -0.353 OA
HETATM   21  C1  UNL     1      28.345   5.525  48.308  1.00  0.00     0.210 C 
ENDBRANCH   1  20
BRANCH   9  22
HETATM   22  O3  UNL     1      26.028   7.057  50.193  1.00  0.00    -0.351 OA
HETATM   23  C15 UNL     1      25.685   8.004  49.193  1.00  0.00     0.210 C 
ENDBRANCH   9  22
TORSDOF 4
ENDMDL
MODEL 5
REMARK VINA RESULT:      -7.2      4.383      8.303
REMARK  4 active torsions:
REMARK  status: ('A' for Active; 'I' for Inactive)
REMARK    1  A    between atoms: O1_2  and  C2_3 
REMARK    2  A    between atoms: C5_6  and  O2_7 
REMARK    3  A    between atoms: O2_7  and  C6_8 
REMARK    4  A    between atoms: C14_19  and  O3_20 
ROOT
HETATM    1  C2  UNL     1      30.268   6.373  48.466  1.00  0.00     0.104 C 
HETATM    2  C3  UNL     1      29.204   5.565  48.139  1.00  0.00     0.051 C 
HETATM    3  C4  UNL     1      27.879   6.257  48.153  1.00  0.00     0.004 C 
HETATM    4  C5  UNL     1      26.805   5.904  48.886  1.00  0.00     0.177 C 
HETATM    5  N1  UNL     1      25.938   7.013  49.403  1.00  0.00    -0.219 NA
HETATM    6  C12 UNL     1      26.510   8.071  50.063  1.00  0.00     0.210 C 
HETATM    7  N2  UNL     1      27.836   8.735  49.772  1.00  0.00    -0.351 N 
HETATM    8  C13 UNL     1      28.639   8.141  48.706  1.00  0.00     0.051 C 
HETATM    9  C14 UNL     1      29.954   7.822  48.799  1.00  0.00     0.124 C 
HETATM   10  C16 UNL     1      27.980   7.604  47.366  1.00  0.00     0.103 C 
HETATM   11  H10 UNL     1      28.488   9.494  50.053  1.00  0.00     0.166 HD
ENDROOT
BRANCH   4  12
HETATM   12  O2  UNL     1      26.966   4.525  48.859  1.00  0.00    -0.291 OA
BRANCH  12  13
HETATM   13  C6  UNL     1      26.099   3.734  49.638  1.00  0.00     0.079 A 
HETATM   14  C7  UNL     1      24.717   3.698  49.440  1.00  0.00     0.037 A 
HETATM   15  C8  UNL     1      23.936   2.895  50.248  1.00  0.00     0.004 A 
HETATM   16  C9  UNL     1      24.483   2.131  51.245  1.00  0.00     0.019 A 
HETATM   17  C10 UNL     1      25.848   2.138  51.477  1.00  0.00     0.013 A 
HETATM   18 BR1  UNL     1      26.647   1.094  52.847  1.00  0.00    -0.051 Br
HETATM   19  C11 UNL     1      26.586   2.948  50.651  1.00  0.00     0.056 A 
ENDBRANCH  12  13
ENDBRANCH   4  12
BRANCH   1  20
HETATM   20  O1  UNL     1      31.546   5.976  48.515  1.00  0.00    -0.353 OA
HETATM   21  C1  UNL     1      32.167   4.811  48.098  1.00  0.00     0.210 C 
ENDBRANCH   1  20
BRANCH   9  22
HETATM   22  O3  UNL     1      30.506   8.996  49.190  1.00  0.00    -0.351 OA
HETATM   23  C15 UNL     1      30.994   9.913  48.222  1.00  0.00     0.210 C 
ENDBRANCH   9  22
TORSDOF 4
ENDMDL
MODEL 6
REMARK VINA RESULT:      -7.1      2.777      3.928
REMARK  4 active torsions:
REMARK  status: ('A' for Active; 'I' for Inactive)
REMARK    1  A    between atoms: O1_2  and  C2_3 
REMARK    2  A    between atoms: C5_6  and  O2_7 
REMARK    3  A    between atoms: O2_7  and  C6_8 
REMARK    4  A    between atoms: C14_19  and  O3_20 
ROOT
HETATM    1  C2  UNL     1      24.453   0.621  53.117  1.00  0.00     0.104 C 
HETATM    2  C3  UNL     1      24.870   1.727  52.412  1.00  0.00     0.051 C 
HETATM    3  C4  UNL     1      23.809   2.353  51.565  1.00  0.00     0.004 C 
HETATM    4  C5  UNL     1      23.871   2.557  50.236  1.00  0.00     0.177 C 
HETATM    5  N1  UNL     1      22.591   2.418  49.465  1.00  0.00    -0.219 NA
HETATM    6  C12 UNL     1      21.812   1.304  49.637  1.00  0.00     0.210 C 
HETATM    7  N2  UNL     1      21.565   0.535  50.915  1.00  0.00    -0.351 N 
HETATM    8  C13 UNL     1      22.294   0.989  52.095  1.00  0.00     0.051 C 
HETATM    9  C14 UNL     1      23.006   0.194  52.932  1.00  0.00     0.124 C 
HETATM   10  C16 UNL     1      22.503   2.532  52.406  1.00  0.00     0.103 C 
HETATM   11  H10 UNL     1      21.065  -0.270  51.341  1.00  0.00     0.166 HD
ENDROOT
BRANCH   4  12
HETATM   12  O2  UNL     1      25.226   2.832  50.119  1.00  0.00    -0.291 OA
BRANCH  12  13
HETATM   13  C6  UNL     1      25.614   4.058  49.544  1.00  0.00     0.079 A 
HETATM   14  C7  UNL     1      24.718   5.098  49.292  1.00  0.00     0.037 A 
HETATM   15  C8  UNL     1      25.178   6.270  48.725  1.00  0.00     0.004 A 
HETATM   16  C9  UNL     1      26.499   6.439  48.399  1.00  0.00     0.019 A 
HETATM   17  C10 UNL     1      27.422   5.433  48.631  1.00  0.00     0.013 A 
HETATM   18 BR1  UNL     1      29.259   5.626  48.195  1.00  0.00    -0.051 Br
HETATM   19  C11 UNL     1      26.921   4.287  49.196  1.00  0.00     0.056 A 
ENDBRANCH  12  13
ENDBRANCH   4  12
BRANCH   1  20
HETATM   20  O1  UNL     1      25.224  -0.099  53.941  1.00  0.00    -0.353 OA
HETATM   21  C1  UNL     1      26.407   0.200  54.595  1.00  0.00     0.210 C 
ENDBRANCH   1  20
BRANCH   9  22
HETATM   22  O3  UNL     1      22.090  -0.738  53.289  1.00  0.00    -0.351 OA
HETATM   23  C15 UNL     1      21.406  -0.630  54.528  1.00  0.00     0.210 C 
ENDBRANCH   9  22
TORSDOF 4
ENDMDL
MODEL 7
REMARK VINA RESULT:      -7.1      2.310      3.431
REMARK  4 active torsions:
REMARK  status: ('A' for Active; 'I' for Inactive)
REMARK    1  A    between atoms: O1_2  and  C2_3 
REMARK    2  A    between atoms: C5_6  and  O2_7 
REMARK    3  A    between atoms: O2_7  and  C6_8 
REMARK    4  A    between atoms: C14_19  and  O3_20 
ROOT
HETATM    1  C2  UNL     1      24.711   0.689  53.204  1.00  0.00     0.104 C 
HETATM    2  C3  UNL     1      25.172   1.828  52.586  1.00  0.00     0.051 C 
HETATM    3  C4  UNL     1      24.157   2.521  51.735  1.00  0.00     0.004 C 
HETATM    4  C5  UNL     1      24.277   2.802  50.424  1.00  0.00     0.177 C 
HETATM    5  N1  UNL     1      23.029   2.732  49.594  1.00  0.00    -0.219 NA
HETATM    6  C12 UNL     1      22.228   1.622  49.667  1.00  0.00     0.210 C 
HETATM    7  N2  UNL     1      21.917   0.782  50.885  1.00  0.00    -0.351 N 
HETATM    8  C13 UNL     1      22.603   1.153  52.120  1.00  0.00     0.051 C 
HETATM    9  C14 UNL     1      23.267   0.297  52.935  1.00  0.00     0.124 C 
HETATM   10  C16 UNL     1      22.819   2.671  52.531  1.00  0.00     0.103 C 
HETATM   11  H10 UNL     1      21.388  -0.038  51.241  1.00  0.00     0.166 HD
ENDROOT
BRANCH   4  12
HETATM   12  O2  UNL     1      25.640   3.062  50.380  1.00  0.00    -0.291 OA
BRANCH  12  13
HETATM   13  C6  UNL     1      26.073   4.276  49.813  1.00  0.00     0.079 A 
HETATM   14  C7  UNL     1      27.188   4.372  48.978  1.00  0.00     0.037 A 
HETATM   15  C8  UNL     1      27.547   5.603  48.463  1.00  0.00     0.004 A 
HETATM   16  C9  UNL     1      26.836   6.738  48.753  1.00  0.00     0.019 A 
HETATM   17  C10 UNL     1      25.724   6.688  49.577  1.00  0.00     0.013 A 
HETATM   18 BR1  UNL     1      24.711   8.236  50.004  1.00  0.00    -0.051 Br
HETATM   19  C11 UNL     1      25.403   5.446  50.066  1.00  0.00     0.056 A 
ENDBRANCH  12  13
ENDBRANCH   4  12
BRANCH   1  20
HETATM   20  O1  UNL     1      25.437  -0.091  54.015  1.00  0.00    -0.353 OA
HETATM   21  C1  UNL     1      26.487   0.191  54.871  1.00  0.00     0.210 C 
ENDBRANCH   1  20
BRANCH   9  22
HETATM   22  O3  UNL     1      22.324  -0.639  53.198  1.00  0.00    -0.351 OA
HETATM   23  C15 UNL     1      21.941  -0.912  54.537  1.00  0.00     0.210 C 
ENDBRANCH   9  22
TORSDOF 4
ENDMDL
MODEL 8
REMARK VINA RESULT:      -6.9      3.537      7.526
REMARK  4 active torsions:
REMARK  status: ('A' for Active; 'I' for Inactive)
REMARK    1  A    between atoms: O1_2  and  C2_3 
REMARK    2  A    between atoms: C5_6  and  O2_7 
REMARK    3  A    between atoms: O2_7  and  C6_8 
REMARK    4  A    between atoms: C14_19  and  O3_20 
ROOT
HETATM    1  C2  UNL     1      27.205   4.880  48.864  1.00  0.00     0.104 C 
HETATM    2  C3  UNL     1      26.411   3.846  49.304  1.00  0.00     0.051 C 
HETATM    3  C4  UNL     1      25.053   4.267  49.765  1.00  0.00     0.004 C 
HETATM    4  C5  UNL     1      24.522   4.044  50.983  1.00  0.00     0.177 C 
HETATM    5  N1  UNL     1      23.625   5.110  51.541  1.00  0.00    -0.219 NA
HETATM    6  C12 UNL     1      24.044   6.415  51.548  1.00  0.00     0.210 C 
HETATM    7  N2  UNL     1      24.869   7.129  50.501  1.00  0.00    -0.351 N 
HETATM    8  C13 UNL     1      25.333   6.318  49.379  1.00  0.00     0.051 C 
HETATM    9  C14 UNL     1      26.607   6.276  48.916  1.00  0.00     0.124 C 
HETATM   10  C16 UNL     1      24.409   5.218  48.704  1.00  0.00     0.103 C 
HETATM   11  H10 UNL     1      25.303   8.033  50.230  1.00  0.00     0.166 HD
ENDROOT
BRANCH   4  12
HETATM   12  O2  UNL     1      25.085   2.802  51.243  1.00  0.00    -0.291 OA
BRANCH  12  13
HETATM   13  C6  UNL     1      24.269   1.803  51.808  1.00  0.00     0.079 A 
HETATM   14  C7  UNL     1      22.978   1.527  51.356  1.00  0.00     0.037 A 
HETATM   15  C8  UNL     1      22.242   0.529  51.965  1.00  0.00     0.004 A 
HETATM   16  C9  UNL     1      22.749  -0.200  53.010  1.00  0.00     0.019 A 
HETATM   17  C10 UNL     1      24.025   0.041  53.490  1.00  0.00     0.013 A 
HETATM   18 BR1  UNL     1      24.765  -0.947  54.934  1.00  0.00    -0.051 Br
HETATM   19  C11 UNL     1      24.720   1.039  52.856  1.00  0.00     0.056 A 
ENDBRANCH  12  13
ENDBRANCH   4  12
BRANCH   1  20
HETATM   20  O1  UNL     1      28.454   4.745  48.402  1.00  0.00    -0.353 OA
HETATM   21  C1  UNL     1      29.478   5.659  48.226  1.00  0.00     0.210 C 
ENDBRANCH   1  20
BRANCH   9  22
HETATM   22  O3  UNL     1      26.868   7.584  48.676  1.00  0.00    -0.351 OA
HETATM   23  C15 UNL     1      26.668   8.127  47.380  1.00  0.00     0.210 C 
ENDBRANCH   9  22
TORSDOF 4
ENDMDL
MODEL 9
REMARK VINA RESULT:      -6.7      4.021      6.583
REMARK  4 active torsions:
REMARK  status: ('A' for Active; 'I' for Inactive)
REMARK    1  A    between atoms: O1_2  and  C2_3 
REMARK    2  A    between atoms: C5_6  and  O2_7 
REMARK    3  A    between atoms: O2_7  and  C6_8 
REMARK    4  A    between atoms: C14_19  and  O3_20 
ROOT
HETATM    1  C2  UNL     1      24.930   0.500  53.046  1.00  0.00     0.104 C 
HETATM    2  C3  UNL     1      23.569   0.394  52.876  1.00  0.00     0.051 C 
HETATM    3  C4  UNL     1      22.959   1.508  52.089  1.00  0.00     0.004 C 
HETATM    4  C5  UNL     1      21.972   2.326  52.501  1.00  0.00     0.177 C 
HETATM    5  N1  UNL     1      22.025   3.750  52.033  1.00  0.00    -0.219 NA
HETATM    6  C12 UNL     1      23.186   4.467  52.169  1.00  0.00     0.210 C 
HETATM    7  N2  UNL     1      24.605   3.968  52.017  1.00  0.00    -0.351 N 
HETATM    8  C13 UNL     1      24.766   2.540  51.762  1.00  0.00     0.051 C 
HETATM    9  C14 UNL     1      25.608   1.713  52.431  1.00  0.00     0.124 C 
HETATM   10  C16 UNL     1      23.792   1.751  50.788  1.00  0.00     0.103 C 
HETATM   11  H10 UNL     1      25.609   4.236  52.043  1.00  0.00     0.166 HD
ENDROOT
BRANCH   4  12
HETATM   12  O2  UNL     1      21.247   1.424  53.268  1.00  0.00    -0.291 OA
BRANCH  12  13
HETATM   13  C6  UNL     1      20.086   0.853  52.712  1.00  0.00     0.079 A 
HETATM   14  C7  UNL     1      19.412   1.407  51.621  1.00  0.00     0.037 A 
HETATM   15  C8  UNL     1      18.279   0.785  51.135  1.00  0.00     0.004 A 
HETATM   16  C9  UNL     1      17.794  -0.367  51.698  1.00  0.00     0.019 A 
HETATM   17  C10 UNL     1      18.431  -0.950  52.781  1.00  0.00     0.013 A 
HETATM   18 BR1  UNL     1      17.793  -2.544  53.591  1.00  0.00    -0.051 Br
HETATM   19  C11 UNL     1      19.552  -0.299  53.231  1.00  0.00     0.056 A 
ENDBRANCH  12  13
ENDBRANCH   4  12
BRANCH   1  20
HETATM   20  O1  UNL     1      25.691  -0.380  53.710  1.00  0.00    -0.353 OA
HETATM   21  C1  UNL     1      26.010  -0.496  55.052  1.00  0.00     0.210 C 
ENDBRANCH   1  20
BRANCH   9  22
HETATM   22  O3  UNL     1      26.799   2.342  52.289  1.00  0.00    -0.351 OA
HETATM   23  C15 UNL     1      27.738   2.345  53.354  1.00  0.00     0.210 C 
ENDBRANCH   9  22
TORSDOF 4
ENDMDL
