MODEL 1
REMARK VINA RESULT:      -8.9      0.000      0.000
REMARK  0 active torsions:
REMARK  status: ('A' for Active; 'I' for Inactive)
ROOT
HETATM    1  O1  UNL     1      21.052   0.668  51.957  1.00  0.00    -0.269 OA
HETATM    2  C1  UNL     1      21.531   1.218  52.970  1.00  0.00     0.242 C 
HETATM    3  C2  UNL     1      22.149   0.277  53.872  1.00  0.00     0.088 C 
HETATM    4  C3  UNL     1      22.965  -0.529  53.283  1.00  0.00     0.006 C 
HETATM    5  C4  UNL     1      23.961  -0.055  52.556  1.00  0.00     0.048 C 
HETATM    6  C5  UNL     1      24.907  -1.240  52.520  1.00  0.00     0.116 C 
HETATM    7  C6  UNL     1      26.024  -1.016  53.464  1.00  0.00     0.018 C 
HETATM    8  C7  UNL     1      27.144  -1.304  52.748  1.00  0.00     0.028 C 
HETATM    9  C8  UNL     1      28.488  -0.664  52.854  1.00  0.00     0.040 C 
HETATM   10  C9  UNL     1      28.975   0.503  53.335  1.00  0.00     0.098 C 
HETATM   11  F1  UNL     1      30.309   0.490  53.407  1.00  0.00    -0.210 F 
HETATM   12  C10 UNL     1      28.369   1.785  53.795  1.00  0.00     0.114 C 
HETATM   13  C11 UNL     1      26.910   1.648  54.025  1.00  0.00     0.014 C 
HETATM   14  C12 UNL     1      25.910   2.062  53.296  1.00  0.00     0.008 C 
HETATM   15  C13 UNL     1      24.431   2.134  53.179  1.00  0.00     0.179 C 
HETATM   16  N1  UNL     1      23.933   1.320  52.054  1.00  0.00    -0.268 N 
HETATM   17  N2  UNL     1      23.667   1.893  50.916  1.00  0.00    -0.159 NA
HETATM   18  C14 UNL     1      22.991   2.368  50.107  1.00  0.00     0.122 C 
HETATM   19  C15 UNL     1      23.467   2.937  48.768  1.00  0.00     0.082 C 
HETATM   20  C16 UNL     1      22.567   2.008  47.900  1.00  0.00     0.027 C 
HETATM   21  C17 UNL     1      21.619   1.450  48.994  1.00  0.00     0.124 C 
HETATM   22  N3  UNL     1      21.589   2.657  49.836  1.00  0.00    -0.366 N 
HETATM   23  C18 UNL     1      21.351   3.830  50.583  1.00  0.00     0.143 C 
HETATM   24  C19 UNL     1      20.641   3.572  51.853  1.00  0.00     0.143 C 
HETATM   25  N4  UNL     1      21.203   2.553  52.696  1.00  0.00    -0.356 N 
HETATM   26  C20 UNL     1      26.384   0.839  55.134  1.00  0.00     0.252 C 
HETATM   27  O2  UNL     1      26.031   0.444  56.251  1.00  0.00    -0.268 OA
HETATM   28  N5  UNL     1      25.861  -0.527  54.839  1.00  0.00    -0.327 N 
HETATM   29  H21 UNL     1      21.615   2.826  53.608  1.00  0.00     0.162 HD
HETATM   30  H22 UNL     1      25.393  -1.374  55.166  1.00  0.00     0.169 HD
ENDROOT
TORSDOF 0
ENDMDL
MODEL 2
REMARK VINA RESULT:      -8.6      2.424      3.399
REMARK  0 active torsions:
REMARK  status: ('A' for Active; 'I' for Inactive)
ROOT
HETATM    1  O1  UNL     1      22.033   5.442  50.997  1.00  0.00    -0.269 OA
HETATM    2  C1  UNL     1      23.254   5.549  51.228  1.00  0.00     0.242 C 
HETATM    3  C2  UNL     1      23.606   5.136  52.564  1.00  0.00     0.088 C 
HETATM    4  C3  UNL     1      23.115   3.986  52.883  1.00  0.00     0.006 C 
HETATM    5  C4  UNL     1      23.353   2.927  52.129  1.00  0.00     0.048 C 
HETATM    6  C5  UNL     1      23.078   1.792  53.097  1.00  0.00     0.116 C 
HETATM    7  C6  UNL     1      24.358   1.230  53.583  1.00  0.00     0.018 C 
HETATM    8  C7  UNL     1      24.220  -0.116  53.439  1.00  0.00     0.028 C 
HETATM    9  C8  UNL     1      25.276  -1.112  53.094  1.00  0.00     0.040 C 
HETATM   10  C9  UNL     1      26.497  -1.075  52.513  1.00  0.00     0.098 C 
HETATM   11  F1  UNL     1      27.149  -2.232  52.658  1.00  0.00    -0.210 F 
HETATM   12  C10 UNL     1      27.271  -0.049  51.756  1.00  0.00     0.114 C 
HETATM   13  C11 UNL     1      26.679   1.303  51.907  1.00  0.00     0.014 C 
HETATM   14  C12 UNL     1      25.967   1.999  51.065  1.00  0.00     0.008 C 
HETATM   15  C13 UNL     1      25.251   3.280  50.836  1.00  0.00     0.179 C 
HETATM   16  N1  UNL     1      23.793   3.081  50.741  1.00  0.00    -0.268 N 
HETATM   17  N2  UNL     1      23.232   3.003  49.570  1.00  0.00    -0.159 NA
HETATM   18  C14 UNL     1      22.648   3.394  48.651  1.00  0.00     0.122 C 
HETATM   19  C15 UNL     1      22.288   2.577  47.408  1.00  0.00     0.082 C 
HETATM   20  C16 UNL     1      20.753   2.810  47.536  1.00  0.00     0.027 C 
HETATM   21  C17 UNL     1      20.737   3.950  48.586  1.00  0.00     0.124 C 
HETATM   22  N3  UNL     1      21.990   4.599  48.163  1.00  0.00    -0.366 N 
HETATM   23  C18 UNL     1      23.062   5.385  47.694  1.00  0.00     0.143 C 
HETATM   24  C19 UNL     1      23.448   6.457  48.636  1.00  0.00     0.143 C 
HETATM   25  N4  UNL     1      23.689   6.050  49.992  1.00  0.00    -0.356 N 
HETATM   26  C20 UNL     1      26.723   2.016  53.192  1.00  0.00     0.252 C 
HETATM   27  O2  UNL     1      27.090   2.677  54.170  1.00  0.00    -0.268 OA
HETATM   28  N5  UNL     1      25.497   2.036  54.042  1.00  0.00    -0.327 N 
HETATM   29  H21 UNL     1      24.651   6.112  50.373  1.00  0.00     0.162 HD
HETATM   30  H22 UNL     1      25.015   2.379  54.876  1.00  0.00     0.169 HD
ENDROOT
TORSDOF 0
ENDMDL
MODEL 3
REMARK VINA RESULT:      -8.2     10.504     12.936
REMARK  0 active torsions:
REMARK  status: ('A' for Active; 'I' for Inactive)
ROOT
HETATM    1  O1  UNL     1      34.847   7.930  46.453  1.00  0.00    -0.269 OA
HETATM    2  C1  UNL     1      34.608   8.572  47.496  1.00  0.00     0.242 C 
HETATM    3  C2  UNL     1      34.012   9.859  47.231  1.00  0.00     0.088 C 
HETATM    4  C3  UNL     1      33.013   9.796  46.418  1.00  0.00     0.006 C 
HETATM    5  C4  UNL     1      31.992   8.999  46.677  1.00  0.00     0.048 C 
HETATM    6  C5  UNL     1      30.898   9.612  45.823  1.00  0.00     0.116 C 
HETATM    7  C6  UNL     1      29.980  10.398  46.677  1.00  0.00     0.018 C 
HETATM    8  C7  UNL     1      28.735   9.991  46.309  1.00  0.00     0.028 C 
HETATM    9  C8  UNL     1      27.524   9.860  47.171  1.00  0.00     0.040 C 
HETATM   10  C9  UNL     1      27.280   9.738  48.496  1.00  0.00     0.098 C 
HETATM   11  F1  UNL     1      25.984   9.896  48.777  1.00  0.00    -0.210 F 
HETATM   12  C10 UNL     1      28.119   9.469  49.699  1.00  0.00     0.114 C 
HETATM   13  C11 UNL     1      29.564   9.638  49.406  1.00  0.00     0.014 C 
HETATM   14  C12 UNL     1      30.488   8.735  49.226  1.00  0.00     0.008 C 
HETATM   15  C13 UNL     1      31.927   8.499  48.945  1.00  0.00     0.179 C 
HETATM   16  N1  UNL     1      32.131   7.887  47.619  1.00  0.00    -0.268 N 
HETATM   17  N2  UNL     1      32.296   6.600  47.525  1.00  0.00    -0.159 NA
HETATM   18  C14 UNL     1      32.899   5.618  47.422  1.00  0.00     0.122 C 
HETATM   19  C15 UNL     1      32.307   4.208  47.374  1.00  0.00     0.082 C 
HETATM   20  C16 UNL     1      32.929   3.849  45.991  1.00  0.00     0.027 C 
HETATM   21  C17 UNL     1      33.947   5.009  45.842  1.00  0.00     0.124 C 
HETATM   22  N3  UNL     1      34.270   5.148  47.271  1.00  0.00    -0.366 N 
HETATM   23  C18 UNL     1      34.777   5.205  48.586  1.00  0.00     0.143 C 
HETATM   24  C19 UNL     1      35.631   6.389  48.824  1.00  0.00     0.143 C 
HETATM   25  N4  UNL     1      35.070   7.658  48.453  1.00  0.00    -0.356 N 
HETATM   26  C20 UNL     1      30.137  10.963  49.130  1.00  0.00     0.252 C 
HETATM   27  O2  UNL     1      30.598  12.104  49.247  1.00  0.00    -0.268 OA
HETATM   28  N5  UNL     1      30.416  11.342  47.714  1.00  0.00    -0.327 N 
HETATM   29  H21 UNL     1      34.844   8.344  49.197  1.00  0.00     0.162 HD
HETATM   30  H22 UNL     1      30.808  12.010  47.048  1.00  0.00     0.169 HD
ENDROOT
TORSDOF 0
ENDMDL
MODEL 4
REMARK VINA RESULT:      -7.9      9.217     10.713
REMARK  0 active torsions:
REMARK  status: ('A' for Active; 'I' for Inactive)
ROOT
HETATM    1  O1  UNL     1      28.022  10.396  49.666  1.00  0.00    -0.269 OA
HETATM    2  C1  UNL     1      28.579  10.684  48.587  1.00  0.00     0.242 C 
HETATM    3  C2  UNL     1      29.999  10.893  48.734  1.00  0.00     0.088 C 
HETATM    4  C3  UNL     1      30.585   9.947  49.385  1.00  0.00     0.006 C 
HETATM    5  C4  UNL     1      30.468   8.692  48.988  1.00  0.00     0.048 C 
HETATM    6  C5  UNL     1      31.668   8.046  49.653  1.00  0.00     0.116 C 
HETATM    7  C6  UNL     1      32.741   7.839  48.654  1.00  0.00     0.018 C 
HETATM    8  C7  UNL     1      33.135   6.549  48.834  1.00  0.00     0.028 C 
HETATM    9  C8  UNL     1      33.612   5.585  47.799  1.00  0.00     0.040 C 
HETATM   10  C9  UNL     1      33.512   5.471  46.455  1.00  0.00     0.098 C 
HETATM   11  F1  UNL     1      34.335   4.534  45.975  1.00  0.00    -0.210 F 
HETATM   12  C10 UNL     1      32.701   6.145  45.400  1.00  0.00     0.114 C 
HETATM   13  C11 UNL     1      32.068   7.386  45.907  1.00  0.00     0.014 C 
HETATM   14  C12 UNL     1      30.828   7.610  46.244  1.00  0.00     0.008 C 
HETATM   15  C13 UNL     1      29.861   8.620  46.746  1.00  0.00     0.179 C 
HETATM   16  N1  UNL     1      29.378   8.287  48.099  1.00  0.00    -0.268 N 
HETATM   17  N2  UNL     1      28.233   7.685  48.240  1.00  0.00    -0.159 NA
HETATM   18  C14 UNL     1      27.099   7.611  48.453  1.00  0.00     0.122 C 
HETATM   19  C15 UNL     1      26.269   6.325  48.436  1.00  0.00     0.082 C 
HETATM   20  C16 UNL     1      25.768   6.470  49.903  1.00  0.00     0.027 C 
HETATM   21  C17 UNL     1      26.174   7.939  50.186  1.00  0.00     0.124 C 
HETATM   22  N3  UNL     1      25.964   8.448  48.820  1.00  0.00    -0.366 N 
HETATM   23  C18 UNL     1      25.596   9.048  47.598  1.00  0.00     0.143 C 
HETATM   24  C19 UNL     1      26.073  10.441  47.472  1.00  0.00     0.143 C 
HETATM   25  N4  UNL     1      27.470  10.657  47.729  1.00  0.00    -0.356 N 
HETATM   26  C20 UNL     1      32.871   8.571  46.244  1.00  0.00     0.252 C 
HETATM   27  O2  UNL     1      33.544   9.606  46.177  1.00  0.00    -0.268 OA
HETATM   28  N5  UNL     1      33.172   8.849  47.678  1.00  0.00    -0.327 N 
HETATM   29  H21 UNL     1      28.087  10.945  46.947  1.00  0.00     0.162 HD
HETATM   30  H22 UNL     1      33.573   9.469  48.384  1.00  0.00     0.169 HD
ENDROOT
TORSDOF 0
ENDMDL
MODEL 5
REMARK VINA RESULT:      -7.9      6.207      7.853
REMARK  0 active torsions:
REMARK  status: ('A' for Active; 'I' for Inactive)
ROOT
HETATM    1  O1  UNL     1      22.865   4.679  49.969  1.00  0.00    -0.269 OA
HETATM    2  C1  UNL     1      23.006   5.863  50.337  1.00  0.00     0.242 C 
HETATM    3  C2  UNL     1      24.303   6.112  50.918  1.00  0.00     0.088 C 
HETATM    4  C3  UNL     1      25.275   5.674  50.192  1.00  0.00     0.006 C 
HETATM    5  C4  UNL     1      25.390   6.054  48.932  1.00  0.00     0.048 C 
HETATM    6  C5  UNL     1      26.854   5.767  48.657  1.00  0.00     0.116 C 
HETATM    7  C6  UNL     1      27.624   7.030  48.686  1.00  0.00     0.018 C 
HETATM    8  C7  UNL     1      28.380   6.999  47.555  1.00  0.00     0.028 C 
HETATM    9  C8  UNL     1      28.792   8.149  46.698  1.00  0.00     0.040 C 
HETATM   10  C9  UNL     1      28.360   9.415  46.494  1.00  0.00     0.098 C 
HETATM   11  F1  UNL     1      29.236  10.128  45.781  1.00  0.00    -0.210 F 
HETATM   12  C10 UNL     1      27.142  10.185  46.878  1.00  0.00     0.114 C 
HETATM   13  C11 UNL     1      26.366   9.490  47.934  1.00  0.00     0.014 C 
HETATM   14  C12 UNL     1      25.254   8.816  47.843  1.00  0.00     0.008 C 
HETATM   15  C13 UNL     1      24.231   8.039  48.590  1.00  0.00     0.179 C 
HETATM   16  N1  UNL     1      24.245   6.614  48.211  1.00  0.00    -0.268 N 
HETATM   17  N2  UNL     1      23.386   6.174  47.339  1.00  0.00    -0.159 NA
HETATM   18  C14 UNL     1      22.416   5.655  46.982  1.00  0.00     0.122 C 
HETATM   19  C15 UNL     1      21.985   5.472  45.525  1.00  0.00     0.082 C 
HETATM   20  C16 UNL     1      21.888   3.920  45.608  1.00  0.00     0.027 C 
HETATM   21  C17 UNL     1      21.952   3.725  47.145  1.00  0.00     0.124 C 
HETATM   22  N3  UNL     1      21.246   4.965  47.511  1.00  0.00    -0.366 N 
HETATM   23  C18 UNL     1      20.411   6.021  47.930  1.00  0.00     0.143 C 
HETATM   24  C19 UNL     1      20.448   6.241  49.392  1.00  0.00     0.143 C 
HETATM   25  N4  UNL     1      21.753   6.378  49.978  1.00  0.00    -0.356 N 
HETATM   26  C20 UNL     1      26.887   9.362  49.303  1.00  0.00     0.252 C 
HETATM   27  O2  UNL     1      27.216   9.587  50.473  1.00  0.00    -0.268 OA
HETATM   28  N5  UNL     1      27.487   8.062  49.723  1.00  0.00    -0.327 N 
HETATM   29  H21 UNL     1      22.031   7.293  50.377  1.00  0.00     0.162 HD
HETATM   30  H22 UNL     1      27.888   7.480  50.461  1.00  0.00     0.169 HD
ENDROOT
TORSDOF 0
ENDMDL
MODEL 6
REMARK VINA RESULT:      -7.7      5.934      7.036
REMARK  0 active torsions:
REMARK  status: ('A' for Active; 'I' for Inactive)
ROOT
HETATM    1  O1  UNL     1      20.626   5.836  49.029  1.00  0.00    -0.269 OA
HETATM    2  C1  UNL     1      21.241   6.907  49.203  1.00  0.00     0.242 C 
HETATM    3  C2  UNL     1      22.204   6.827  50.274  1.00  0.00     0.088 C 
HETATM    4  C3  UNL     1      22.972   5.794  50.187  1.00  0.00     0.006 C 
HETATM    5  C4  UNL     1      23.671   5.574  49.088  1.00  0.00     0.048 C 
HETATM    6  C5  UNL     1      24.759   4.647  49.596  1.00  0.00     0.116 C 
HETATM    7  C6  UNL     1      26.021   5.402  49.762  1.00  0.00     0.018 C 
HETATM    8  C7  UNL     1      26.965   4.637  49.151  1.00  0.00     0.028 C 
HETATM    9  C8  UNL     1      28.171   5.095  48.402  1.00  0.00     0.040 C 
HETATM   10  C9  UNL     1      28.565   6.239  47.796  1.00  0.00     0.098 C 
HETATM   11  F1  UNL     1      29.860   6.206  47.471  1.00  0.00    -0.210 F 
HETATM   12  C10 UNL     1      27.889   7.511  47.412  1.00  0.00     0.114 C 
HETATM   13  C11 UNL     1      26.571   7.653  48.079  1.00  0.00     0.014 C 
HETATM   14  C12 UNL     1      25.371   7.498  47.593  1.00  0.00     0.008 C 
HETATM   15  C13 UNL     1      23.917   7.550  47.890  1.00  0.00     0.179 C 
HETATM   16  N1  UNL     1      23.299   6.211  47.824  1.00  0.00    -0.268 N 
HETATM   17  N2  UNL     1      22.675   5.847  46.742  1.00  0.00    -0.159 NA
HETATM   18  C14 UNL     1      21.754   5.661  46.067  1.00  0.00     0.122 C 
HETATM   19  C15 UNL     1      21.791   5.112  44.639  1.00  0.00     0.082 C 
HETATM   20  C16 UNL     1      20.870   3.893  44.941  1.00  0.00     0.027 C 
HETATM   21  C17 UNL     1      20.320   4.305  46.331  1.00  0.00     0.124 C 
HETATM   22  N3  UNL     1      20.301   5.758  46.091  1.00  0.00    -0.366 N 
HETATM   23  C18 UNL     1      20.064   7.130  45.868  1.00  0.00     0.143 C 
HETATM   24  C19 UNL     1      19.736   7.868  47.107  1.00  0.00     0.143 C 
HETATM   25  N4  UNL     1      20.644   7.692  48.206  1.00  0.00    -0.356 N 
HETATM   26  C20 UNL     1      26.470   7.873  49.529  1.00  0.00     0.252 C 
HETATM   27  O2  UNL     1      26.469   8.386  50.654  1.00  0.00    -0.268 OA
HETATM   28  N5  UNL     1      26.121   6.719  50.407  1.00  0.00    -0.327 N 
HETATM   29  H21 UNL     1      21.216   8.499  48.520  1.00  0.00     0.162 HD
HETATM   30  H22 UNL     1      25.890   6.364  51.337  1.00  0.00     0.169 HD
ENDROOT
TORSDOF 0
ENDMDL
MODEL 7
REMARK VINA RESULT:      -7.7      3.819      7.202
REMARK  0 active torsions:
REMARK  status: ('A' for Active; 'I' for Inactive)
ROOT
HETATM    1  O1  UNL     1      26.543   1.448  51.018  1.00  0.00    -0.269 OA
HETATM    2  C1  UNL     1      26.681   2.669  51.230  1.00  0.00     0.242 C 
HETATM    3  C2  UNL     1      26.565   3.458  50.028  1.00  0.00     0.088 C 
HETATM    4  C3  UNL     1      25.519   3.166  49.330  1.00  0.00     0.006 C 
HETATM    5  C4  UNL     1      24.318   3.209  49.880  1.00  0.00     0.048 C 
HETATM    6  C5  UNL     1      23.426   3.329  48.660  1.00  0.00     0.116 C 
HETATM    7  C6  UNL     1      22.965   4.728  48.514  1.00  0.00     0.018 C 
HETATM    8  C7  UNL     1      21.623   4.631  48.318  1.00  0.00     0.028 C 
HETATM    9  C8  UNL     1      20.561   5.575  48.772  1.00  0.00     0.040 C 
HETATM   10  C9  UNL     1      20.453   6.539  49.716  1.00  0.00     0.098 C 
HETATM   11  F1  UNL     1      19.346   7.270  49.553  1.00  0.00    -0.210 F 
HETATM   12  C10 UNL     1      21.278   6.963  50.884  1.00  0.00     0.114 C 
HETATM   13  C11 UNL     1      22.638   6.374  50.835  1.00  0.00     0.014 C 
HETATM   14  C12 UNL     1      23.143   5.388  51.523  1.00  0.00     0.008 C 
HETATM   15  C13 UNL     1      24.354   4.563  51.768  1.00  0.00     0.179 C 
HETATM   16  N1  UNL     1      24.159   3.166  51.334  1.00  0.00    -0.268 N 
HETATM   17  N2  UNL     1      23.835   2.262  52.212  1.00  0.00    -0.159 NA
HETATM   18  C14 UNL     1      24.024   1.390  52.948  1.00  0.00     0.122 C 
HETATM   19  C15 UNL     1      22.960   0.696  53.802  1.00  0.00     0.082 C 
HETATM   20  C16 UNL     1      23.237  -0.726  53.229  1.00  0.00     0.027 C 
HETATM   21  C17 UNL     1      24.579  -0.468  52.498  1.00  0.00     0.124 C 
HETATM   22  N3  UNL     1      25.102   0.540  53.435  1.00  0.00    -0.366 N 
HETATM   23  C18 UNL     1      25.752   1.354  54.386  1.00  0.00     0.143 C 
HETATM   24  C19 UNL     1      26.999   1.960  53.871  1.00  0.00     0.143 C 
HETATM   25  N4  UNL     1      26.894   2.650  52.615  1.00  0.00    -0.356 N 
HETATM   26  C20 UNL     1      23.614   6.789  49.816  1.00  0.00     0.252 C 
HETATM   27  O2  UNL     1      24.468   7.413  49.176  1.00  0.00    -0.268 OA
HETATM   28  N5  UNL     1      23.837   5.905  48.636  1.00  0.00    -0.327 N 
HETATM   29  H21 UNL     1      27.024   3.679  52.595  1.00  0.00     0.162 HD
HETATM   30  H22 UNL     1      24.359   5.700  47.782  1.00  0.00     0.169 HD
ENDROOT
TORSDOF 0
ENDMDL
MODEL 8
REMARK VINA RESULT:      -7.6      9.968     12.299
REMARK  0 active torsions:
REMARK  status: ('A' for Active; 'I' for Inactive)
ROOT
HETATM    1  O1  UNL     1      33.550   7.060  48.111  1.00  0.00    -0.269 OA
HETATM    2  C1  UNL     1      32.558   6.321  47.941  1.00  0.00     0.242 C 
HETATM    3  C2  UNL     1      31.618   6.394  49.032  1.00  0.00     0.088 C 
HETATM    4  C3  UNL     1      31.315   7.604  49.360  1.00  0.00     0.006 C 
HETATM    5  C4  UNL     1      30.844   8.442  48.452  1.00  0.00     0.048 C 
HETATM    6  C5  UNL     1      30.159   9.480  49.319  1.00  0.00     0.116 C 
HETATM    7  C6  UNL     1      28.695   9.265  49.293  1.00  0.00     0.018 C 
HETATM    8  C7  UNL     1      28.169  10.496  49.048  1.00  0.00     0.028 C 
HETATM    9  C8  UNL     1      26.943  10.828  48.265  1.00  0.00     0.040 C 
HETATM   10  C9  UNL     1      26.190  10.210  47.326  1.00  0.00     0.098 C 
HETATM   11  F1  UNL     1      25.037  10.851  47.116  1.00  0.00    -0.210 F 
HETATM   12  C10 UNL     1      26.354   8.992  46.481  1.00  0.00     0.114 C 
HETATM   13  C11 UNL     1      27.458   8.132  46.972  1.00  0.00     0.014 C 
HETATM   14  C12 UNL     1      28.661   7.967  46.494  1.00  0.00     0.008 C 
HETATM   15  C13 UNL     1      29.955   7.259  46.661  1.00  0.00     0.179 C 
HETATM   16  N1  UNL     1      31.042   8.187  47.025  1.00  0.00    -0.268 N 
HETATM   17  N2  UNL     1      31.843   8.630  46.100  1.00  0.00    -0.159 NA
HETATM   18  C14 UNL     1      32.815   8.665  45.473  1.00  0.00     0.122 C 
HETATM   19  C15 UNL     1      33.106   9.641  44.331  1.00  0.00     0.082 C 
HETATM   20  C16 UNL     1      34.397  10.224  44.978  1.00  0.00     0.027 C 
HETATM   21  C17 UNL     1      34.634   9.180  46.100  1.00  0.00     0.124 C 
HETATM   22  N3  UNL     1      34.113   8.012  45.369  1.00  0.00    -0.366 N 
HETATM   23  C18 UNL     1      33.821   6.823  44.669  1.00  0.00     0.143 C 
HETATM   24  C19 UNL     1      33.742   5.639  45.550  1.00  0.00     0.143 C 
HETATM   25  N4  UNL     1      32.886   5.762  46.698  1.00  0.00    -0.356 N 
HETATM   26  C20 UNL     1      27.351   7.405  48.245  1.00  0.00     0.252 C 
HETATM   27  O2  UNL     1      27.066   6.578  49.119  1.00  0.00    -0.268 OA
HETATM   28  N5  UNL     1      28.046   7.956  49.445  1.00  0.00    -0.327 N 
HETATM   29  H21 UNL     1      32.026   5.185  46.747  1.00  0.00     0.162 HD
HETATM   30  H22 UNL     1      28.320   7.849  50.424  1.00  0.00     0.169 HD
ENDROOT
TORSDOF 0
ENDMDL
MODEL 9
REMARK VINA RESULT:      -7.6      9.728     11.120
REMARK  0 active torsions:
REMARK  status: ('A' for Active; 'I' for Inactive)
ROOT
HETATM    1  O1  UNL     1      29.057   9.242  49.687  1.00  0.00    -0.269 OA
HETATM    2  C1  UNL     1      30.113   9.707  49.211  1.00  0.00     0.242 C 
HETATM    3  C2  UNL     1      31.273   8.930  49.573  1.00  0.00     0.088 C 
HETATM    4  C3  UNL     1      31.121   7.666  49.366  1.00  0.00     0.006 C 
HETATM    5  C4  UNL     1      30.779   7.224  48.168  1.00  0.00     0.048 C 
HETATM    6  C5  UNL     1      31.224   5.775  48.237  1.00  0.00     0.116 C 
HETATM    7  C6  UNL     1      32.491   5.607  47.491  1.00  0.00     0.018 C 
HETATM    8  C7  UNL     1      32.284   4.521  46.698  1.00  0.00     0.028 C 
HETATM    9  C8  UNL     1      32.822   4.272  45.329  1.00  0.00     0.040 C 
HETATM   10  C9  UNL     1      33.328   5.029  44.329  1.00  0.00     0.098 C 
HETATM   11  F1  UNL     1      33.899   4.280  43.382  1.00  0.00    -0.210 F 
HETATM   12  C10 UNL     1      33.392   6.492  44.047  1.00  0.00     0.114 C 
HETATM   13  C11 UNL     1      33.067   7.295  45.251  1.00  0.00     0.014 C 
HETATM   14  C12 UNL     1      31.977   7.948  45.548  1.00  0.00     0.008 C 
HETATM   15  C13 UNL     1      31.304   8.809  46.553  1.00  0.00     0.179 C 
HETATM   16  N1  UNL     1      30.165   8.119  47.187  1.00  0.00    -0.268 N 
HETATM   17  N2  UNL     1      28.958   8.343  46.753  1.00  0.00    -0.159 NA
HETATM   18  C14 UNL     1      27.909   8.830  46.756  1.00  0.00     0.122 C 
HETATM   19  C15 UNL     1      26.798   8.562  45.739  1.00  0.00     0.082 C 
HETATM   20  C16 UNL     1      25.755   8.098  46.799  1.00  0.00     0.027 C 
HETATM   21  C17 UNL     1      26.462   8.566  48.098  1.00  0.00     0.124 C 
HETATM   22  N3  UNL     1      27.102   9.764  47.531  1.00  0.00    -0.366 N 
HETATM   23  C18 UNL     1      27.579  11.025  47.115  1.00  0.00     0.143 C 
HETATM   24  C19 UNL     1      28.507  11.640  48.087  1.00  0.00     0.143 C 
HETATM   25  N4  UNL     1      29.600  10.817  48.526  1.00  0.00    -0.356 N 
HETATM   26  C20 UNL     1      33.973   7.337  46.408  1.00  0.00     0.252 C 
HETATM   27  O2  UNL     1      34.909   7.596  47.173  1.00  0.00    -0.268 OA
HETATM   28  N5  UNL     1      33.646   6.509  47.605  1.00  0.00    -0.327 N 
HETATM   29  H21 UNL     1      30.566  11.078  48.256  1.00  0.00     0.162 HD
HETATM   30  H22 UNL     1      33.857   6.239  48.567  1.00  0.00     0.169 HD
ENDROOT
TORSDOF 0
ENDMDL
