MODEL 1
REMARK VINA RESULT:      -7.1      0.000      0.000
REMARK  0 active torsions:
REMARK  status: ('A' for Active; 'I' for Inactive)
ROOT
HETATM    1 CL1  UNL     1      35.367   7.399  48.241  1.00  0.00    -0.079 Cl
HETATM    2  C1  UNL     1      34.379   6.206  47.448  1.00  0.00     0.273 A 
HETATM    3  C2  UNL     1      34.388   5.003  48.109  1.00  0.00     0.294 A 
HETATM    4  N1  UNL     1      33.027   5.300  47.887  1.00  0.00     0.023 N 
HETATM    5  C3  UNL     1      32.349   4.866  46.791  1.00  0.00     0.277 C 
HETATM    6  C4  UNL     1      32.838   5.588  45.511  1.00  0.00     0.014 C 
HETATM    7  C5  UNL     1      33.609   6.498  46.172  1.00  0.00     0.008 C 
HETATM    8  P1  UNL     1      33.632   8.278  45.697  1.00  0.00    -0.025 P 
HETATM    9  C6  UNL     1      32.232   9.270  45.823  1.00  0.00     0.024 C 
HETATM   10  C7  UNL     1      30.938   8.630  46.343  1.00  0.00     0.176 C 
HETATM   11  O1  UNL     1      30.482   8.007  45.178  1.00  0.00    -0.368 OA
HETATM   12  C8  UNL     1      29.112   8.565  45.016  1.00  0.00     0.262 C 
HETATM   13  C9  UNL     1      28.582   7.993  46.227  1.00  0.00    -0.079 C 
HETATM   14  C10 UNL     1      28.194   7.544  47.152  1.00  0.00    -0.085 C 
HETATM   15  C11 UNL     1      27.709   6.942  48.356  1.00  0.00     0.213 C 
HETATM   16  N2  UNL     1      28.313   5.545  48.278  1.00  0.00    -0.388 N 
HETATM   17  C12 UNL     1      29.750   5.696  48.332  1.00  0.00     0.097 C 
HETATM   18  C13 UNL     1      30.610   6.626  47.997  1.00  0.00     0.039 C 
HETATM   19  C14 UNL     1      31.939   6.051  48.362  1.00  0.00     0.244 C 
HETATM   20  N3  UNL     1      32.129   6.495  49.531  1.00  0.00    -0.217 NA
HETATM   21  C15 UNL     1      31.677   7.911  49.789  1.00  0.00     0.229 C 
HETATM   22  N4  UNL     1      31.106   8.657  48.829  1.00  0.00    -0.270 NA
HETATM   23  C16 UNL     1      31.191   7.888  47.518  1.00  0.00     0.180 C 
HETATM   24  H11 UNL     1      27.817   4.650  48.191  1.00  0.00     0.159 HD
ENDROOT
TORSDOF 0
ENDMDL
MODEL 2
REMARK VINA RESULT:      -6.9      9.244     11.232
REMARK  0 active torsions:
REMARK  status: ('A' for Active; 'I' for Inactive)
ROOT
HETATM    1 CL1  UNL     1      20.108   5.254  50.039  1.00  0.00    -0.079 Cl
HETATM    2  C1  UNL     1      21.046   4.029  49.234  1.00  0.00     0.273 A 
HETATM    3  C2  UNL     1      21.773   4.539  48.187  1.00  0.00     0.294 A 
HETATM    4  N1  UNL     1      22.689   3.785  48.950  1.00  0.00     0.023 N 
HETATM    5  C3  UNL     1      22.955   2.476  48.698  1.00  0.00     0.277 C 
HETATM    6  C4  UNL     1      21.742   1.582  49.053  1.00  0.00     0.014 C 
HETATM    7  C5  UNL     1      21.036   2.574  49.667  1.00  0.00     0.008 C 
HETATM    8  P1  UNL     1      20.141   2.291  51.252  1.00  0.00    -0.025 P 
HETATM    9  C6  UNL     1      20.970   1.888  52.704  1.00  0.00     0.024 C 
HETATM   10  C7  UNL     1      22.498   1.762  52.652  1.00  0.00     0.176 C 
HETATM   11  O1  UNL     1      22.624   0.470  52.136  1.00  0.00    -0.368 OA
HETATM   12  C8  UNL     1      23.473  -0.213  53.148  1.00  0.00     0.262 C 
HETATM   13  C9  UNL     1      24.635   0.613  52.939  1.00  0.00    -0.079 C 
HETATM   14  C10 UNL     1      25.513   1.251  52.762  1.00  0.00    -0.085 C 
HETATM   15  C11 UNL     1      26.646   2.087  52.508  1.00  0.00     0.213 C 
HETATM   16  N2  UNL     1      26.647   2.165  50.986  1.00  0.00    -0.388 N 
HETATM   17  C12 UNL     1      25.427   2.833  50.591  1.00  0.00     0.097 C 
HETATM   18  C13 UNL     1      24.223   2.965  51.091  1.00  0.00     0.039 C 
HETATM   19  C14 UNL     1      23.499   3.812  50.098  1.00  0.00     0.244 C 
HETATM   20  N3  UNL     1      23.662   4.983  50.550  1.00  0.00    -0.217 NA
HETATM   21  C15 UNL     1      23.603   5.132  52.050  1.00  0.00     0.229 C 
HETATM   22  N4  UNL     1      23.388   4.080  52.858  1.00  0.00    -0.270 NA
HETATM   23  C16 UNL     1      23.063   2.874  51.989  1.00  0.00     0.180 C 
HETATM   24  H11 UNL     1      27.360   1.809  50.340  1.00  0.00     0.159 HD
ENDROOT
TORSDOF 0
ENDMDL
MODEL 3
REMARK VINA RESULT:      -6.9      8.391     10.646
REMARK  0 active torsions:
REMARK  status: ('A' for Active; 'I' for Inactive)
ROOT
HETATM    1 CL1  UNL     1      21.468   0.234  51.046  1.00  0.00    -0.079 Cl
HETATM    2  C1  UNL     1      20.859   1.826  51.395  1.00  0.00     0.273 A 
HETATM    3  C2  UNL     1      20.796   2.072  52.744  1.00  0.00     0.294 A 
HETATM    4  N1  UNL     1      21.465   3.183  52.188  1.00  0.00     0.023 N 
HETATM    5  C3  UNL     1      20.816   4.312  51.797  1.00  0.00     0.277 C 
HETATM    6  C4  UNL     1      19.955   4.052  50.537  1.00  0.00     0.014 C 
HETATM    7  C5  UNL     1      20.452   2.803  50.306  1.00  0.00     0.008 C 
HETATM    8  P1  UNL     1      20.894   2.233  48.611  1.00  0.00    -0.025 P 
HETATM    9  C6  UNL     1      22.151   2.976  47.701  1.00  0.00     0.024 C 
HETATM   10  C7  UNL     1      22.907   4.150  48.339  1.00  0.00     0.176 C 
HETATM   11  O1  UNL     1      22.008   5.190  48.087  1.00  0.00    -0.368 OA
HETATM   12  C8  UNL     1      22.844   6.183  47.359  1.00  0.00     0.262 C 
HETATM   13  C9  UNL     1      23.743   6.442  48.454  1.00  0.00    -0.079 C 
HETATM   14  C10 UNL     1      24.417   6.630  49.302  1.00  0.00    -0.085 C 
HETATM   15  C11 UNL     1      25.275   6.866  50.422  1.00  0.00     0.213 C 
HETATM   16  N2  UNL     1      24.279   6.943  51.573  1.00  0.00    -0.388 N 
HETATM   17  C12 UNL     1      23.650   5.646  51.683  1.00  0.00     0.097 C 
HETATM   18  C13 UNL     1      23.382   4.659  50.863  1.00  0.00     0.039 C 
HETATM   19  C14 UNL     1      22.708   3.638  51.719  1.00  0.00     0.244 C 
HETATM   20  N3  UNL     1      23.665   2.892  52.079  1.00  0.00    -0.217 NA
HETATM   21  C15 UNL     1      24.723   2.617  51.038  1.00  0.00     0.229 C 
HETATM   22  N4  UNL     1      24.650   3.134  49.801  1.00  0.00    -0.270 NA
HETATM   23  C16 UNL     1      23.302   3.826  49.655  1.00  0.00     0.180 C 
HETATM   24  H11 UNL     1      24.067   7.753  52.168  1.00  0.00     0.159 HD
ENDROOT
TORSDOF 0
ENDMDL
MODEL 4
REMARK VINA RESULT:      -6.6      9.045     11.234
REMARK  0 active torsions:
REMARK  status: ('A' for Active; 'I' for Inactive)
ROOT
HETATM    1 CL1  UNL     1      22.927   5.569  47.972  1.00  0.00    -0.079 Cl
HETATM    2  C1  UNL     1      22.620   5.755  49.674  1.00  0.00     0.273 A 
HETATM    3  C2  UNL     1      21.374   6.275  49.922  1.00  0.00     0.294 A 
HETATM    4  N1  UNL     1      21.479   5.139  50.751  1.00  0.00     0.023 N 
HETATM    5  C3  UNL     1      21.928   5.202  52.033  1.00  0.00     0.277 C 
HETATM    6  C4  UNL     1      23.443   5.522  52.078  1.00  0.00     0.014 C 
HETATM    7  C5  UNL     1      23.638   5.376  50.736  1.00  0.00     0.008 C 
HETATM    8  P1  UNL     1      25.101   4.486  50.058  1.00  0.00    -0.025 P 
HETATM    9  C6  UNL     1      25.361   2.811  50.347  1.00  0.00     0.024 C 
HETATM   10  C7  UNL     1      24.332   2.058  51.201  1.00  0.00     0.176 C 
HETATM   11  O1  UNL     1      24.759   2.420  52.482  1.00  0.00    -0.368 OA
HETATM   12  C8  UNL     1      24.976   1.106  53.145  1.00  0.00     0.262 C 
HETATM   13  C9  UNL     1      23.599   0.688  53.086  1.00  0.00    -0.079 C 
HETATM   14  C10 UNL     1      22.543   0.388  53.038  1.00  0.00    -0.085 C 
HETATM   15  C11 UNL     1      21.161   0.023  52.971  1.00  0.00     0.213 C 
HETATM   16  N2  UNL     1      20.471   1.322  53.369  1.00  0.00    -0.388 N 
HETATM   17  C12 UNL     1      20.784   2.302  52.353  1.00  0.00     0.097 C 
HETATM   18  C13 UNL     1      21.771   2.504  51.514  1.00  0.00     0.039 C 
HETATM   19  C14 UNL     1      21.379   3.738  50.770  1.00  0.00     0.244 C 
HETATM   20  N3  UNL     1      20.791   3.279  49.748  1.00  0.00    -0.217 NA
HETATM   21  C15 UNL     1      21.383   2.031  49.142  1.00  0.00     0.229 C 
HETATM   22  N4  UNL     1      22.474   1.442  49.660  1.00  0.00    -0.270 NA
HETATM   23  C16 UNL     1      23.021   2.341  50.759  1.00  0.00     0.180 C 
HETATM   24  H11 UNL     1      19.895   1.499  54.201  1.00  0.00     0.159 HD
ENDROOT
TORSDOF 0
ENDMDL
MODEL 5
REMARK VINA RESULT:      -6.6      9.106     11.711
REMARK  0 active torsions:
REMARK  status: ('A' for Active; 'I' for Inactive)
ROOT
HETATM    1 CL1  UNL     1      25.373   3.911  49.272  1.00  0.00    -0.079 Cl
HETATM    2  C1  UNL     1      24.338   4.552  50.514  1.00  0.00     0.273 A 
HETATM    3  C2  UNL     1      23.666   5.676  50.101  1.00  0.00     0.294 A 
HETATM    4  N1  UNL     1      22.682   4.831  50.656  1.00  0.00     0.023 N 
HETATM    5  C3  UNL     1      22.305   4.900  51.960  1.00  0.00     0.277 C 
HETATM    6  C4  UNL     1      23.433   4.397  52.894  1.00  0.00     0.014 C 
HETATM    7  C5  UNL     1      24.218   3.916  51.888  1.00  0.00     0.008 C 
HETATM    8  P1  UNL     1      25.073   2.290  52.016  1.00  0.00    -0.025 P 
HETATM    9  C6  UNL     1      24.202   0.812  52.134  1.00  0.00     0.024 C 
HETATM   10  C7  UNL     1      22.668   0.876  52.135  1.00  0.00     0.176 C 
HETATM   11  O1  UNL     1      22.434   1.205  53.473  1.00  0.00    -0.368 OA
HETATM   12  C8  UNL     1      21.521   0.123  53.928  1.00  0.00     0.262 C 
HETATM   13  C9  UNL     1      20.438   0.470  53.044  1.00  0.00    -0.079 C 
HETATM   14  C10 UNL     1      19.620   0.754  52.367  1.00  0.00    -0.085 C 
HETATM   15  C11 UNL     1      18.566   1.147  51.482  1.00  0.00     0.213 C 
HETATM   16  N2  UNL     1      18.583   2.664  51.623  1.00  0.00    -0.388 N 
HETATM   17  C12 UNL     1      19.859   3.126  51.125  1.00  0.00     0.097 C 
HETATM   18  C13 UNL     1      21.066   2.626  51.027  1.00  0.00     0.039 C 
HETATM   19  C14 UNL     1      21.870   3.715  50.396  1.00  0.00     0.244 C 
HETATM   20  N3  UNL     1      21.806   3.437  49.163  1.00  0.00    -0.217 NA
HETATM   21  C15 UNL     1      21.866   1.973  48.805  1.00  0.00     0.229 C 
HETATM   22  N4  UNL     1      21.982   1.020  49.744  1.00  0.00    -0.270 NA
HETATM   23  C16 UNL     1      22.208   1.701  51.086  1.00  0.00     0.180 C 
HETATM   24  H11 UNL     1      17.846   3.267  52.006  1.00  0.00     0.159 HD
ENDROOT
TORSDOF 0
ENDMDL
MODEL 6
REMARK VINA RESULT:      -6.4      3.215      5.115
REMARK  0 active torsions:
REMARK  status: ('A' for Active; 'I' for Inactive)
ROOT
HETATM    1 CL1  UNL     1      29.400  12.276  45.296  1.00  0.00    -0.079 Cl
HETATM    2  C1  UNL     1      29.581  11.828  46.967  1.00  0.00     0.273 A 
HETATM    3  C2  UNL     1      28.693  12.488  47.780  1.00  0.00     0.294 A 
HETATM    4  N1  UNL     1      28.578  11.126  48.125  1.00  0.00     0.023 N 
HETATM    5  C3  UNL     1      29.304  10.557  49.124  1.00  0.00     0.277 C 
HETATM    6  C4  UNL     1      30.800  10.455  48.738  1.00  0.00     0.014 C 
HETATM    7  C5  UNL     1      30.615  10.820  47.437  1.00  0.00     0.008 C 
HETATM    8  P1  UNL     1      31.470   9.954  46.054  1.00  0.00    -0.025 P 
HETATM    9  C6  UNL     1      31.180   8.296  45.702  1.00  0.00     0.024 C 
HETATM   10  C7  UNL     1      30.178   7.535  46.582  1.00  0.00     0.176 C 
HETATM   11  O1  UNL     1      30.990   7.236  47.679  1.00  0.00    -0.368 OA
HETATM   12  C8  UNL     1      30.876   5.756  47.785  1.00  0.00     0.262 C 
HETATM   13  C9  UNL     1      29.466   5.743  48.081  1.00  0.00    -0.079 C 
HETATM   14  C10 UNL     1      28.391   5.753  48.311  1.00  0.00    -0.085 C 
HETATM   15  C11 UNL     1      26.995   5.792  48.619  1.00  0.00     0.213 C 
HETATM   16  N2  UNL     1      26.920   6.945  49.612  1.00  0.00    -0.388 N 
HETATM   17  C12 UNL     1      27.316   8.144  48.907  1.00  0.00     0.097 C 
HETATM   18  C13 UNL     1      28.087   8.422  47.885  1.00  0.00     0.039 C 
HETATM   19  C14 UNL     1      27.997   9.905  47.743  1.00  0.00     0.244 C 
HETATM   20  N3  UNL     1      27.065  10.054  46.901  1.00  0.00    -0.217 NA
HETATM   21  C15 UNL     1      27.020   9.054  45.773  1.00  0.00     0.229 C 
HETATM   22  N4  UNL     1      27.921   8.062  45.670  1.00  0.00    -0.270 NA
HETATM   23  C16 UNL     1      28.988   8.280  46.732  1.00  0.00     0.180 C 
HETATM   24  H11 UNL     1      26.654   6.905  50.603  1.00  0.00     0.159 HD
ENDROOT
TORSDOF 0
ENDMDL
MODEL 7
REMARK VINA RESULT:      -6.1     10.632     12.545
REMARK  0 active torsions:
REMARK  status: ('A' for Active; 'I' for Inactive)
ROOT
HETATM    1 CL1  UNL     1      18.573   3.285  47.588  1.00  0.00    -0.079 Cl
HETATM    2  C1  UNL     1      18.459   2.889  49.279  1.00  0.00     0.273 A 
HETATM    3  C2  UNL     1      17.908   1.649  49.485  1.00  0.00     0.294 A 
HETATM    4  N1  UNL     1      19.086   1.671  50.260  1.00  0.00     0.023 N 
HETATM    5  C3  UNL     1      19.101   2.050  51.565  1.00  0.00     0.277 C 
HETATM    6  C4  UNL     1      18.839   3.569  51.708  1.00  0.00     0.014 C 
HETATM    7  C5  UNL     1      18.926   3.833  50.373  1.00  0.00     0.008 C 
HETATM    8  P1  UNL     1      19.833   5.302  49.731  1.00  0.00    -0.025 P 
HETATM    9  C6  UNL     1      21.529   5.490  49.949  1.00  0.00     0.024 C 
HETATM   10  C7  UNL     1      22.286   4.390  50.707  1.00  0.00     0.176 C 
HETATM   11  O1  UNL     1      22.002   4.757  52.025  1.00  0.00    -0.368 OA
HETATM   12  C8  UNL     1      23.354   4.894  52.632  1.00  0.00     0.262 C 
HETATM   13  C9  UNL     1      23.719   3.509  52.478  1.00  0.00    -0.079 C 
HETATM   14  C10 UNL     1      23.978   2.447  52.357  1.00  0.00    -0.085 C 
HETATM   15  C11 UNL     1      24.289   1.060  52.197  1.00  0.00     0.213 C 
HETATM   16  N2  UNL     1      22.987   0.392  52.622  1.00  0.00    -0.388 N 
HETATM   17  C12 UNL     1      21.971   0.794  51.676  1.00  0.00     0.097 C 
HETATM   18  C13 UNL     1      21.764   1.832  50.903  1.00  0.00     0.039 C 
HETATM   19  C14 UNL     1      20.482   1.524  50.202  1.00  0.00     0.244 C 
HETATM   20  N3  UNL     1      20.869   0.978  49.128  1.00  0.00    -0.217 NA
HETATM   21  C15 UNL     1      22.107   1.562  48.493  1.00  0.00     0.229 C 
HETATM   22  N4  UNL     1      22.758   2.602  49.038  1.00  0.00    -0.270 NA
HETATM   23  C16 UNL     1      21.935   3.116  50.210  1.00  0.00     0.180 C 
HETATM   24  H11 UNL     1      22.831  -0.222  53.430  1.00  0.00     0.159 HD
ENDROOT
TORSDOF 0
ENDMDL
MODEL 8
REMARK VINA RESULT:      -6.1      1.783      2.110
REMARK  0 active torsions:
REMARK  status: ('A' for Active; 'I' for Inactive)
ROOT
HETATM    1 CL1  UNL     1      33.917  10.297  47.137  1.00  0.00    -0.079 Cl
HETATM    2  C1  UNL     1      33.331   8.752  46.592  1.00  0.00     0.273 A 
HETATM    3  C2  UNL     1      33.920   7.709  47.262  1.00  0.00     0.294 A 
HETATM    4  N1  UNL     1      32.534   7.459  47.320  1.00  0.00     0.023 N 
HETATM    5  C3  UNL     1      31.884   6.700  46.397  1.00  0.00     0.277 C 
HETATM    6  C4  UNL     1      31.816   7.422  45.029  1.00  0.00     0.014 C 
HETATM    7  C5  UNL     1      32.288   8.613  45.497  1.00  0.00     0.008 C 
HETATM    8  P1  UNL     1      31.542  10.219  44.991  1.00  0.00    -0.025 P 
HETATM    9  C6  UNL     1      29.919  10.631  45.383  1.00  0.00     0.024 C 
HETATM   10  C7  UNL     1      29.086   9.612  46.174  1.00  0.00     0.176 C 
HETATM   11  O1  UNL     1      28.697   8.755  45.141  1.00  0.00    -0.368 OA
HETATM   12  C8  UNL     1      27.214   8.747  45.255  1.00  0.00     0.262 C 
HETATM   13  C9  UNL     1      27.175   8.141  46.562  1.00  0.00    -0.079 C 
HETATM   14  C10 UNL     1      27.165   7.674  47.556  1.00  0.00    -0.085 C 
HETATM   15  C11 UNL     1      27.176   7.056  48.847  1.00  0.00     0.213 C 
HETATM   16  N2  UNL     1      28.242   5.981  48.674  1.00  0.00    -0.388 N 
HETATM   17  C12 UNL     1      29.496   6.657  48.427  1.00  0.00     0.097 C 
HETATM   18  C13 UNL     1      29.859   7.801  47.901  1.00  0.00     0.039 C 
HETATM   19  C14 UNL     1      31.349   7.797  47.994  1.00  0.00     0.244 C 
HETATM   20  N3  UNL     1      31.567   8.392  49.090  1.00  0.00    -0.217 NA
HETATM   21  C15 UNL     1      30.664   9.559  49.406  1.00  0.00     0.229 C 
HETATM   22  N4  UNL     1      29.685   9.943  48.569  1.00  0.00    -0.270 NA
HETATM   23  C16 UNL     1      29.815   9.136  47.286  1.00  0.00     0.180 C 
HETATM   24  H11 UNL     1      28.119   4.963  48.711  1.00  0.00     0.159 HD
ENDROOT
TORSDOF 0
ENDMDL
MODEL 9
REMARK VINA RESULT:      -6.0      7.867     10.682
REMARK  0 active torsions:
REMARK  status: ('A' for Active; 'I' for Inactive)
ROOT
HETATM    1 CL1  UNL     1      19.448   1.731  49.357  1.00  0.00    -0.079 Cl
HETATM    2  C1  UNL     1      20.711   1.688  50.552  1.00  0.00     0.273 A 
HETATM    3  C2  UNL     1      21.391   0.495  50.545  1.00  0.00     0.294 A 
HETATM    4  N1  UNL     1      22.385   1.495  50.507  1.00  0.00     0.023 N 
HETATM    5  C3  UNL     1      22.967   1.996  51.629  1.00  0.00     0.277 C 
HETATM    6  C4  UNL     1      21.967   2.854  52.442  1.00  0.00     0.014 C 
HETATM    7  C5  UNL     1      20.999   2.854  51.481  1.00  0.00     0.008 C 
HETATM    8  P1  UNL     1      20.057   4.378  51.053  1.00  0.00    -0.025 P 
HETATM    9  C6  UNL     1      20.824   5.761  50.377  1.00  0.00     0.024 C 
HETATM   10  C7  UNL     1      22.339   5.702  50.138  1.00  0.00     0.176 C 
HETATM   11  O1  UNL     1      22.805   5.981  51.425  1.00  0.00    -0.368 OA
HETATM   12  C8  UNL     1      23.696   7.153  51.210  1.00  0.00     0.262 C 
HETATM   13  C9  UNL     1      24.649   6.457  50.384  1.00  0.00    -0.079 C 
HETATM   14  C10 UNL     1      25.368   5.908  49.760  1.00  0.00    -0.085 C 
HETATM   15  C11 UNL     1      26.295   5.170  48.957  1.00  0.00     0.213 C 
HETATM   16  N2  UNL     1      26.413   3.863  49.731  1.00  0.00    -0.388 N 
HETATM   17  C12 UNL     1      25.112   3.232  49.708  1.00  0.00     0.097 C 
HETATM   18  C13 UNL     1      23.871   3.643  49.618  1.00  0.00     0.039 C 
HETATM   19  C14 UNL     1      23.061   2.389  49.660  1.00  0.00     0.244 C 
HETATM   20  N3  UNL     1      22.909   2.107  48.436  1.00  0.00    -0.217 NA
HETATM   21  C15 UNL     1      22.684   3.274  47.507  1.00  0.00     0.229 C 
HETATM   22  N4  UNL     1      22.647   4.540  47.956  1.00  0.00    -0.270 NA
HETATM   23  C16 UNL     1      22.688   4.504  49.477  1.00  0.00     0.180 C 
HETATM   24  H11 UNL     1      27.244   3.483  50.199  1.00  0.00     0.159 HD
ENDROOT
TORSDOF 0
ENDMDL
