MODEL 1
REMARK VINA RESULT:      -7.3      0.000      0.000
REMARK  5 active torsions:
REMARK  status: ('A' for Active; 'I' for Inactive)
REMARK    1  A    between atoms: C4_4  and  C5_5 
REMARK    2  A    between atoms: C5_5  and  N1_6 
REMARK    3  A    between atoms: N1_6  and  C6_7 
REMARK    4  A    between atoms: C9_12  and  N4_13 
REMARK    5  A    between atoms: N4_13  and  C10_14 
ROOT
HETATM    1  C1  UNL     1      23.613   5.057  48.943  1.00  0.00     0.017 C 
HETATM    2  C2  UNL     1      24.836   5.030  48.995  1.00  0.00    -0.090 C 
HETATM    3  C3  UNL     1      26.264   4.992  49.062  1.00  0.00     0.061 C 
HETATM    4  C4  UNL     1      26.939   4.033  49.673  1.00  0.00     0.001 C 
ENDROOT
BRANCH   4   5
HETATM    5  C5  UNL     1      26.521   2.816  50.410  1.00  0.00     0.148 C 
BRANCH   5   6
HETATM    6  N1  UNL     1      26.766   2.874  51.827  1.00  0.00    -0.382 N 
HETATM    7  H6  UNL     1      26.432   3.738  52.355  1.00  0.00     0.160 HD
BRANCH   6   8
HETATM    8  C6  UNL     1      27.379   2.005  52.731  1.00  0.00     0.092 A 
HETATM    9  C7  UNL     1      28.414   2.518  53.484  1.00  0.00     0.151 A 
HETATM   10  N2  UNL     1      29.092   1.776  54.401  1.00  0.00    -0.252 NA
HETATM   11  C8  UNL     1      28.772   0.480  54.617  1.00  0.00     0.235 A 
HETATM   12  N3  UNL     1      27.767  -0.032  53.892  1.00  0.00    -0.222 NA
HETATM   13  C9  UNL     1      27.091   0.681  52.988  1.00  0.00     0.157 A 
BRANCH  13  14
HETATM   14  N4  UNL     1      26.008   0.136  52.203  1.00  0.00    -0.339 N 
HETATM   15  H9  UNL     1      26.077  -0.282  51.241  1.00  0.00     0.167 HD
BRANCH  14  16
HETATM   16  C10 UNL     1      24.696   0.161  52.780  1.00  0.00     0.035 A 
HETATM   17  C11 UNL     1      24.315  -0.693  53.810  1.00  0.00     0.029 A 
HETATM   18  C12 UNL     1      23.035  -0.642  54.348  1.00  0.00     0.004 A 
HETATM   19  C13 UNL     1      22.124   0.270  53.853  1.00  0.00     0.019 A 
HETATM   20  C14 UNL     1      22.450   1.139  52.832  1.00  0.00     0.013 A 
HETATM   21 BR1  UNL     1      21.251   2.421  52.100  1.00  0.00    -0.051 Br
HETATM   22  C15 UNL     1      23.734   1.034  52.348  1.00  0.00     0.048 A 
ENDBRANCH  14  16
ENDBRANCH  13  14
ENDBRANCH   6   8
ENDBRANCH   5   6
ENDBRANCH   4   5
TORSDOF 5
ENDMDL
MODEL 2
REMARK VINA RESULT:      -6.9      1.745      4.627
REMARK  5 active torsions:
REMARK  status: ('A' for Active; 'I' for Inactive)
REMARK    1  A    between atoms: C4_4  and  C5_5 
REMARK    2  A    between atoms: C5_5  and  N1_6 
REMARK    3  A    between atoms: N1_6  and  C6_7 
REMARK    4  A    between atoms: C9_12  and  N4_13 
REMARK    5  A    between atoms: N4_13  and  C10_14 
ROOT
HETATM    1  C1  UNL     1      21.414   0.611  50.283  1.00  0.00     0.017 C 
HETATM    2  C2  UNL     1      21.267   0.709  51.494  1.00  0.00    -0.090 C 
HETATM    3  C3  UNL     1      21.101   0.816  52.912  1.00  0.00     0.061 C 
HETATM    4  C4  UNL     1      21.909   0.238  53.784  1.00  0.00     0.001 C 
ENDROOT
BRANCH   4   5
HETATM    5  C5  UNL     1      23.114  -0.613  53.636  1.00  0.00     0.148 C 
BRANCH   5   6
HETATM    6  N1  UNL     1      24.249   0.069  53.071  1.00  0.00    -0.382 N 
HETATM    7  H6  UNL     1      24.145   0.483  52.093  1.00  0.00     0.160 HD
BRANCH   6   8
HETATM    8  C6  UNL     1      25.538   0.334  53.536  1.00  0.00     0.092 A 
HETATM    9  C7  UNL     1      26.307  -0.755  53.890  1.00  0.00     0.151 A 
HETATM   10  N2  UNL     1      27.580  -0.633  54.354  1.00  0.00    -0.252 NA
HETATM   11  C8  UNL     1      28.155   0.584  54.490  1.00  0.00     0.235 A 
HETATM   12  N3  UNL     1      27.418   1.651  54.149  1.00  0.00    -0.222 NA
HETATM   13  C9  UNL     1      26.168   1.550  53.692  1.00  0.00     0.157 A 
BRANCH  13  14
HETATM   14  N4  UNL     1      25.368   2.695  53.324  1.00  0.00    -0.339 N 
HETATM   15  H9  UNL     1      24.851   3.337  53.976  1.00  0.00     0.167 HD
BRANCH  14  16
HETATM   16  C10 UNL     1      25.256   3.001  51.927  1.00  0.00     0.035 A 
HETATM   17  C11 UNL     1      26.331   2.896  51.050  1.00  0.00     0.029 A 
HETATM   18  C12 UNL     1      26.187   3.200  49.701  1.00  0.00     0.004 A 
HETATM   19  C13 UNL     1      24.960   3.614  49.223  1.00  0.00     0.019 A 
HETATM   20  C14 UNL     1      23.863   3.736  50.050  1.00  0.00     0.013 A 
HETATM   21 BR1  UNL     1      22.144   4.300  49.465  1.00  0.00    -0.051 Br
HETATM   22  C15 UNL     1      24.076   3.419  51.373  1.00  0.00     0.048 A 
ENDBRANCH  14  16
ENDBRANCH  13  14
ENDBRANCH   6   8
ENDBRANCH   5   6
ENDBRANCH   4   5
TORSDOF 5
ENDMDL
MODEL 3
REMARK VINA RESULT:      -6.9      1.713      2.141
REMARK  5 active torsions:
REMARK  status: ('A' for Active; 'I' for Inactive)
REMARK    1  A    between atoms: C4_4  and  C5_5 
REMARK    2  A    between atoms: C5_5  and  N1_6 
REMARK    3  A    between atoms: N1_6  and  C6_7 
REMARK    4  A    between atoms: C9_12  and  N4_13 
REMARK    5  A    between atoms: N4_13  and  C10_14 
ROOT
HETATM    1  C1  UNL     1      23.557   5.516  48.744  1.00  0.00     0.017 C 
HETATM    2  C2  UNL     1      24.778   5.456  48.788  1.00  0.00    -0.090 C 
HETATM    3  C3  UNL     1      26.206   5.379  48.845  1.00  0.00     0.061 C 
HETATM    4  C4  UNL     1      26.859   4.372  49.401  1.00  0.00     0.001 C 
ENDROOT
BRANCH   4   5
HETATM    5  C5  UNL     1      26.413   3.128  50.074  1.00  0.00     0.148 C 
BRANCH   5   6
HETATM    6  N1  UNL     1      26.729   3.074  51.477  1.00  0.00    -0.382 N 
HETATM    7  H6  UNL     1      27.116   3.957  51.934  1.00  0.00     0.160 HD
BRANCH   6   8
HETATM    8  C6  UNL     1      26.642   2.069  52.442  1.00  0.00     0.092 A 
HETATM    9  C7  UNL     1      27.795   1.360  52.708  1.00  0.00     0.151 A 
HETATM   10  N2  UNL     1      27.844   0.359  53.627  1.00  0.00    -0.252 NA
HETATM   11  C8  UNL     1      26.744   0.011  54.333  1.00  0.00     0.235 A 
HETATM   12  N3  UNL     1      25.617   0.693  54.085  1.00  0.00    -0.222 NA
HETATM   13  C9  UNL     1      25.550   1.677  53.186  1.00  0.00     0.157 A 
BRANCH  13  14
HETATM   14  N4  UNL     1      24.338   2.416  52.913  1.00  0.00    -0.339 N 
HETATM   15  H9  UNL     1      24.111   3.390  53.235  1.00  0.00     0.167 HD
BRANCH  14  16
HETATM   16  C10 UNL     1      23.332   1.767  52.125  1.00  0.00     0.035 A 
HETATM   17  C11 UNL     1      22.465   0.816  52.655  1.00  0.00     0.029 A 
HETATM   18  C12 UNL     1      21.499   0.207  51.862  1.00  0.00     0.004 A 
HETATM   19  C13 UNL     1      21.398   0.547  50.528  1.00  0.00     0.019 A 
HETATM   20  C14 UNL     1      22.233   1.483  49.953  1.00  0.00     0.013 A 
HETATM   21 BR1  UNL     1      22.154   2.003  48.126  1.00  0.00    -0.051 Br
HETATM   22  C15 UNL     1      23.165   2.047  50.796  1.00  0.00     0.048 A 
ENDBRANCH  14  16
ENDBRANCH  13  14
ENDBRANCH   6   8
ENDBRANCH   5   6
ENDBRANCH   4   5
TORSDOF 5
ENDMDL
MODEL 4
REMARK VINA RESULT:      -6.9      2.410      5.123
REMARK  5 active torsions:
REMARK  status: ('A' for Active; 'I' for Inactive)
REMARK    1  A    between atoms: C4_4  and  C5_5 
REMARK    2  A    between atoms: C5_5  and  N1_6 
REMARK    3  A    between atoms: N1_6  and  C6_7 
REMARK    4  A    between atoms: C9_12  and  N4_13 
REMARK    5  A    between atoms: N4_13  and  C10_14 
ROOT
HETATM    1  C1  UNL     1      27.067   2.416  51.769  1.00  0.00     0.017 C 
HETATM    2  C2  UNL     1      27.617   1.619  52.516  1.00  0.00    -0.090 C 
HETATM    3  C3  UNL     1      28.255   0.688  53.397  1.00  0.00     0.061 C 
HETATM    4  C4  UNL     1      27.663   0.168  54.459  1.00  0.00     0.001 C 
ENDROOT
BRANCH   4   5
HETATM    5  C5  UNL     1      26.311   0.337  55.045  1.00  0.00     0.148 C 
BRANCH   5   6
HETATM    6  N1  UNL     1      25.433  -0.782  54.826  1.00  0.00    -0.382 N 
HETATM    7  H6  UNL     1      25.850  -1.762  54.886  1.00  0.00     0.160 HD
BRANCH   6   8
HETATM    8  C6  UNL     1      24.072  -0.890  54.534  1.00  0.00     0.092 A 
HETATM    9  C7  UNL     1      23.284  -1.531  55.467  1.00  0.00     0.151 A 
HETATM   10  N2  UNL     1      21.944  -1.698  55.304  1.00  0.00    -0.252 NA
HETATM   11  C8  UNL     1      21.317  -1.235  54.199  1.00  0.00     0.235 A 
HETATM   12  N3  UNL     1      22.071  -0.609  53.284  1.00  0.00    -0.222 NA
HETATM   13  C9  UNL     1      23.387  -0.436  53.427  1.00  0.00     0.157 A 
BRANCH  13  14
HETATM   14  N4  UNL     1      24.206   0.237  52.445  1.00  0.00    -0.339 N 
HETATM   15  H9  UNL     1      25.061  -0.148  51.970  1.00  0.00     0.167 HD
BRANCH  14  16
HETATM   16  C10 UNL     1      23.827   1.567  52.068  1.00  0.00     0.035 A 
HETATM   17  C11 UNL     1      23.793   2.621  52.976  1.00  0.00     0.029 A 
HETATM   18  C12 UNL     1      23.422   3.899  52.576  1.00  0.00     0.004 A 
HETATM   19  C13 UNL     1      23.080   4.129  51.259  1.00  0.00     0.019 A 
HETATM   20  C14 UNL     1      23.096   3.120  50.319  1.00  0.00     0.013 A 
HETATM   21 BR1  UNL     1      22.639   3.360  48.489  1.00  0.00    -0.051 Br
HETATM   22  C15 UNL     1      23.474   1.880  50.783  1.00  0.00     0.048 A 
ENDBRANCH  14  16
ENDBRANCH  13  14
ENDBRANCH   6   8
ENDBRANCH   5   6
ENDBRANCH   4   5
TORSDOF 5
ENDMDL
MODEL 5
REMARK VINA RESULT:      -6.7      2.774      5.267
REMARK  5 active torsions:
REMARK  status: ('A' for Active; 'I' for Inactive)
REMARK    1  A    between atoms: C4_4  and  C5_5 
REMARK    2  A    between atoms: C5_5  and  N1_6 
REMARK    3  A    between atoms: N1_6  and  C6_7 
REMARK    4  A    between atoms: C9_12  and  N4_13 
REMARK    5  A    between atoms: N4_13  and  C10_14 
ROOT
HETATM    1  C1  UNL     1      29.046  -0.003  54.258  1.00  0.00     0.017 C 
HETATM    2  C2  UNL     1      28.172  -0.319  53.463  1.00  0.00    -0.090 C 
HETATM    3  C3  UNL     1      27.146  -0.681  52.534  1.00  0.00     0.061 C 
HETATM    4  C4  UNL     1      26.273   0.181  52.041  1.00  0.00     0.001 C 
ENDROOT
BRANCH   4   5
HETATM    5  C5  UNL     1      26.066   1.635  52.243  1.00  0.00     0.148 C 
BRANCH   5   6
HETATM    6  N1  UNL     1      25.146   2.233  51.312  1.00  0.00    -0.382 N 
HETATM    7  H6  UNL     1      25.329   2.090  50.271  1.00  0.00     0.160 HD
BRANCH   6   8
HETATM    8  C6  UNL     1      23.993   3.005  51.464  1.00  0.00     0.092 A 
HETATM    9  C7  UNL     1      24.172   4.358  51.664  1.00  0.00     0.151 A 
HETATM   10  N2  UNL     1      23.132   5.219  51.824  1.00  0.00    -0.252 NA
HETATM   11  C8  UNL     1      21.854   4.777  51.791  1.00  0.00     0.235 A 
HETATM   12  N3  UNL     1      21.666   3.464  51.597  1.00  0.00    -0.222 NA
HETATM   13  C9  UNL     1      22.674   2.604  51.439  1.00  0.00     0.157 A 
BRANCH  13  14
HETATM   14  N4  UNL     1      22.478   1.188  51.230  1.00  0.00    -0.339 N 
HETATM   15  H9  UNL     1      22.606   0.662  50.328  1.00  0.00     0.167 HD
BRANCH  14  16
HETATM   16  C10 UNL     1      22.066   0.404  52.357  1.00  0.00     0.035 A 
HETATM   17  C11 UNL     1      20.740   0.044  52.573  1.00  0.00     0.029 A 
HETATM   18  C12 UNL     1      20.375  -0.718  53.677  1.00  0.00     0.004 A 
HETATM   19  C13 UNL     1      21.342  -1.124  54.574  1.00  0.00     0.019 A 
HETATM   20  C14 UNL     1      22.671  -0.795  54.407  1.00  0.00     0.013 A 
HETATM   21 BR1  UNL     1      24.057  -1.318  55.599  1.00  0.00    -0.051 Br
HETATM   22  C15 UNL     1      22.961  -0.040  53.293  1.00  0.00     0.048 A 
ENDBRANCH  14  16
ENDBRANCH  13  14
ENDBRANCH   6   8
ENDBRANCH   5   6
ENDBRANCH   4   5
TORSDOF 5
ENDMDL
MODEL 6
REMARK VINA RESULT:      -6.7      2.440      5.940
REMARK  5 active torsions:
REMARK  status: ('A' for Active; 'I' for Inactive)
REMARK    1  A    between atoms: C4_4  and  C5_5 
REMARK    2  A    between atoms: C5_5  and  N1_6 
REMARK    3  A    between atoms: N1_6  and  C6_7 
REMARK    4  A    between atoms: C9_12  and  N4_13 
REMARK    5  A    between atoms: N4_13  and  C10_14 
ROOT
HETATM    1  C1  UNL     1      20.842   0.091  54.321  1.00  0.00     0.017 C 
HETATM    2  C2  UNL     1      21.396   0.242  53.240  1.00  0.00    -0.090 C 
HETATM    3  C3  UNL     1      22.042   0.427  51.977  1.00  0.00     0.061 C 
HETATM    4  C4  UNL     1      22.481   1.598  51.549  1.00  0.00     0.001 C 
ENDROOT
BRANCH   4   5
HETATM    5  C5  UNL     1      22.466   2.959  52.138  1.00  0.00     0.148 C 
BRANCH   5   6
HETATM    6  N1  UNL     1      23.773   3.535  52.317  1.00  0.00    -0.382 N 
HETATM    7  H6  UNL     1      23.844   4.597  52.381  1.00  0.00     0.160 HD
BRANCH   6   8
HETATM    8  C6  UNL     1      25.053   2.992  52.435  1.00  0.00     0.092 A 
HETATM    9  C7  UNL     1      25.450   2.602  53.697  1.00  0.00     0.151 A 
HETATM   10  N2  UNL     1      26.670   2.055  53.946  1.00  0.00    -0.252 NA
HETATM   11  C8  UNL     1      27.562   1.867  52.946  1.00  0.00     0.235 A 
HETATM   12  N3  UNL     1      27.189   2.241  51.714  1.00  0.00    -0.222 NA
HETATM   13  C9  UNL     1      25.996   2.780  51.452  1.00  0.00     0.157 A 
BRANCH  13  14
HETATM   14  N4  UNL     1      25.587   3.185  50.127  1.00  0.00    -0.339 N 
HETATM   15  H9  UNL     1      24.921   2.678  49.492  1.00  0.00     0.167 HD
BRANCH  14  16
HETATM   16  C10 UNL     1      26.140   4.403  49.609  1.00  0.00     0.035 A 
HETATM   17  C11 UNL     1      27.309   4.432  48.855  1.00  0.00     0.029 A 
HETATM   18  C12 UNL     1      27.817   5.631  48.367  1.00  0.00     0.004 A 
HETATM   19  C13 UNL     1      27.153   6.811  48.634  1.00  0.00     0.019 A 
HETATM   20  C14 UNL     1      25.990   6.838  49.377  1.00  0.00     0.013 A 
HETATM   21 BR1  UNL     1      25.022   8.422  49.785  1.00  0.00    -0.051 Br
HETATM   22  C15 UNL     1      25.544   5.616  49.828  1.00  0.00     0.048 A 
ENDBRANCH  14  16
ENDBRANCH  13  14
ENDBRANCH   6   8
ENDBRANCH   5   6
ENDBRANCH   4   5
TORSDOF 5
ENDMDL
MODEL 7
REMARK VINA RESULT:      -6.7      2.306      5.282
REMARK  5 active torsions:
REMARK  status: ('A' for Active; 'I' for Inactive)
REMARK    1  A    between atoms: C4_4  and  C5_5 
REMARK    2  A    between atoms: C5_5  and  N1_6 
REMARK    3  A    between atoms: N1_6  and  C6_7 
REMARK    4  A    between atoms: C9_12  and  N4_13 
REMARK    5  A    between atoms: N4_13  and  C10_14 
ROOT
HETATM    1  C1  UNL     1      29.546  -0.910  53.731  1.00  0.00     0.017 C 
HETATM    2  C2  UNL     1      29.410   0.282  53.974  1.00  0.00    -0.090 C 
HETATM    3  C3  UNL     1      29.247   1.676  54.251  1.00  0.00     0.061 C 
HETATM    4  C4  UNL     1      28.408   2.456  53.590  1.00  0.00     0.001 C 
ENDROOT
BRANCH   4   5
HETATM    5  C5  UNL     1      27.462   2.206  52.476  1.00  0.00     0.148 C 
BRANCH   5   6
HETATM    6  N1  UNL     1      26.077   2.360  52.836  1.00  0.00    -0.382 N 
HETATM    7  H6  UNL     1      25.686   3.351  52.897  1.00  0.00     0.160 HD
BRANCH   6   8
HETATM    8  C6  UNL     1      25.060   1.456  53.143  1.00  0.00     0.092 A 
HETATM    9  C7  UNL     1      25.448   0.220  53.618  1.00  0.00     0.151 A 
HETATM   10  N2  UNL     1      24.555  -0.749  53.957  1.00  0.00    -0.252 NA
HETATM   11  C8  UNL     1      23.224  -0.537  53.839  1.00  0.00     0.235 A 
HETATM   12  N3  UNL     1      22.833   0.660  53.379  1.00  0.00    -0.222 NA
HETATM   13  C9  UNL     1      23.695   1.622  53.042  1.00  0.00     0.157 A 
BRANCH  13  14
HETATM   14  N4  UNL     1      23.280   2.914  52.545  1.00  0.00    -0.339 N 
HETATM   15  H9  UNL     1      23.060   3.767  53.118  1.00  0.00     0.167 HD
BRANCH  14  16
HETATM   16  C10 UNL     1      23.150   3.065  51.125  1.00  0.00     0.035 A 
HETATM   17  C11 UNL     1      22.597   2.078  50.315  1.00  0.00     0.029 A 
HETATM   18  C12 UNL     1      22.485   2.258  48.942  1.00  0.00     0.004 A 
HETATM   19  C13 UNL     1      22.929   3.433  48.369  1.00  0.00     0.019 A 
HETATM   20  C14 UNL     1      23.486   4.443  49.126  1.00  0.00     0.013 A 
HETATM   21 BR1  UNL     1      24.120   6.086  48.410  1.00  0.00    -0.051 Br
HETATM   22  C15 UNL     1      23.566   4.198  50.479  1.00  0.00     0.048 A 
ENDBRANCH  14  16
ENDBRANCH  13  14
ENDBRANCH   6   8
ENDBRANCH   5   6
ENDBRANCH   4   5
TORSDOF 5
ENDMDL
MODEL 8
REMARK VINA RESULT:      -6.4      3.018      5.119
REMARK  5 active torsions:
REMARK  status: ('A' for Active; 'I' for Inactive)
REMARK    1  A    between atoms: C4_4  and  C5_5 
REMARK    2  A    between atoms: C5_5  and  N1_6 
REMARK    3  A    between atoms: N1_6  and  C6_7 
REMARK    4  A    between atoms: C9_12  and  N4_13 
REMARK    5  A    between atoms: N4_13  and  C10_14 
ROOT
HETATM    1  C1  UNL     1      27.661   6.809  48.241  1.00  0.00     0.017 C 
HETATM    2  C2  UNL     1      27.473   5.651  48.588  1.00  0.00    -0.090 C 
HETATM    3  C3  UNL     1      27.244   4.299  48.997  1.00  0.00     0.061 C 
HETATM    4  C4  UNL     1      26.051   3.827  49.316  1.00  0.00     0.001 C 
ENDROOT
BRANCH   4   5
HETATM    5  C5  UNL     1      24.701   4.440  49.360  1.00  0.00     0.148 C 
BRANCH   5   6
HETATM    6  N1  UNL     1      23.649   3.520  49.703  1.00  0.00    -0.382 N 
HETATM    7  H6  UNL     1      23.762   2.502  49.405  1.00  0.00     0.160 HD
BRANCH   6   8
HETATM    8  C6  UNL     1      22.436   3.658  50.379  1.00  0.00     0.092 A 
HETATM    9  C7  UNL     1      21.309   3.837  49.605  1.00  0.00     0.151 A 
HETATM   10  N2  UNL     1      20.067   3.981  50.140  1.00  0.00    -0.252 NA
HETATM   11  C8  UNL     1      19.882   3.954  51.480  1.00  0.00     0.235 A 
HETATM   12  N3  UNL     1      20.970   3.781  52.244  1.00  0.00    -0.222 NA
HETATM   13  C9  UNL     1      22.196   3.638  51.736  1.00  0.00     0.157 A 
BRANCH  13  14
HETATM   14  N4  UNL     1      23.372   3.452  52.554  1.00  0.00    -0.339 N 
HETATM   15  H9  UNL     1      23.957   4.206  52.996  1.00  0.00     0.167 HD
BRANCH  14  16
HETATM   16  C10 UNL     1      23.801   2.105  52.798  1.00  0.00     0.035 A 
HETATM   17  C11 UNL     1      25.121   1.699  52.629  1.00  0.00     0.029 A 
HETATM   18  C12 UNL     1      25.503   0.385  52.874  1.00  0.00     0.004 A 
HETATM   19  C13 UNL     1      24.559  -0.532  53.292  1.00  0.00     0.019 A 
HETATM   20  C14 UNL     1      23.238  -0.181  53.474  1.00  0.00     0.013 A 
HETATM   21 BR1  UNL     1      21.884  -1.388  54.046  1.00  0.00    -0.051 Br
HETATM   22  C15 UNL     1      22.930   1.135  53.213  1.00  0.00     0.048 A 
ENDBRANCH  14  16
ENDBRANCH  13  14
ENDBRANCH   6   8
ENDBRANCH   5   6
ENDBRANCH   4   5
TORSDOF 5
ENDMDL
MODEL 9
REMARK VINA RESULT:      -6.3      2.868      5.176
REMARK  5 active torsions:
REMARK  status: ('A' for Active; 'I' for Inactive)
REMARK    1  A    between atoms: C4_4  and  C5_5 
REMARK    2  A    between atoms: C5_5  and  N1_6 
REMARK    3  A    between atoms: N1_6  and  C6_7 
REMARK    4  A    between atoms: C9_12  and  N4_13 
REMARK    5  A    between atoms: N4_13  and  C10_14 
ROOT
HETATM    1  C1  UNL     1      22.132   4.931  47.226  1.00  0.00     0.017 C 
HETATM    2  C2  UNL     1      22.422   3.826  47.664  1.00  0.00    -0.090 C 
HETATM    3  C3  UNL     1      22.758   2.536  48.183  1.00  0.00     0.061 C 
HETATM    4  C4  UNL     1      22.166   1.999  49.236  1.00  0.00     0.001 C 
ENDROOT
BRANCH   4   5
HETATM    5  C5  UNL     1      21.087   2.471  50.139  1.00  0.00     0.148 C 
BRANCH   5   6
HETATM    6  N1  UNL     1      21.327   2.200  51.532  1.00  0.00    -0.382 N 
HETATM    7  H6  UNL     1      20.710   2.693  52.248  1.00  0.00     0.160 HD
BRANCH   6   8
HETATM    8  C6  UNL     1      22.241   1.390  52.208  1.00  0.00     0.092 A 
HETATM    9  C7  UNL     1      21.909   0.059  52.345  1.00  0.00     0.151 A 
HETATM   10  N2  UNL     1      22.714  -0.836  52.980  1.00  0.00    -0.252 NA
HETATM   11  C8  UNL     1      23.896  -0.450  53.512  1.00  0.00     0.235 A 
HETATM   12  N3  UNL     1      24.231   0.842  53.385  1.00  0.00    -0.222 NA
HETATM   13  C9  UNL     1      23.454   1.734  52.767  1.00  0.00     0.157 A 
BRANCH  13  14
HETATM   14  N4  UNL     1      23.808   3.127  52.627  1.00  0.00    -0.339 N 
HETATM   15  H9  UNL     1      23.540   3.912  53.272  1.00  0.00     0.167 HD
BRANCH  14  16
HETATM   16  C10 UNL     1      24.607   3.496  51.494  1.00  0.00     0.035 A 
HETATM   17  C11 UNL     1      25.601   2.669  50.979  1.00  0.00     0.029 A 
HETATM   18  C12 UNL     1      26.356   3.057  49.879  1.00  0.00     0.004 A 
HETATM   19  C13 UNL     1      26.121   4.282  49.288  1.00  0.00     0.019 A 
HETATM   20  C14 UNL     1      25.149   5.139  49.759  1.00  0.00     0.013 A 
HETATM   21 BR1  UNL     1      24.767   6.839  48.998  1.00  0.00    -0.051 Br
HETATM   22  C15 UNL     1      24.438   4.691  50.850  1.00  0.00     0.048 A 
ENDBRANCH  14  16
ENDBRANCH  13  14
ENDBRANCH   6   8
ENDBRANCH   5   6
ENDBRANCH   4   5
TORSDOF 5
ENDMDL
