MODEL 1
REMARK VINA RESULT:      -7.7      0.000      0.000
REMARK  2 active torsions:
REMARK  status: ('A' for Active; 'I' for Inactive)
REMARK    1  A    between atoms: O1_2  and  C2_3 
REMARK    2  A    between atoms: N2_12  and  C10_13 
ROOT
HETATM    1  C2  UNL     1      27.275   1.991  53.559  1.00  0.00     0.065 C 
HETATM    2  C3  UNL     1      27.698   0.860  52.963  1.00  0.00     0.010 C 
HETATM    3  C4  UNL     1      26.686   0.115  52.200  1.00  0.00     0.036 C 
HETATM    4  C5  UNL     1      26.252  -1.157  52.851  1.00  0.00     0.016 C 
HETATM    5  C6  UNL     1      25.004  -1.306  53.345  1.00  0.00     0.234 C 
HETATM    6  N1  UNL     1      23.783  -0.628  53.506  1.00  0.00    -0.313 NA
HETATM    7  C7  UNL     1      22.769  -1.207  54.005  1.00  0.00     0.050 C 
HETATM    8  C8  UNL     1      22.231   0.121  53.751  1.00  0.00     0.028 C 
HETATM    9  C9  UNL     1      22.615   1.276  53.260  1.00  0.00     0.097 C 
HETATM   10  N2  UNL     1      23.616   2.128  52.667  1.00  0.00    -0.333 N 
HETATM   11  C17 UNL     1      24.746   2.707  53.327  1.00  0.00     0.099 C 
HETATM   12  C18 UNL     1      26.018   2.701  53.663  1.00  0.00     0.054 C 
ENDROOT
BRANCH  10  13
HETATM   13  C10 UNL     1      23.509   2.435  51.259  1.00  0.00     0.038 A 
HETATM   14  C11 UNL     1      24.332   3.305  50.613  1.00  0.00     0.030 A 
HETATM   15  C12 UNL     1      24.178   3.557  49.264  1.00  0.00     0.003 A 
HETATM   16  C13 UNL     1      23.186   2.932  48.544  1.00  0.00     0.007 A 
HETATM   17  C14 UNL     1      22.336   2.051  49.147  1.00  0.00    -0.060 A 
HETATM   18  C15 UNL     1      21.228   1.309  48.498  1.00  0.00     0.048 C 
HETATM   19  C16 UNL     1      22.514   1.818  50.495  1.00  0.00     0.036 A 
ENDBRANCH  10  13
BRANCH   1  20
HETATM   20  O1  UNL     1      28.372   2.535  54.212  1.00  0.00    -0.356 OA
HETATM   21  C1  UNL     1      29.420   1.628  54.574  1.00  0.00     0.210 C 
ENDBRANCH   1  20
TORSDOF 2
ENDMDL
MODEL 2
REMARK VINA RESULT:      -7.4      2.490      5.052
REMARK  2 active torsions:
REMARK  status: ('A' for Active; 'I' for Inactive)
REMARK    1  A    between atoms: O1_2  and  C2_3 
REMARK    2  A    between atoms: N2_12  and  C10_13 
ROOT
HETATM    1  C2  UNL     1      23.687   5.409  50.418  1.00  0.00     0.065 C 
HETATM    2  C3  UNL     1      24.241   4.864  49.317  1.00  0.00     0.010 C 
HETATM    3  C4  UNL     1      24.691   3.471  49.443  1.00  0.00     0.036 C 
HETATM    4  C5  UNL     1      26.176   3.316  49.479  1.00  0.00     0.016 C 
HETATM    5  C6  UNL     1      26.815   2.907  50.597  1.00  0.00     0.234 C 
HETATM    6  N1  UNL     1      26.589   2.518  51.929  1.00  0.00    -0.313 NA
HETATM    7  C7  UNL     1      27.540   2.120  52.669  1.00  0.00     0.050 C 
HETATM    8  C8  UNL     1      26.415   2.019  53.587  1.00  0.00     0.028 C 
HETATM    9  C9  UNL     1      25.119   2.229  53.605  1.00  0.00     0.097 C 
HETATM   10  N2  UNL     1      23.895   2.634  52.958  1.00  0.00    -0.333 N 
HETATM   11  C17 UNL     1      23.507   3.969  52.621  1.00  0.00     0.099 C 
HETATM   12  C18 UNL     1      23.413   4.966  51.767  1.00  0.00     0.054 C 
ENDROOT
BRANCH  10  13
HETATM   13  C10 UNL     1      22.948   1.609  52.582  1.00  0.00     0.038 A 
HETATM   14  C11 UNL     1      22.318   1.572  51.377  1.00  0.00     0.030 A 
HETATM   15  C12 UNL     1      21.421   0.566  51.076  1.00  0.00     0.003 A 
HETATM   16  C13 UNL     1      21.146  -0.423  51.994  1.00  0.00     0.007 A 
HETATM   17  C14 UNL     1      21.753  -0.429  53.215  1.00  0.00    -0.060 A 
HETATM   18  C15 UNL     1      21.553  -1.426  54.296  1.00  0.00     0.048 C 
HETATM   19  C16 UNL     1      22.644   0.588  53.488  1.00  0.00     0.036 A 
ENDBRANCH  10  13
BRANCH   1  20
HETATM   20  O1  UNL     1      23.331   6.708  50.087  1.00  0.00    -0.356 OA
HETATM   21  C1  UNL     1      23.927   7.756  50.861  1.00  0.00     0.210 C 
ENDBRANCH   1  20
TORSDOF 2
ENDMDL
MODEL 3
REMARK VINA RESULT:      -7.4      2.529      4.885
REMARK  2 active torsions:
REMARK  status: ('A' for Active; 'I' for Inactive)
REMARK    1  A    between atoms: O1_2  and  C2_3 
REMARK    2  A    between atoms: N2_12  and  C10_13 
ROOT
HETATM    1  C2  UNL     1      23.896   5.841  50.697  1.00  0.00     0.065 C 
HETATM    2  C3  UNL     1      24.414   5.407  49.533  1.00  0.00     0.010 C 
HETATM    3  C4  UNL     1      24.729   3.973  49.460  1.00  0.00     0.036 C 
HETATM    4  C5  UNL     1      26.192   3.673  49.480  1.00  0.00     0.016 C 
HETATM    5  C6  UNL     1      26.771   3.052  50.531  1.00  0.00     0.234 C 
HETATM    6  N1  UNL     1      26.486   2.502  51.793  1.00  0.00    -0.313 NA
HETATM    7  C7  UNL     1      27.382   1.914  52.473  1.00  0.00     0.050 C 
HETATM    8  C8  UNL     1      26.237   1.793  53.363  1.00  0.00     0.028 C 
HETATM    9  C9  UNL     1      24.967   2.121  53.405  1.00  0.00     0.097 C 
HETATM   10  N2  UNL     1      23.798   2.728  52.818  1.00  0.00    -0.333 N 
HETATM   11  C17 UNL     1      23.542   4.128  52.673  1.00  0.00     0.099 C 
HETATM   12  C18 UNL     1      23.557   5.240  51.969  1.00  0.00     0.054 C 
ENDROOT
BRANCH  10  13
HETATM   13  C10 UNL     1      22.765   1.862  52.296  1.00  0.00     0.038 A 
HETATM   14  C11 UNL     1      21.970   1.082  53.078  1.00  0.00     0.030 A 
HETATM   15  C12 UNL     1      21.000   0.274  52.519  1.00  0.00     0.003 A 
HETATM   16  C13 UNL     1      20.818   0.241  51.155  1.00  0.00     0.007 A 
HETATM   17  C14 UNL     1      21.589   1.005  50.330  1.00  0.00    -0.060 A 
HETATM   18  C15 UNL     1      21.505   1.069  48.850  1.00  0.00     0.048 C 
HETATM   19  C16 UNL     1      22.550   1.802  50.916  1.00  0.00     0.036 A 
ENDBRANCH  10  13
BRANCH   1  20
HETATM   20  O1  UNL     1      23.669   7.202  50.553  1.00  0.00    -0.356 OA
HETATM   21  C1  UNL     1      22.302   7.619  50.445  1.00  0.00     0.210 C 
ENDBRANCH   1  20
TORSDOF 2
ENDMDL
MODEL 4
REMARK VINA RESULT:      -7.1      3.090      6.531
REMARK  2 active torsions:
REMARK  status: ('A' for Active; 'I' for Inactive)
REMARK    1  A    between atoms: O1_2  and  C2_3 
REMARK    2  A    between atoms: N2_12  and  C10_13 
ROOT
HETATM    1  C2  UNL     1      19.486   2.118  50.659  1.00  0.00     0.065 C 
HETATM    2  C3  UNL     1      19.803   1.328  49.615  1.00  0.00     0.010 C 
HETATM    3  C4  UNL     1      21.229   1.004  49.462  1.00  0.00     0.036 C 
HETATM    4  C5  UNL     1      21.885   1.693  48.310  1.00  0.00     0.016 C 
HETATM    5  C6  UNL     1      22.822   2.647  48.501  1.00  0.00     0.234 C 
HETATM    6  N1  UNL     1      23.515   3.341  49.508  1.00  0.00    -0.313 NA
HETATM    7  C7  UNL     1      24.429   4.175  49.225  1.00  0.00     0.050 C 
HETATM    8  C8  UNL     1      24.427   4.252  50.678  1.00  0.00     0.028 C 
HETATM    9  C9  UNL     1      23.804   3.722  51.704  1.00  0.00     0.097 C 
HETATM   10  N2  UNL     1      22.821   2.825  52.262  1.00  0.00    -0.333 N 
HETATM   11  C17 UNL     1      21.401   2.997  52.246  1.00  0.00     0.099 C 
HETATM   12  C18 UNL     1      20.215   2.776  51.721  1.00  0.00     0.054 C 
ENDROOT
BRANCH  10  13
HETATM   13  C10 UNL     1      23.283   1.610  52.893  1.00  0.00     0.038 A 
HETATM   14  C11 UNL     1      24.597   1.285  53.033  1.00  0.00     0.030 A 
HETATM   15  C12 UNL     1      24.974   0.107  53.645  1.00  0.00     0.003 A 
HETATM   16  C13 UNL     1      24.026  -0.766  54.128  1.00  0.00     0.007 A 
HETATM   17  C14 UNL     1      22.696  -0.485  54.011  1.00  0.00    -0.060 A 
HETATM   18  C15 UNL     1      21.571  -1.329  54.482  1.00  0.00     0.048 C 
HETATM   19  C16 UNL     1      22.348   0.699  53.395  1.00  0.00     0.036 A 
ENDBRANCH  10  13
BRANCH   1  20
HETATM   20  O1  UNL     1      18.109   2.293  50.625  1.00  0.00    -0.356 OA
HETATM   21  C1  UNL     1      17.566   3.289  51.499  1.00  0.00     0.210 C 
ENDBRANCH   1  20
TORSDOF 2
ENDMDL
MODEL 5
REMARK VINA RESULT:      -6.9      2.834      6.271
REMARK  2 active torsions:
REMARK  status: ('A' for Active; 'I' for Inactive)
REMARK    1  A    between atoms: O1_2  and  C2_3 
REMARK    2  A    between atoms: N2_12  and  C10_13 
ROOT
HETATM    1  C2  UNL     1      20.349   1.551  51.406  1.00  0.00     0.065 C 
HETATM    2  C3  UNL     1      20.433   0.913  50.223  1.00  0.00     0.010 C 
HETATM    3  C4  UNL     1      21.735   0.983  49.544  1.00  0.00     0.036 C 
HETATM    4  C5  UNL     1      21.742   1.863  48.338  1.00  0.00     0.016 C 
HETATM    5  C6  UNL     1      22.434   3.024  48.315  1.00  0.00     0.234 C 
HETATM    6  N1  UNL     1      23.268   3.837  49.102  1.00  0.00    -0.313 NA
HETATM    7  C7  UNL     1      23.792   4.893  48.632  1.00  0.00     0.050 C 
HETATM    8  C8  UNL     1      24.308   4.912  49.993  1.00  0.00     0.028 C 
HETATM    9  C9  UNL     1      24.249   4.197  51.092  1.00  0.00     0.097 C 
HETATM   10  N2  UNL     1      23.778   3.053  51.832  1.00  0.00    -0.333 N 
HETATM   11  C17 UNL     1      22.454   2.843  52.333  1.00  0.00     0.099 C 
HETATM   12  C18 UNL     1      21.243   2.338  52.226  1.00  0.00     0.054 C 
ENDROOT
BRANCH  10  13
HETATM   13  C10 UNL     1      24.708   1.979  52.099  1.00  0.00     0.038 A 
HETATM   14  C11 UNL     1      25.876   1.808  51.423  1.00  0.00     0.030 A 
HETATM   15  C12 UNL     1      26.723   0.761  51.724  1.00  0.00     0.003 A 
HETATM   16  C13 UNL     1      26.402  -0.135  52.718  1.00  0.00     0.007 A 
HETATM   17  C14 UNL     1      25.242  -0.006  53.425  1.00  0.00    -0.060 A 
HETATM   18  C15 UNL     1      24.770  -0.892  54.516  1.00  0.00     0.048 C 
HETATM   19  C16 UNL     1      24.415   1.050  53.102  1.00  0.00     0.036 A 
ENDBRANCH  10  13
BRANCH   1  20
HETATM   20  O1  UNL     1      19.056   1.358  51.874  1.00  0.00    -0.356 OA
HETATM   21  C1  UNL     1      18.539   0.024  51.802  1.00  0.00     0.210 C 
ENDBRANCH   1  20
TORSDOF 2
ENDMDL
MODEL 6
REMARK VINA RESULT:      -6.8      2.705      5.648
REMARK  2 active torsions:
REMARK  status: ('A' for Active; 'I' for Inactive)
REMARK    1  A    between atoms: O1_2  and  C2_3 
REMARK    2  A    between atoms: N2_12  and  C10_13 
ROOT
HETATM    1  C2  UNL     1      24.010   3.020  50.274  1.00  0.00     0.065 C 
HETATM    2  C3  UNL     1      24.049   3.982  51.215  1.00  0.00     0.010 C 
HETATM    3  C4  UNL     1      23.068   3.861  52.303  1.00  0.00     0.036 C 
HETATM    4  C5  UNL     1      21.968   4.869  52.240  1.00  0.00     0.016 C 
HETATM    5  C6  UNL     1      20.695   4.507  51.968  1.00  0.00     0.234 C 
HETATM    6  N1  UNL     1      19.893   3.389  51.680  1.00  0.00    -0.313 NA
HETATM    7  C7  UNL     1      18.636   3.497  51.546  1.00  0.00     0.050 C 
HETATM    8  C8  UNL     1      18.816   2.070  51.319  1.00  0.00     0.028 C 
HETATM    9  C9  UNL     1      19.779   1.179  51.286  1.00  0.00     0.097 C 
HETATM   10  N2  UNL     1      21.169   0.815  51.401  1.00  0.00    -0.333 N 
HETATM   11  C17 UNL     1      22.209   1.101  50.460  1.00  0.00     0.099 C 
HETATM   12  C18 UNL     1      23.207   1.841  50.029  1.00  0.00     0.054 C 
ENDROOT
BRANCH  10  13
HETATM   13  C10 UNL     1      21.596   0.104  52.585  1.00  0.00     0.038 A 
HETATM   14  C11 UNL     1      20.740  -0.523  53.436  1.00  0.00     0.030 A 
HETATM   15  C12 UNL     1      21.210  -1.186  54.552  1.00  0.00     0.003 A 
HETATM   16  C13 UNL     1      22.558  -1.225  54.827  1.00  0.00     0.007 A 
HETATM   17  C14 UNL     1      23.455  -0.612  54.004  1.00  0.00    -0.060 A 
HETATM   18  C15 UNL     1      24.928  -0.572  54.176  1.00  0.00     0.048 C 
HETATM   19  C16 UNL     1      22.958   0.043  52.896  1.00  0.00     0.036 A 
ENDBRANCH  10  13
BRANCH   1  20
HETATM   20  O1  UNL     1      25.008   3.315  49.356  1.00  0.00    -0.356 OA
HETATM   21  C1  UNL     1      26.360   3.207  49.819  1.00  0.00     0.210 C 
ENDBRANCH   1  20
TORSDOF 2
ENDMDL
MODEL 7
REMARK VINA RESULT:      -6.8      3.632      5.921
REMARK  2 active torsions:
REMARK  status: ('A' for Active; 'I' for Inactive)
REMARK    1  A    between atoms: O1_2  and  C2_3 
REMARK    2  A    between atoms: N2_12  and  C10_13 
ROOT
HETATM    1  C2  UNL     1      22.132   1.679  52.203  1.00  0.00     0.065 C 
HETATM    2  C3  UNL     1      21.926   0.837  51.173  1.00  0.00     0.010 C 
HETATM    3  C4  UNL     1      22.213   1.372  49.835  1.00  0.00     0.036 C 
HETATM    4  C5  UNL     1      20.992   1.642  49.017  1.00  0.00     0.016 C 
HETATM    5  C6  UNL     1      20.622   2.902  48.697  1.00  0.00     0.234 C 
HETATM    6  N1  UNL     1      20.996   4.247  48.861  1.00  0.00    -0.313 NA
HETATM    7  C7  UNL     1      20.353   5.183  48.294  1.00  0.00     0.050 C 
HETATM    8  C8  UNL     1      21.374   5.940  49.003  1.00  0.00     0.028 C 
HETATM    9  C9  UNL     1      22.402   5.733  49.792  1.00  0.00     0.097 C 
HETATM   10  N2  UNL     1      23.279   4.849  50.520  1.00  0.00    -0.333 N 
HETATM   11  C17 UNL     1      22.970   4.134  51.720  1.00  0.00     0.099 C 
HETATM   12  C18 UNL     1      22.574   3.049  52.351  1.00  0.00     0.054 C 
ENDROOT
BRANCH  10  13
HETATM   13  C10 UNL     1      24.610   4.626  50.002  1.00  0.00     0.038 A 
HETATM   14  C11 UNL     1      25.256   3.430  50.075  1.00  0.00     0.030 A 
HETATM   15  C12 UNL     1      26.529   3.280  49.562  1.00  0.00     0.003 A 
HETATM   16  C13 UNL     1      27.172   4.340  48.965  1.00  0.00     0.007 A 
HETATM   17  C14 UNL     1      26.566   5.558  48.867  1.00  0.00    -0.060 A 
HETATM   18  C15 UNL     1      27.136   6.782  48.253  1.00  0.00     0.048 C 
HETATM   19  C16 UNL     1      25.295   5.679  49.388  1.00  0.00     0.036 A 
ENDBRANCH  10  13
BRANCH   1  20
HETATM   20  O1  UNL     1      21.812   0.983  53.360  1.00  0.00    -0.356 OA
HETATM   21  C1  UNL     1      20.463   0.516  53.478  1.00  0.00     0.210 C 
ENDBRANCH   1  20
TORSDOF 2
ENDMDL
MODEL 8
REMARK VINA RESULT:      -6.5      2.684      5.583
REMARK  2 active torsions:
REMARK  status: ('A' for Active; 'I' for Inactive)
REMARK    1  A    between atoms: O1_2  and  C2_3 
REMARK    2  A    between atoms: N2_12  and  C10_13 
ROOT
HETATM    1  C2  UNL     1      23.727   3.175  52.663  1.00  0.00     0.065 C 
HETATM    2  C3  UNL     1      23.065   4.344  52.765  1.00  0.00     0.010 C 
HETATM    3  C4  UNL     1      21.932   4.525  51.846  1.00  0.00     0.036 C 
HETATM    4  C5  UNL     1      22.191   5.510  50.753  1.00  0.00     0.016 C 
HETATM    5  C6  UNL     1      22.294   5.120  49.463  1.00  0.00     0.234 C 
HETATM    6  N1  UNL     1      22.245   3.984  48.637  1.00  0.00    -0.313 NA
HETATM    7  C7  UNL     1      22.335   4.083  47.375  1.00  0.00     0.050 C 
HETATM    8  C8  UNL     1      22.200   2.642  47.529  1.00  0.00     0.028 C 
HETATM    9  C9  UNL     1      22.057   1.749  48.481  1.00  0.00     0.097 C 
HETATM   10  N2  UNL     1      21.927   1.395  49.873  1.00  0.00    -0.333 N 
HETATM   11  C17 UNL     1      22.963   1.408  50.859  1.00  0.00     0.099 C 
HETATM   12  C18 UNL     1      23.621   1.992  51.838  1.00  0.00     0.054 C 
ENDROOT
BRANCH  10  13
HETATM   13  C10 UNL     1      20.625   0.998  50.360  1.00  0.00     0.038 A 
HETATM   14  C11 UNL     1      19.466   1.225  49.685  1.00  0.00     0.030 A 
HETATM   15  C12 UNL     1      18.252   0.822  50.204  1.00  0.00     0.003 A 
HETATM   16  C13 UNL     1      18.190   0.180  51.420  1.00  0.00     0.007 A 
HETATM   17  C14 UNL     1      19.324  -0.071  52.135  1.00  0.00    -0.060 A 
HETATM   18  C15 UNL     1      19.407  -0.750  53.451  1.00  0.00     0.048 C 
HETATM   19  C16 UNL     1      20.523   0.343  51.591  1.00  0.00     0.036 A 
ENDBRANCH  10  13
BRANCH   1  20
HETATM   20  O1  UNL     1      24.741   3.205  53.610  1.00  0.00    -0.356 OA
HETATM   21  C1  UNL     1      25.710   2.151  53.549  1.00  0.00     0.210 C 
ENDBRANCH   1  20
TORSDOF 2
ENDMDL
MODEL 9
REMARK VINA RESULT:      -6.4      9.522     11.530
REMARK  2 active torsions:
REMARK  status: ('A' for Active; 'I' for Inactive)
REMARK    1  A    between atoms: O1_2  and  C2_3 
REMARK    2  A    between atoms: N2_12  and  C10_13 
ROOT
HETATM    1  C2  UNL     1      32.843   5.905  43.611  1.00  0.00     0.065 C 
HETATM    2  C3  UNL     1      33.139   4.649  43.998  1.00  0.00     0.010 C 
HETATM    3  C4  UNL     1      32.991   4.364  45.432  1.00  0.00     0.036 C 
HETATM    4  C5  UNL     1      34.289   4.201  46.153  1.00  0.00     0.016 C 
HETATM    5  C6  UNL     1      34.704   5.103  47.070  1.00  0.00     0.234 C 
HETATM    6  N1  UNL     1      34.332   6.306  47.695  1.00  0.00    -0.313 NA
HETATM    7  C7  UNL     1      35.039   6.815  48.618  1.00  0.00     0.050 C 
HETATM    8  C8  UNL     1      33.963   7.790  48.527  1.00  0.00     0.028 C 
HETATM    9  C9  UNL     1      32.860   7.998  47.846  1.00  0.00     0.097 C 
HETATM   10  N2  UNL     1      31.905   7.610  46.837  1.00  0.00    -0.333 N 
HETATM   11  C17 UNL     1      32.086   7.671  45.420  1.00  0.00     0.099 C 
HETATM   12  C18 UNL     1      32.405   7.117  44.269  1.00  0.00     0.054 C 
ENDROOT
BRANCH  10  13
HETATM   13  C10 UNL     1      30.629   7.086  47.268  1.00  0.00     0.038 A 
HETATM   14  C11 UNL     1      30.483   5.905  47.928  1.00  0.00     0.030 A 
HETATM   15  C12 UNL     1      29.235   5.457  48.312  1.00  0.00     0.003 A 
HETATM   16  C13 UNL     1      28.110   6.198  48.034  1.00  0.00     0.007 A 
HETATM   17  C14 UNL     1      28.204   7.388  47.374  1.00  0.00    -0.060 A 
HETATM   18  C15 UNL     1      27.081   8.287  47.009  1.00  0.00     0.048 C 
HETATM   19  C16 UNL     1      29.463   7.811  47.003  1.00  0.00     0.036 A 
ENDBRANCH  10  13
BRANCH   1  20
HETATM   20  O1  UNL     1      33.040   5.959  42.239  1.00  0.00    -0.356 OA
HETATM   21  C1  UNL     1      33.601   7.169  41.716  1.00  0.00     0.210 C 
ENDBRANCH   1  20
TORSDOF 2
ENDMDL
