MODEL 1
REMARK VINA RESULT:      -7.6      0.000      0.000
REMARK  4 active torsions:
REMARK  status: ('A' for Active; 'I' for Inactive)
REMARK    1  A    between atoms: C8_9  and  C10_11 
REMARK       I    between atoms: C10_11  and  N2_13 
REMARK    2  A    between atoms: N2_13  and  C11_14 
REMARK    3  A    between atoms: C17_20  and  O2_21 
REMARK    4  A    between atoms: O2_21  and  S1_22 
ROOT
HETATM    1  C1  UNL     1      23.867   2.922  48.896  1.00  0.00     0.152 C 
HETATM    2  N1  UNL     1      23.756   2.824  50.357  1.00  0.00    -0.356 N 
HETATM    3  C2  UNL     1      22.940   1.833  51.013  1.00  0.00     0.039 A 
HETATM    4  C3  UNL     1      21.816   1.178  50.519  1.00  0.00     0.030 A 
HETATM    5  C4  UNL     1      21.140   0.242  51.288  1.00  0.00     0.002 A 
HETATM    6  C5  UNL     1      21.638   0.011  52.536  1.00  0.00     0.001 A 
HETATM    7  C6  UNL     1      22.750   0.650  53.043  1.00  0.00     0.011 A 
HETATM    8  C7  UNL     1      23.439   1.584  52.297  1.00  0.00    -0.010 A 
HETATM    9  C8  UNL     1      24.617   2.467  52.430  1.00  0.00     0.112 C 
HETATM   10  C9  UNL     1      24.636   3.046  53.805  1.00  0.00     0.035 C 
HETATM   11  C17 UNL     1      24.369   3.609  51.439  1.00  0.00     0.260 C 
ENDROOT
BRANCH   9  12
HETATM   12  C10 UNL     1      25.879   1.824  52.008  1.00  0.00     0.239 C 
HETATM   13  O1  UNL     1      26.637   1.837  51.003  1.00  0.00    -0.272 OA
HETATM   14  N2  UNL     1      26.299   0.965  53.088  1.00  0.00    -0.326 N 
HETATM   15  H11 UNL     1      25.938   0.711  54.037  1.00  0.00     0.169 HD
BRANCH  14  16
HETATM   16  C11 UNL     1      27.466   0.122  53.168  1.00  0.00     0.034 A 
HETATM   17  C12 UNL     1      27.427  -1.229  52.899  1.00  0.00     0.029 A 
HETATM   18  C13 UNL     1      28.596  -1.988  52.996  1.00  0.00     0.002 A 
HETATM   19  C14 UNL     1      29.771  -1.374  53.357  1.00  0.00     0.000 A 
HETATM   20  C15 UNL     1      29.848  -0.038  53.630  1.00  0.00     0.002 A 
HETATM   21  C16 UNL     1      28.682   0.698  53.530  1.00  0.00     0.029 A 
ENDBRANCH  14  16
ENDBRANCH   9  12
BRANCH  11  22
HETATM   22  O2  UNL     1      23.474   4.541  51.940  1.00  0.00    -0.296 OA
BRANCH  22  23
HETATM   23  S1  UNL     1      23.670   6.085  51.214  1.00  0.00    -0.022 SA
HETATM   24  H18 UNL     1      22.600   6.944  51.521  1.00  0.00     0.133 HD
ENDBRANCH  22  23
ENDBRANCH  11  22
TORSDOF 4
ENDMDL
MODEL 2
REMARK VINA RESULT:      -7.5      0.208      1.040
REMARK  4 active torsions:
REMARK  status: ('A' for Active; 'I' for Inactive)
REMARK    1  A    between atoms: C8_9  and  C10_11 
REMARK       I    between atoms: C10_11  and  N2_13 
REMARK    2  A    between atoms: N2_13  and  C11_14 
REMARK    3  A    between atoms: C17_20  and  O2_21 
REMARK    4  A    between atoms: O2_21  and  S1_22 
ROOT
HETATM    1  C1  UNL     1      23.731   2.776  48.790  1.00  0.00     0.152 C 
HETATM    2  N1  UNL     1      23.634   2.742  50.255  1.00  0.00    -0.356 N 
HETATM    3  C2  UNL     1      22.809   1.793  50.960  1.00  0.00     0.039 A 
HETATM    4  C3  UNL     1      21.671   1.135  50.505  1.00  0.00     0.030 A 
HETATM    5  C4  UNL     1      20.988   0.243  51.319  1.00  0.00     0.002 A 
HETATM    6  C5  UNL     1      21.494   0.058  52.571  1.00  0.00     0.001 A 
HETATM    7  C6  UNL     1      22.621   0.701  53.040  1.00  0.00     0.011 A 
HETATM    8  C7  UNL     1      23.316   1.591  52.249  1.00  0.00    -0.010 A 
HETATM    9  C8  UNL     1      24.509   2.461  52.333  1.00  0.00     0.112 C 
HETATM   10  C9  UNL     1      24.550   3.098  53.681  1.00  0.00     0.035 C 
HETATM   11  C17 UNL     1      24.269   3.563  51.296  1.00  0.00     0.260 C 
ENDROOT
BRANCH   9  12
HETATM   12  C10 UNL     1      25.757   1.782  51.928  1.00  0.00     0.239 C 
HETATM   13  O1  UNL     1      26.504   1.738  50.915  1.00  0.00    -0.272 OA
HETATM   14  N2  UNL     1      26.176   0.966  53.041  1.00  0.00    -0.326 N 
HETATM   15  H11 UNL     1      25.822   0.760  54.004  1.00  0.00     0.169 HD
BRANCH  14  16
HETATM   16  C11 UNL     1      27.332   0.110  53.147  1.00  0.00     0.034 A 
HETATM   17  C12 UNL     1      28.571   0.578  53.531  1.00  0.00     0.029 A 
HETATM   18  C13 UNL     1      29.649  -0.306  53.612  1.00  0.00     0.002 A 
HETATM   19  C14 UNL     1      29.459  -1.632  53.310  1.00  0.00     0.000 A 
HETATM   20  C15 UNL     1      28.247  -2.132  52.926  1.00  0.00     0.002 A 
HETATM   21  C16 UNL     1      27.191  -1.244  52.850  1.00  0.00     0.029 A 
ENDBRANCH  14  16
ENDBRANCH   9  12
BRANCH  11  22
HETATM   22  O2  UNL     1      23.393   4.530  51.765  1.00  0.00    -0.296 OA
BRANCH  22  23
HETATM   23  S1  UNL     1      23.759   6.091  51.151  1.00  0.00    -0.022 SA
HETATM   24  H18 UNL     1      23.244   7.108  51.972  1.00  0.00     0.133 HD
ENDBRANCH  22  23
ENDBRANCH  11  22
TORSDOF 4
ENDMDL
MODEL 3
REMARK VINA RESULT:      -7.0      2.444      4.005
REMARK  4 active torsions:
REMARK  status: ('A' for Active; 'I' for Inactive)
REMARK    1  A    between atoms: C8_9  and  C10_11 
REMARK       I    between atoms: C10_11  and  N2_13 
REMARK    2  A    between atoms: N2_13  and  C11_14 
REMARK    3  A    between atoms: C17_20  and  O2_21 
REMARK    4  A    between atoms: O2_21  and  S1_22 
ROOT
HETATM    1  C1  UNL     1      21.371   3.213  51.783  1.00  0.00     0.152 C 
HETATM    2  N1  UNL     1      22.558   3.584  51.002  1.00  0.00    -0.356 N 
HETATM    3  C2  UNL     1      23.035   4.941  50.905  1.00  0.00     0.039 A 
HETATM    4  C3  UNL     1      22.314   6.122  51.051  1.00  0.00     0.030 A 
HETATM    5  C4  UNL     1      22.933   7.356  50.927  1.00  0.00     0.002 A 
HETATM    6  C5  UNL     1      24.268   7.339  50.656  1.00  0.00     0.001 A 
HETATM    7  C6  UNL     1      25.001   6.180  50.508  1.00  0.00     0.011 A 
HETATM    8  C7  UNL     1      24.408   4.941  50.628  1.00  0.00    -0.010 A 
HETATM    9  C8  UNL     1      24.784   3.513  50.551  1.00  0.00     0.112 C 
HETATM   10  C9  UNL     1      25.745   3.324  49.425  1.00  0.00     0.035 C 
HETATM   11  C17 UNL     1      23.487   2.781  50.194  1.00  0.00     0.260 C 
ENDROOT
BRANCH   9  12
HETATM   12  C10 UNL     1      25.227   2.955  51.846  1.00  0.00     0.239 C 
HETATM   13  O1  UNL     1      24.794   2.892  53.027  1.00  0.00    -0.272 OA
HETATM   14  N2  UNL     1      26.507   2.329  51.622  1.00  0.00    -0.326 N 
HETATM   15  H11 UNL     1      27.149   2.188  50.808  1.00  0.00     0.169 HD
BRANCH  14  16
HETATM   16  C11 UNL     1      27.352   1.643  52.568  1.00  0.00     0.034 A 
HETATM   17  C12 UNL     1      28.281   2.299  53.347  1.00  0.00     0.029 A 
HETATM   18  C13 UNL     1      29.068   1.573  54.244  1.00  0.00     0.002 A 
HETATM   19  C14 UNL     1      28.904   0.212  54.337  1.00  0.00     0.000 A 
HETATM   20  C15 UNL     1      27.995  -0.471  53.582  1.00  0.00     0.002 A 
HETATM   21  C16 UNL     1      27.224   0.262  52.700  1.00  0.00     0.029 A 
ENDBRANCH  14  16
ENDBRANCH   9  12
BRANCH  11  22
HETATM   22  O2  UNL     1      23.188   2.889  48.845  1.00  0.00    -0.296 OA
BRANCH  22  23
HETATM   23  S1  UNL     1      21.983   1.768  48.353  1.00  0.00    -0.022 SA
HETATM   24  H18 UNL     1      20.811   2.416  47.928  1.00  0.00     0.133 HD
ENDBRANCH  22  23
ENDBRANCH  11  22
TORSDOF 4
ENDMDL
MODEL 4
REMARK VINA RESULT:      -6.9      3.601      4.989
REMARK  4 active torsions:
REMARK  status: ('A' for Active; 'I' for Inactive)
REMARK    1  A    between atoms: C8_9  and  C10_11 
REMARK       I    between atoms: C10_11  and  N2_13 
REMARK    2  A    between atoms: N2_13  and  C11_14 
REMARK    3  A    between atoms: C17_20  and  O2_21 
REMARK    4  A    between atoms: O2_21  and  S1_22 
ROOT
HETATM    1  C1  UNL     1      20.376   1.206  49.496  1.00  0.00     0.152 C 
HETATM    2  N1  UNL     1      20.967   1.941  50.621  1.00  0.00    -0.356 N 
HETATM    3  C2  UNL     1      21.828   1.317  51.595  1.00  0.00     0.039 A 
HETATM    4  C3  UNL     1      21.876  -0.022  51.970  1.00  0.00     0.030 A 
HETATM    5  C4  UNL     1      22.773  -0.462  52.932  1.00  0.00     0.002 A 
HETATM    6  C5  UNL     1      23.589   0.484  53.477  1.00  0.00     0.001 A 
HETATM    7  C6  UNL     1      23.556   1.816  53.118  1.00  0.00     0.011 A 
HETATM    8  C7  UNL     1      22.673   2.276  52.164  1.00  0.00    -0.010 A 
HETATM    9  C8  UNL     1      22.308   3.549  51.505  1.00  0.00     0.112 C 
HETATM   10  C9  UNL     1      22.313   4.641  52.522  1.00  0.00     0.035 C 
HETATM   11  C17 UNL     1      20.866   3.350  51.031  1.00  0.00     0.260 C 
ENDROOT
BRANCH   9  12
HETATM   12  C10 UNL     1      23.104   3.827  50.291  1.00  0.00     0.239 C 
HETATM   13  O1  UNL     1      23.003   3.637  49.050  1.00  0.00    -0.272 OA
HETATM   14  N2  UNL     1      24.308   4.497  50.717  1.00  0.00    -0.326 N 
HETATM   15  H11 UNL     1      24.717   4.811  51.628  1.00  0.00     0.169 HD
BRANCH  14  16
HETATM   16  C11 UNL     1      25.405   4.977  49.914  1.00  0.00     0.034 A 
HETATM   17  C12 UNL     1      25.488   6.280  49.471  1.00  0.00     0.029 A 
HETATM   18  C13 UNL     1      26.580   6.679  48.695  1.00  0.00     0.002 A 
HETATM   19  C14 UNL     1      27.557   5.765  48.386  1.00  0.00     0.000 A 
HETATM   20  C15 UNL     1      27.509   4.466  48.807  1.00  0.00     0.002 A 
HETATM   21  C16 UNL     1      26.422   4.088  49.573  1.00  0.00     0.029 A 
ENDBRANCH  14  16
ENDBRANCH   9  12
BRANCH  11  22
HETATM   22  O2  UNL     1      19.957   3.497  52.068  1.00  0.00    -0.296 OA
BRANCH  22  23
HETATM   23  S1  UNL     1      18.341   3.635  51.503  1.00  0.00    -0.022 SA
HETATM   24  H18 UNL     1      17.921   4.975  51.448  1.00  0.00     0.133 HD
ENDBRANCH  22  23
ENDBRANCH  11  22
TORSDOF 4
ENDMDL
MODEL 5
REMARK VINA RESULT:      -6.7      3.647      5.547
REMARK  4 active torsions:
REMARK  status: ('A' for Active; 'I' for Inactive)
REMARK    1  A    between atoms: C8_9  and  C10_11 
REMARK       I    between atoms: C10_11  and  N2_13 
REMARK    2  A    between atoms: N2_13  and  C11_14 
REMARK    3  A    between atoms: C17_20  and  O2_21 
REMARK    4  A    between atoms: O2_21  and  S1_22 
ROOT
HETATM    1  C1  UNL     1      22.020   6.698  51.092  1.00  0.00     0.152 C 
HETATM    2  N1  UNL     1      22.581   5.588  50.312  1.00  0.00    -0.356 N 
HETATM    3  C2  UNL     1      23.955   5.556  49.877  1.00  0.00     0.039 A 
HETATM    4  C3  UNL     1      24.814   6.627  49.653  1.00  0.00     0.030 A 
HETATM    5  C4  UNL     1      26.120   6.419  49.234  1.00  0.00     0.002 A 
HETATM    6  C5  UNL     1      26.500   5.122  49.058  1.00  0.00     0.001 A 
HETATM    7  C6  UNL     1      25.664   4.047  49.275  1.00  0.00     0.011 A 
HETATM    8  C7  UNL     1      24.362   4.229  49.692  1.00  0.00    -0.010 A 
HETATM    9  C8  UNL     1      23.175   3.413  50.029  1.00  0.00     0.112 C 
HETATM   10  C9  UNL     1      23.068   2.287  49.056  1.00  0.00     0.035 C 
HETATM   11  C17 UNL     1      21.979   4.344  49.809  1.00  0.00     0.260 C 
ENDROOT
BRANCH   9  12
HETATM   12  C10 UNL     1      23.127   3.013  51.451  1.00  0.00     0.239 C 
HETATM   13  O1  UNL     1      23.475   3.491  52.563  1.00  0.00    -0.272 OA
HETATM   14  N2  UNL     1      22.499   1.715  51.505  1.00  0.00    -0.326 N 
HETATM   15  H11 UNL     1      22.097   1.040  50.815  1.00  0.00     0.169 HD
BRANCH  14  16
HETATM   16  C11 UNL     1      22.219   0.897  52.659  1.00  0.00     0.034 A 
HETATM   17  C12 UNL     1      21.040   0.990  53.368  1.00  0.00     0.029 A 
HETATM   18  C13 UNL     1      20.833   0.167  54.478  1.00  0.00     0.002 A 
HETATM   19  C14 UNL     1      21.809  -0.727  54.846  1.00  0.00     0.000 A 
HETATM   20  C15 UNL     1      22.988  -0.848  54.168  1.00  0.00     0.002 A 
HETATM   21  C16 UNL     1      23.177  -0.026  53.073  1.00  0.00     0.029 A 
ENDBRANCH  14  16
ENDBRANCH   9  12
BRANCH  11  22
HETATM   22  O2  UNL     1      21.657   4.460  48.466  1.00  0.00    -0.296 OA
BRANCH  22  23
HETATM   23  S1  UNL     1      19.967   4.642  48.216  1.00  0.00    -0.022 SA
HETATM   24  H18 UNL     1      19.521   3.899  47.110  1.00  0.00     0.133 HD
ENDBRANCH  22  23
ENDBRANCH  11  22
TORSDOF 4
ENDMDL
MODEL 6
REMARK VINA RESULT:      -6.7      3.258      5.187
REMARK  4 active torsions:
REMARK  status: ('A' for Active; 'I' for Inactive)
REMARK    1  A    between atoms: C8_9  and  C10_11 
REMARK       I    between atoms: C10_11  and  N2_13 
REMARK    2  A    between atoms: N2_13  and  C11_14 
REMARK    3  A    between atoms: C17_20  and  O2_21 
REMARK    4  A    between atoms: O2_21  and  S1_22 
ROOT
HETATM    1  C1  UNL     1      20.246   4.285  51.057  1.00  0.00     0.152 C 
HETATM    2  N1  UNL     1      21.644   4.310  50.608  1.00  0.00    -0.356 N 
HETATM    3  C2  UNL     1      22.457   5.500  50.656  1.00  0.00     0.039 A 
HETATM    4  C3  UNL     1      22.044   6.828  50.632  1.00  0.00     0.030 A 
HETATM    5  C4  UNL     1      22.964   7.864  50.687  1.00  0.00     0.002 A 
HETATM    6  C5  UNL     1      24.277   7.503  50.763  1.00  0.00     0.001 A 
HETATM    7  C6  UNL     1      24.706   6.193  50.787  1.00  0.00     0.011 A 
HETATM    8  C7  UNL     1      23.809   5.147  50.735  1.00  0.00    -0.010 A 
HETATM    9  C8  UNL     1      23.820   3.668  50.734  1.00  0.00     0.112 C 
HETATM   10  C9  UNL     1      24.951   3.191  49.885  1.00  0.00     0.035 C 
HETATM   11  C17 UNL     1      22.511   3.263  50.049  1.00  0.00     0.260 C 
ENDROOT
BRANCH   9  12
HETATM   12  C10 UNL     1      23.771   3.083  52.091  1.00  0.00     0.239 C 
HETATM   13  O1  UNL     1      24.046   3.440  53.267  1.00  0.00    -0.272 OA
HETATM   14  N2  UNL     1      23.262   1.741  51.956  1.00  0.00    -0.326 N 
HETATM   15  H11 UNL     1      22.940   1.129  51.170  1.00  0.00     0.169 HD
BRANCH  14  16
HETATM   16  C11 UNL     1      23.026   0.758  52.985  1.00  0.00     0.034 A 
HETATM   17  C12 UNL     1      24.031  -0.033  53.501  1.00  0.00     0.029 A 
HETATM   18  C13 UNL     1      23.733  -0.966  54.498  1.00  0.00     0.002 A 
HETATM   19  C14 UNL     1      22.441  -1.081  54.950  1.00  0.00     0.000 A 
HETATM   20  C15 UNL     1      21.421  -0.315  54.462  1.00  0.00     0.002 A 
HETATM   21  C16 UNL     1      21.732   0.603  53.477  1.00  0.00     0.029 A 
ENDBRANCH  14  16
ENDBRANCH   9  12
BRANCH  11  22
HETATM   22  O2  UNL     1      22.594   3.375  48.670  1.00  0.00    -0.296 OA
BRANCH  22  23
HETATM   23  S1  UNL     1      21.407   2.428  47.868  1.00  0.00    -0.022 SA
HETATM   24  H18 UNL     1      21.860   1.976  46.617  1.00  0.00     0.133 HD
ENDBRANCH  22  23
ENDBRANCH  11  22
TORSDOF 4
ENDMDL
MODEL 7
REMARK VINA RESULT:      -6.7      8.494     10.992
REMARK  4 active torsions:
REMARK  status: ('A' for Active; 'I' for Inactive)
REMARK    1  A    between atoms: C8_9  and  C10_11 
REMARK       I    between atoms: C10_11  and  N2_13 
REMARK    2  A    between atoms: N2_13  and  C11_14 
REMARK    3  A    between atoms: C17_20  and  O2_21 
REMARK    4  A    between atoms: O2_21  and  S1_22 
ROOT
HETATM    1  C1  UNL     1      32.603   9.234  46.973  1.00  0.00     0.152 C 
HETATM    2  N1  UNL     1      32.882   7.793  46.960  1.00  0.00    -0.356 N 
HETATM    3  C2  UNL     1      33.975   7.203  47.692  1.00  0.00     0.039 A 
HETATM    4  C3  UNL     1      35.167   7.800  48.091  1.00  0.00     0.030 A 
HETATM    5  C4  UNL     1      36.123   7.084  48.797  1.00  0.00     0.002 A 
HETATM    6  C5  UNL     1      35.825   5.781  49.067  1.00  0.00     0.001 A 
HETATM    7  C6  UNL     1      34.650   5.172  48.680  1.00  0.00     0.011 A 
HETATM    8  C7  UNL     1      33.685   5.864  47.979  1.00  0.00    -0.010 A 
HETATM    9  C8  UNL     1      32.348   5.626  47.392  1.00  0.00     0.112 C 
HETATM   10  C9  UNL     1      32.331   4.276  46.757  1.00  0.00     0.035 C 
HETATM   11  C17 UNL     1      32.212   6.673  46.282  1.00  0.00     0.260 C 
ENDROOT
BRANCH   9  12
HETATM   12  C10 UNL     1      31.241   5.884  48.336  1.00  0.00     0.239 C 
HETATM   13  O1  UNL     1      31.108   6.176  49.554  1.00  0.00    -0.272 OA
HETATM   14  N2  UNL     1      30.011   5.746  47.596  1.00  0.00    -0.326 N 
HETATM   15  H11 UNL     1      29.743   5.521  46.610  1.00  0.00     0.169 HD
BRANCH  14  16
HETATM   16  C11 UNL     1      28.656   5.898  48.064  1.00  0.00     0.034 A 
HETATM   17  C12 UNL     1      27.923   4.848  48.575  1.00  0.00     0.029 A 
HETATM   18  C13 UNL     1      26.614   5.066  49.011  1.00  0.00     0.002 A 
HETATM   19  C14 UNL     1      26.074   6.326  48.923  1.00  0.00     0.000 A 
HETATM   20  C15 UNL     1      26.769   7.389  48.423  1.00  0.00     0.002 A 
HETATM   21  C16 UNL     1      28.063   7.157  47.996  1.00  0.00     0.029 A 
ENDBRANCH  14  16
ENDBRANCH   9  12
BRANCH  11  22
HETATM   22  O2  UNL     1      32.903   6.305  45.138  1.00  0.00    -0.296 OA
BRANCH  22  23
HETATM   23  S1  UNL     1      32.265   7.045  43.726  1.00  0.00    -0.022 SA
HETATM   24  H18 UNL     1      32.690   6.391  42.557  1.00  0.00     0.133 HD
ENDBRANCH  22  23
ENDBRANCH  11  22
TORSDOF 4
ENDMDL
MODEL 8
REMARK VINA RESULT:      -6.6      3.703      5.322
REMARK  4 active torsions:
REMARK  status: ('A' for Active; 'I' for Inactive)
REMARK    1  A    between atoms: C8_9  and  C10_11 
REMARK       I    between atoms: C10_11  and  N2_13 
REMARK    2  A    between atoms: N2_13  and  C11_14 
REMARK    3  A    between atoms: C17_20  and  O2_21 
REMARK    4  A    between atoms: O2_21  and  S1_22 
ROOT
HETATM    1  C1  UNL     1      21.782   1.683  48.612  1.00  0.00     0.152 C 
HETATM    2  N1  UNL     1      21.940   2.697  49.662  1.00  0.00    -0.356 N 
HETATM    3  C2  UNL     1      22.703   2.464  50.863  1.00  0.00     0.039 A 
HETATM    4  C3  UNL     1      22.985   1.251  51.484  1.00  0.00     0.030 A 
HETATM    5  C4  UNL     1      23.743   1.202  52.645  1.00  0.00     0.002 A 
HETATM    6  C5  UNL     1      24.184   2.397  53.130  1.00  0.00     0.001 A 
HETATM    7  C6  UNL     1      23.915   3.609  52.529  1.00  0.00     0.011 A 
HETATM    8  C7  UNL     1      23.165   3.683  51.374  1.00  0.00    -0.010 A 
HETATM    9  C8  UNL     1      22.656   4.709  50.439  1.00  0.00     0.112 C 
HETATM   10  C9  UNL     1      22.195   5.893  51.221  1.00  0.00     0.035 C 
HETATM   11  C17 UNL     1      21.429   4.070  49.780  1.00  0.00     0.260 C 
ENDROOT
BRANCH   9  12
HETATM   12  C10 UNL     1      23.597   5.016  49.341  1.00  0.00     0.239 C 
HETATM   13  O1  UNL     1      23.557   5.131  48.088  1.00  0.00    -0.272 OA
HETATM   14  N2  UNL     1      24.891   5.233  49.941  1.00  0.00    -0.326 N 
HETATM   15  H11 UNL     1      25.287   5.222  50.909  1.00  0.00     0.169 HD
BRANCH  14  16
HETATM   16  C11 UNL     1      26.139   5.561  49.297  1.00  0.00     0.034 A 
HETATM   17  C12 UNL     1      27.115   4.621  49.043  1.00  0.00     0.029 A 
HETATM   18  C13 UNL     1      28.302   5.008  48.416  1.00  0.00     0.002 A 
HETATM   19  C14 UNL     1      28.479   6.323  48.059  1.00  0.00     0.000 A 
HETATM   20  C15 UNL     1      27.534   7.281  48.294  1.00  0.00     0.002 A 
HETATM   21  C16 UNL     1      26.366   6.882  48.916  1.00  0.00     0.029 A 
ENDBRANCH  14  16
ENDBRANCH   9  12
BRANCH  11  22
HETATM   22  O2  UNL     1      20.318   4.114  50.608  1.00  0.00    -0.296 OA
BRANCH  22  23
HETATM   23  S1  UNL     1      18.883   4.507  49.751  1.00  0.00    -0.022 SA
HETATM   24  H18 UNL     1      18.695   3.669  48.639  1.00  0.00     0.133 HD
ENDBRANCH  22  23
ENDBRANCH  11  22
TORSDOF 4
ENDMDL
MODEL 9
REMARK VINA RESULT:      -6.6      2.408      4.348
REMARK  4 active torsions:
REMARK  status: ('A' for Active; 'I' for Inactive)
REMARK    1  A    between atoms: C8_9  and  C10_11 
REMARK       I    between atoms: C10_11  and  N2_13 
REMARK    2  A    between atoms: N2_13  and  C11_14 
REMARK    3  A    between atoms: C17_20  and  O2_21 
REMARK    4  A    between atoms: O2_21  and  S1_22 
ROOT
HETATM    1  C1  UNL     1      23.778   5.120  53.440  1.00  0.00     0.152 C 
HETATM    2  N1  UNL     1      23.704   4.811  52.006  1.00  0.00    -0.356 N 
HETATM    3  C2  UNL     1      24.035   5.772  50.984  1.00  0.00     0.039 A 
HETATM    4  C3  UNL     1      23.993   7.161  51.059  1.00  0.00     0.030 A 
HETATM    5  C4  UNL     1      24.348   7.946  49.972  1.00  0.00     0.002 A 
HETATM    6  C5  UNL     1      24.733   7.282  48.846  1.00  0.00     0.001 A 
HETATM    7  C6  UNL     1      24.782   5.907  48.752  1.00  0.00     0.011 A 
HETATM    8  C7  UNL     1      24.433   5.105  49.819  1.00  0.00    -0.010 A 
HETATM    9  C8  UNL     1      24.340   3.667  50.149  1.00  0.00     0.112 C 
HETATM   10  C9  UNL     1      23.779   2.936  48.975  1.00  0.00     0.035 C 
HETATM   11  C17 UNL     1      23.318   3.588  51.287  1.00  0.00     0.260 C 
ENDROOT
BRANCH   9  12
HETATM   12  C10 UNL     1      25.598   3.108  50.686  1.00  0.00     0.239 C 
HETATM   13  O1  UNL     1      26.835   3.283  50.528  1.00  0.00    -0.272 OA
HETATM   14  N2  UNL     1      25.235   2.095  51.647  1.00  0.00    -0.326 N 
HETATM   15  H11 UNL     1      24.345   1.693  52.024  1.00  0.00     0.169 HD
BRANCH  14  16
HETATM   16  C11 UNL     1      26.098   1.259  52.445  1.00  0.00     0.034 A 
HETATM   17  C12 UNL     1      26.561   1.641  53.687  1.00  0.00     0.029 A 
HETATM   18  C13 UNL     1      27.395   0.782  54.407  1.00  0.00     0.002 A 
HETATM   19  C14 UNL     1      27.741  -0.433  53.868  1.00  0.00     0.000 A 
HETATM   20  C15 UNL     1      27.302  -0.844  52.641  1.00  0.00     0.002 A 
HETATM   21  C16 UNL     1      26.478   0.017  51.942  1.00  0.00     0.029 A 
ENDBRANCH  14  16
ENDBRANCH   9  12
BRANCH  11  22
HETATM   22  O2  UNL     1      22.016   3.680  50.820  1.00  0.00    -0.296 OA
BRANCH  22  23
HETATM   23  S1  UNL     1      20.869   3.153  51.984  1.00  0.00    -0.022 SA
HETATM   24  H18 UNL     1      19.851   4.102  52.179  1.00  0.00     0.133 HD
ENDBRANCH  22  23
ENDBRANCH  11  22
TORSDOF 4
ENDMDL
