MODEL 1
REMARK VINA RESULT:      -8.2      0.000      0.000
REMARK  7 active torsions:
REMARK  status: ('A' for Active; 'I' for Inactive)
REMARK    1  A    between atoms: C4_6  and  N3_7 
REMARK    2  A    between atoms: N3_7  and  C5_8 
REMARK    3  A    between atoms: C13_17  and  N4_18 
REMARK       I    between atoms: N4_18  and  C14_19 
REMARK    4  A    between atoms: C14_19  and  C15_21 
REMARK    5  A    between atoms: C15_21  and  C16_22 
REMARK    6  A    between atoms: C16_22  and  C17_23 
REMARK    7  A    between atoms: C17_23  and  N5_24 
ROOT
HETATM    1  C1  UNL     1      20.258  -1.583  54.250  1.00  0.00     0.071 C 
HETATM    2  C2  UNL     1      21.662  -1.059  54.413  1.00  0.00     0.038 C 
HETATM    3  N1  UNL     1      22.606  -1.560  55.145  1.00  0.00    -0.272 NA
HETATM    4  C3  UNL     1      23.975  -1.193  55.410  1.00  0.00     0.299 C 
HETATM    5  N2  UNL     1      24.708  -0.706  54.289  1.00  0.00    -0.250 NA
HETATM    6  C4  UNL     1      24.399   0.075  53.283  1.00  0.00     0.136 C 
HETATM    7  C11 UNL     1      23.052   0.662  53.111  1.00  0.00     0.024 A 
HETATM    8  C12 UNL     1      23.163   1.809  52.363  1.00  0.00     0.045 A 
HETATM    9  C13 UNL     1      22.001   2.530  52.063  1.00  0.00     0.035 A 
HETATM   10  C20 UNL     1      20.832   2.007  52.562  1.00  0.00     0.030 A 
HETATM   11  C21 UNL     1      20.709   0.859  53.313  1.00  0.00     0.017 A 
HETATM   12  C22 UNL     1      21.850   0.144  53.612  1.00  0.00     0.002 A 
ENDROOT
BRANCH   9  13
HETATM   13  N4  UNL     1      22.092   3.714  51.292  1.00  0.00    -0.327 N 
HETATM   14  C14 UNL     1      22.368   3.934  49.916  1.00  0.00     0.222 C 
HETATM   15  O1  UNL     1      22.572   2.891  49.251  1.00  0.00    -0.273 OA
HETATM   16  H12 UNL     1      21.924   4.615  51.825  1.00  0.00     0.169 HD
BRANCH  14  17
HETATM   17  C15 UNL     1      22.397   5.295  49.392  1.00  0.00     0.105 C 
BRANCH  17  18
HETATM   18  C16 UNL     1      23.262   5.459  48.200  1.00  0.00     0.039 C 
BRANCH  18  19
HETATM   19  C17 UNL     1      24.344   6.472  48.437  1.00  0.00     0.271 C 
BRANCH  19  20
HETATM   20  N5  UNL     1      25.166   6.098  49.587  1.00  0.00     0.080 N 
HETATM   21  C18 UNL     1      25.842   7.234  50.131  1.00  0.00     0.309 C 
HETATM   22  C19 UNL     1      26.113   5.071  49.246  1.00  0.00     0.309 C 
ENDBRANCH  19  20
ENDBRANCH  18  19
ENDBRANCH  17  18
ENDBRANCH  14  17
ENDBRANCH   9  13
BRANCH   6  23
HETATM   23  N3  UNL     1      25.387   0.394  52.278  1.00  0.00    -0.341 N 
HETATM   24  H6  UNL     1      24.943   0.438  51.309  1.00  0.00     0.167 HD
BRANCH  23  25
HETATM   25  C5  UNL     1      26.722   0.572  52.813  1.00  0.00     0.035 A 
HETATM   26  C6  UNL     1      27.012   1.882  53.136  1.00  0.00     0.029 A 
HETATM   27  C7  UNL     1      28.228   2.279  53.662  1.00  0.00     0.004 A 
HETATM   28  C8  UNL     1      29.169   1.266  53.854  1.00  0.00     0.019 A 
HETATM   29  C9  UNL     1      28.884  -0.043  53.533  1.00  0.00     0.013 A 
HETATM   30 BR1  UNL     1      30.173  -1.419  53.798  1.00  0.00    -0.051 Br
HETATM   31  C10 UNL     1      27.666  -0.424  53.009  1.00  0.00     0.048 A 
ENDBRANCH  23  25
ENDBRANCH   6  23
TORSDOF 7
ENDMDL
MODEL 2
REMARK VINA RESULT:      -7.8      3.166      5.927
REMARK  7 active torsions:
REMARK  status: ('A' for Active; 'I' for Inactive)
REMARK    1  A    between atoms: C4_6  and  N3_7 
REMARK    2  A    between atoms: N3_7  and  C5_8 
REMARK    3  A    between atoms: C13_17  and  N4_18 
REMARK       I    between atoms: N4_18  and  C14_19 
REMARK    4  A    between atoms: C14_19  and  C15_21 
REMARK    5  A    between atoms: C15_21  and  C16_22 
REMARK    6  A    between atoms: C16_22  and  C17_23 
REMARK    7  A    between atoms: C17_23  and  N5_24 
ROOT
HETATM    1  C1  UNL     1      25.546  -0.841  54.356  1.00  0.00     0.071 C 
HETATM    2  C2  UNL     1      25.949   0.449  53.689  1.00  0.00     0.038 C 
HETATM    3  N1  UNL     1      27.074   1.078  53.813  1.00  0.00    -0.272 NA
HETATM    4  C3  UNL     1      27.612   2.296  53.260  1.00  0.00     0.299 C 
HETATM    5  N2  UNL     1      27.293   2.542  51.892  1.00  0.00    -0.250 NA
HETATM    6  C4  UNL     1      26.212   2.361  51.173  1.00  0.00     0.136 C 
HETATM    7  C11 UNL     1      24.967   1.791  51.733  1.00  0.00     0.024 A 
HETATM    8  C12 UNL     1      23.905   2.222  50.976  1.00  0.00     0.045 A 
HETATM    9  C13 UNL     1      22.618   1.791  51.319  1.00  0.00     0.035 A 
HETATM   10  C20 UNL     1      22.540   0.958  52.409  1.00  0.00     0.030 A 
HETATM   11  C21 UNL     1      23.597   0.520  53.175  1.00  0.00     0.017 A 
HETATM   12  C22 UNL     1      24.868   0.940  52.843  1.00  0.00     0.002 A 
ENDROOT
BRANCH   9  13
HETATM   13  N4  UNL     1      21.509   2.223  50.551  1.00  0.00    -0.327 N 
HETATM   14  C14 UNL     1      20.956   1.752  49.330  1.00  0.00     0.222 C 
HETATM   15  O1  UNL     1      21.555   0.771  48.830  1.00  0.00    -0.273 OA
HETATM   16  H12 UNL     1      20.979   3.052  50.948  1.00  0.00     0.169 HD
BRANCH  14  17
HETATM   17  C15 UNL     1      19.783   2.410  48.765  1.00  0.00     0.105 C 
BRANCH  17  18
HETATM   18  C16 UNL     1      18.608   2.416  49.667  1.00  0.00     0.039 C 
BRANCH  18  19
HETATM   19  C17 UNL     1      18.141   1.024  49.978  1.00  0.00     0.271 C 
BRANCH  19  20
HETATM   20  N5  UNL     1      17.960   0.844  51.418  1.00  0.00     0.080 N 
HETATM   21  C18 UNL     1      18.919  -0.074  51.949  1.00  0.00     0.309 C 
HETATM   22  C19 UNL     1      16.625   0.408  51.730  1.00  0.00     0.309 C 
ENDBRANCH  19  20
ENDBRANCH  18  19
ENDBRANCH  17  18
ENDBRANCH  14  17
ENDBRANCH   9  13
BRANCH   6  23
HETATM   23  N3  UNL     1      26.199   2.719  49.774  1.00  0.00    -0.341 N 
HETATM   24  H6  UNL     1      26.089   1.852  49.162  1.00  0.00     0.167 HD
BRANCH  23  25
HETATM   25  C5  UNL     1      26.340   4.141  49.537  1.00  0.00     0.035 A 
HETATM   26  C6  UNL     1      27.427   4.460  48.750  1.00  0.00     0.029 A 
HETATM   27  C7  UNL     1      27.751   5.758  48.398  1.00  0.00     0.004 A 
HETATM   28  C8  UNL     1      26.905   6.753  48.891  1.00  0.00     0.019 A 
HETATM   29  C9  UNL     1      25.818   6.439  49.679  1.00  0.00     0.013 A 
HETATM   30 BR1  UNL     1      24.669   7.802  50.348  1.00  0.00    -0.051 Br
HETATM   31  C10 UNL     1      25.508   5.139  50.021  1.00  0.00     0.048 A 
ENDBRANCH  23  25
ENDBRANCH   6  23
TORSDOF 7
ENDMDL
MODEL 3
REMARK VINA RESULT:      -7.8      2.862      4.416
REMARK  7 active torsions:
REMARK  status: ('A' for Active; 'I' for Inactive)
REMARK    1  A    between atoms: C4_6  and  N3_7 
REMARK    2  A    between atoms: N3_7  and  C5_8 
REMARK    3  A    between atoms: C13_17  and  N4_18 
REMARK       I    between atoms: N4_18  and  C14_19 
REMARK    4  A    between atoms: C14_19  and  C15_21 
REMARK    5  A    between atoms: C15_21  and  C16_22 
REMARK    6  A    between atoms: C16_22  and  C17_23 
REMARK    7  A    between atoms: C17_23  and  N5_24 
ROOT
HETATM    1  C1  UNL     1      21.440   0.908  49.110  1.00  0.00     0.071 C 
HETATM    2  C2  UNL     1      21.967   1.486  50.398  1.00  0.00     0.038 C 
HETATM    3  N1  UNL     1      21.614   1.168  51.603  1.00  0.00    -0.272 NA
HETATM    4  C3  UNL     1      22.007   1.613  52.917  1.00  0.00     0.299 C 
HETATM    5  N2  UNL     1      23.399   1.876  53.085  1.00  0.00    -0.250 NA
HETATM    6  C4  UNL     1      24.309   2.426  52.319  1.00  0.00     0.136 C 
HETATM    7  C11 UNL     1      24.010   2.934  50.962  1.00  0.00     0.024 A 
HETATM    8  C12 UNL     1      24.929   3.905  50.643  1.00  0.00     0.045 A 
HETATM    9  C13 UNL     1      24.845   4.521  49.389  1.00  0.00     0.035 A 
HETATM   10  C20 UNL     1      23.823   4.086  48.579  1.00  0.00     0.030 A 
HETATM   11  C21 UNL     1      22.898   3.115  48.888  1.00  0.00     0.017 A 
HETATM   12  C22 UNL     1      22.975   2.503  50.122  1.00  0.00     0.002 A 
ENDROOT
BRANCH   9  13
HETATM   13  N4  UNL     1      25.783   5.523  49.038  1.00  0.00    -0.327 N 
HETATM   14  C14 UNL     1      27.158   5.458  48.687  1.00  0.00     0.222 C 
HETATM   15  O1  UNL     1      27.641   4.302  48.685  1.00  0.00    -0.273 OA
HETATM   16  H12 UNL     1      25.404   6.514  49.030  1.00  0.00     0.169 HD
BRANCH  14  17
HETATM   17  C15 UNL     1      27.882   6.684  48.369  1.00  0.00     0.105 C 
BRANCH  17  18
HETATM   18  C16 UNL     1      29.343   6.491  48.207  1.00  0.00     0.039 C 
BRANCH  18  19
HETATM   19  C17 UNL     1      29.987   7.674  47.546  1.00  0.00     0.271 C 
BRANCH  19  20
HETATM   20  N5  UNL     1      31.005   8.266  48.415  1.00  0.00     0.080 N 
HETATM   21  C18 UNL     1      31.508   7.308  49.349  1.00  0.00     0.309 C 
HETATM   22  C19 UNL     1      30.499   9.420  49.107  1.00  0.00     0.309 C 
ENDBRANCH  19  20
ENDBRANCH  18  19
ENDBRANCH  17  18
ENDBRANCH  14  17
ENDBRANCH   9  13
BRANCH   6  23
HETATM   23  N3  UNL     1      25.671   2.554  52.783  1.00  0.00    -0.341 N 
HETATM   24  H6  UNL     1      25.913   3.575  52.972  1.00  0.00     0.167 HD
BRANCH  23  25
HETATM   25  C5  UNL     1      26.373   1.290  52.874  1.00  0.00     0.035 A 
HETATM   26  C6  UNL     1      25.577   0.199  52.591  1.00  0.00     0.029 A 
HETATM   27  C7  UNL     1      26.041  -1.103  52.618  1.00  0.00     0.004 A 
HETATM   28  C8  UNL     1      27.386  -1.264  52.955  1.00  0.00     0.019 A 
HETATM   29  C9  UNL     1      28.186  -0.178  53.239  1.00  0.00     0.013 A 
HETATM   30 BR1  UNL     1      30.019  -0.406  53.698  1.00  0.00    -0.051 Br
HETATM   31  C10 UNL     1      27.708   1.116  53.207  1.00  0.00     0.048 A 
ENDBRANCH  23  25
ENDBRANCH   6  23
TORSDOF 7
ENDMDL
MODEL 4
REMARK VINA RESULT:      -7.7      3.062      5.021
REMARK  7 active torsions:
REMARK  status: ('A' for Active; 'I' for Inactive)
REMARK    1  A    between atoms: C4_6  and  N3_7 
REMARK    2  A    between atoms: N3_7  and  C5_8 
REMARK    3  A    between atoms: C13_17  and  N4_18 
REMARK       I    between atoms: N4_18  and  C14_19 
REMARK    4  A    between atoms: C14_19  and  C15_21 
REMARK    5  A    between atoms: C15_21  and  C16_22 
REMARK    6  A    between atoms: C16_22  and  C17_23 
REMARK    7  A    between atoms: C17_23  and  N5_24 
ROOT
HETATM    1  C1  UNL     1      25.750  -0.821  54.547  1.00  0.00     0.071 C 
HETATM    2  C2  UNL     1      26.101   0.473  53.857  1.00  0.00     0.038 C 
HETATM    3  N1  UNL     1      27.193   1.157  53.983  1.00  0.00    -0.272 NA
HETATM    4  C3  UNL     1      27.680   2.389  53.411  1.00  0.00     0.299 C 
HETATM    5  N2  UNL     1      27.371   2.590  52.033  1.00  0.00    -0.250 NA
HETATM    6  C4  UNL     1      26.311   2.342  51.304  1.00  0.00     0.136 C 
HETATM    7  C11 UNL     1      25.086   1.724  51.858  1.00  0.00     0.024 A 
HETATM    8  C12 UNL     1      24.016   2.088  51.076  1.00  0.00     0.045 A 
HETATM    9  C13 UNL     1      22.746   1.603  51.410  1.00  0.00     0.035 A 
HETATM   10  C20 UNL     1      22.692   0.790  52.518  1.00  0.00     0.030 A 
HETATM   11  C21 UNL     1      23.757   0.419  53.308  1.00  0.00     0.017 A 
HETATM   12  C22 UNL     1      25.011   0.893  52.984  1.00  0.00     0.002 A 
ENDROOT
BRANCH   9  13
HETATM   13  N4  UNL     1      21.629   1.964  50.618  1.00  0.00    -0.327 N 
HETATM   14  C14 UNL     1      20.726   3.058  50.689  1.00  0.00     0.222 C 
HETATM   15  O1  UNL     1      20.952   3.860  51.625  1.00  0.00    -0.273 OA
HETATM   16  H12 UNL     1      21.412   1.304  49.816  1.00  0.00     0.169 HD
BRANCH  14  17
HETATM   17  C15 UNL     1      19.647   3.170  49.714  1.00  0.00     0.105 C 
BRANCH  17  18
HETATM   18  C16 UNL     1      20.018   2.711  48.355  1.00  0.00     0.039 C 
BRANCH  18  19
HETATM   19  C17 UNL     1      20.368   3.861  47.458  1.00  0.00     0.271 C 
BRANCH  19  20
HETATM   20  N5  UNL     1      21.782   3.821  47.085  1.00  0.00     0.080 N 
HETATM   21  C18 UNL     1      22.328   2.512  47.271  1.00  0.00     0.309 C 
HETATM   22  C19 UNL     1      22.549   4.790  47.820  1.00  0.00     0.309 C 
ENDBRANCH  19  20
ENDBRANCH  18  19
ENDBRANCH  17  18
ENDBRANCH  14  17
ENDBRANCH   9  13
BRANCH   6  23
HETATM   23  N3  UNL     1      26.302   2.668  49.897  1.00  0.00    -0.341 N 
HETATM   24  H6  UNL     1      26.252   1.785  49.302  1.00  0.00     0.167 HD
BRANCH  23  25
HETATM   25  C5  UNL     1      26.367   4.092  49.632  1.00  0.00     0.035 A 
HETATM   26  C6  UNL     1      27.433   4.451  48.832  1.00  0.00     0.029 A 
HETATM   27  C7  UNL     1      27.686   5.757  48.453  1.00  0.00     0.004 A 
HETATM   28  C8  UNL     1      26.791   6.716  48.931  1.00  0.00     0.019 A 
HETATM   29  C9  UNL     1      25.725   6.361  49.730  1.00  0.00     0.013 A 
HETATM   30 BR1  UNL     1      24.508   7.674  50.378  1.00  0.00    -0.051 Br
HETATM   31  C10 UNL     1      25.485   5.054  50.099  1.00  0.00     0.048 A 
ENDBRANCH  23  25
ENDBRANCH   6  23
TORSDOF 7
ENDMDL
MODEL 5
REMARK VINA RESULT:      -7.7      3.086      6.131
REMARK  7 active torsions:
REMARK  status: ('A' for Active; 'I' for Inactive)
REMARK    1  A    between atoms: C4_6  and  N3_7 
REMARK    2  A    between atoms: N3_7  and  C5_8 
REMARK    3  A    between atoms: C13_17  and  N4_18 
REMARK       I    between atoms: N4_18  and  C14_19 
REMARK    4  A    between atoms: C14_19  and  C15_21 
REMARK    5  A    between atoms: C15_21  and  C16_22 
REMARK    6  A    between atoms: C16_22  and  C17_23 
REMARK    7  A    between atoms: C17_23  and  N5_24 
ROOT
HETATM    1  C1  UNL     1      28.263  -1.305  53.807  1.00  0.00     0.071 C 
HETATM    2  C2  UNL     1      27.844   0.084  53.400  1.00  0.00     0.038 C 
HETATM    3  N1  UNL     1      28.604   1.123  53.260  1.00  0.00    -0.272 NA
HETATM    4  C3  UNL     1      28.371   2.497  52.887  1.00  0.00     0.299 C 
HETATM    5  N2  UNL     1      27.415   2.698  51.849  1.00  0.00    -0.250 NA
HETATM    6  C4  UNL     1      26.269   2.131  51.560  1.00  0.00     0.136 C 
HETATM    7  C11 UNL     1      25.693   1.034  52.368  1.00  0.00     0.024 A 
HETATM    8  C12 UNL     1      24.330   1.028  52.197  1.00  0.00     0.045 A 
HETATM    9  C13 UNL     1      23.574   0.058  52.865  1.00  0.00     0.035 A 
HETATM   10  C20 UNL     1      24.288  -0.818  53.648  1.00  0.00     0.030 A 
HETATM   11  C21 UNL     1      25.653  -0.822  53.827  1.00  0.00     0.017 A 
HETATM   12  C22 UNL     1      26.404   0.132  53.172  1.00  0.00     0.002 A 
ENDROOT
BRANCH   9  13
HETATM   13  N4  UNL     1      22.167   0.033  52.702  1.00  0.00    -0.327 N 
HETATM   14  C14 UNL     1      21.102  -0.007  53.641  1.00  0.00     0.222 C 
HETATM   15  O1  UNL     1      21.463  -0.023  54.840  1.00  0.00    -0.273 OA
HETATM   16  H12 UNL     1      21.828   0.046  51.697  1.00  0.00     0.169 HD
BRANCH  14  17
HETATM   17  C15 UNL     1      19.722  -0.026  53.168  1.00  0.00     0.105 C 
BRANCH  17  18
HETATM   18  C16 UNL     1      19.573   0.337  51.739  1.00  0.00     0.039 C 
BRANCH  18  19
HETATM   19  C17 UNL     1      18.742   1.574  51.566  1.00  0.00     0.271 C 
BRANCH  19  20
HETATM   20  N5  UNL     1      19.519   2.641  50.937  1.00  0.00     0.080 N 
HETATM   21  C18 UNL     1      20.507   2.109  50.051  1.00  0.00     0.309 C 
HETATM   22  C19 UNL     1      20.136   3.492  51.919  1.00  0.00     0.309 C 
ENDBRANCH  19  20
ENDBRANCH  18  19
ENDBRANCH  17  18
ENDBRANCH  14  17
ENDBRANCH   9  13
BRANCH   6  23
HETATM   23  N3  UNL     1      25.511   2.565  50.409  1.00  0.00    -0.341 N 
HETATM   24  H6  UNL     1      24.863   1.791  50.067  1.00  0.00     0.167 HD
BRANCH  23  25
HETATM   25  C5  UNL     1      25.808   3.923  49.999  1.00  0.00     0.035 A 
HETATM   26  C6  UNL     1      26.896   4.013  49.155  1.00  0.00     0.029 A 
HETATM   27  C7  UNL     1      27.357   5.212  48.641  1.00  0.00     0.004 A 
HETATM   28  C8  UNL     1      26.651   6.353  49.028  1.00  0.00     0.019 A 
HETATM   29  C9  UNL     1      25.564   6.267  49.870  1.00  0.00     0.013 A 
HETATM   30 BR1  UNL     1      24.606   7.827  50.394  1.00  0.00    -0.051 Br
HETATM   31  C10 UNL     1      25.116   5.064  50.375  1.00  0.00     0.048 A 
ENDBRANCH  23  25
ENDBRANCH   6  23
TORSDOF 7
ENDMDL
MODEL 6
REMARK VINA RESULT:      -7.7      4.427      8.978
REMARK  7 active torsions:
REMARK  status: ('A' for Active; 'I' for Inactive)
REMARK    1  A    between atoms: C4_6  and  N3_7 
REMARK    2  A    between atoms: N3_7  and  C5_8 
REMARK    3  A    between atoms: C13_17  and  N4_18 
REMARK       I    between atoms: N4_18  and  C14_19 
REMARK    4  A    between atoms: C14_19  and  C15_21 
REMARK    5  A    between atoms: C15_21  and  C16_22 
REMARK    6  A    between atoms: C16_22  and  C17_23 
REMARK    7  A    between atoms: C17_23  and  N5_24 
ROOT
HETATM    1  C1  UNL     1      25.290   9.201  47.507  1.00  0.00     0.071 C 
HETATM    2  C2  UNL     1      26.530   8.394  47.220  1.00  0.00     0.038 C 
HETATM    3  N1  UNL     1      27.531   8.733  46.471  1.00  0.00    -0.272 NA
HETATM    4  C3  UNL     1      28.769   8.095  46.096  1.00  0.00     0.299 C 
HETATM    5  N2  UNL     1      29.420   7.362  47.132  1.00  0.00    -0.250 NA
HETATM    6  C4  UNL     1      28.985   6.587  48.095  1.00  0.00     0.136 C 
HETATM    7  C11 UNL     1      27.549   6.301  48.304  1.00  0.00     0.024 A 
HETATM    8  C12 UNL     1      27.429   5.099  48.959  1.00  0.00     0.045 A 
HETATM    9  C13 UNL     1      26.148   4.632  49.275  1.00  0.00     0.035 A 
HETATM   10  C20 UNL     1      25.107   5.443  48.888  1.00  0.00     0.030 A 
HETATM   11  C21 UNL     1      25.215   6.648  48.232  1.00  0.00     0.017 A 
HETATM   12  C22 UNL     1      26.475   7.115  47.918  1.00  0.00     0.002 A 
ENDROOT
BRANCH   9  13
HETATM   13  N4  UNL     1      26.001   3.396  49.950  1.00  0.00    -0.327 N 
HETATM   14  C14 UNL     1      25.241   3.019  51.090  1.00  0.00     0.222 C 
HETATM   15  O1  UNL     1      24.571   3.947  51.600  1.00  0.00    -0.273 OA
HETATM   16  H12 UNL     1      26.556   2.589  49.542  1.00  0.00     0.169 HD
BRANCH  14  17
HETATM   17  C15 UNL     1      25.288   1.642  51.568  1.00  0.00     0.105 C 
BRANCH  17  18
HETATM   18  C16 UNL     1      26.655   1.168  51.891  1.00  0.00     0.039 C 
BRANCH  18  19
HETATM   19  C17 UNL     1      26.635  -0.204  52.500  1.00  0.00     0.271 C 
BRANCH  19  20
HETATM   20  N5  UNL     1      27.467  -0.252  53.702  1.00  0.00     0.080 N 
HETATM   21  C18 UNL     1      26.737   0.181  54.853  1.00  0.00     0.309 C 
HETATM   22  C19 UNL     1      28.663   0.530  53.548  1.00  0.00     0.309 C 
ENDBRANCH  19  20
ENDBRANCH  18  19
ENDBRANCH  17  18
ENDBRANCH  14  17
ENDBRANCH   9  13
BRANCH   6  23
HETATM   23  N3  UNL     1      29.917   5.972  49.012  1.00  0.00    -0.341 N 
HETATM   24  H6  UNL     1      29.467   5.822  49.967  1.00  0.00     0.167 HD
BRANCH  23  25
HETATM   25  C5  UNL     1      31.218   5.713  48.429  1.00  0.00     0.035 A 
HETATM   26  C6  UNL     1      31.212   4.676  47.517  1.00  0.00     0.029 A 
HETATM   27  C7  UNL     1      32.344   4.258  46.841  1.00  0.00     0.004 A 
HETATM   28  C8  UNL     1      33.520   4.953  47.133  1.00  0.00     0.019 A 
HETATM   29  C9  UNL     1      33.530   5.988  48.042  1.00  0.00     0.013 A 
HETATM   30 BR1  UNL     1      35.138   6.930  48.434  1.00  0.00    -0.051 Br
HETATM   31  C10 UNL     1      32.393   6.394  48.709  1.00  0.00     0.048 A 
ENDBRANCH  23  25
ENDBRANCH   6  23
TORSDOF 7
ENDMDL
MODEL 7
REMARK VINA RESULT:      -7.6      3.094      6.123
REMARK  7 active torsions:
REMARK  status: ('A' for Active; 'I' for Inactive)
REMARK    1  A    between atoms: C4_6  and  N3_7 
REMARK    2  A    between atoms: N3_7  and  C5_8 
REMARK    3  A    between atoms: C13_17  and  N4_18 
REMARK       I    between atoms: N4_18  and  C14_19 
REMARK    4  A    between atoms: C14_19  and  C15_21 
REMARK    5  A    between atoms: C15_21  and  C16_22 
REMARK    6  A    between atoms: C16_22  and  C17_23 
REMARK    7  A    between atoms: C17_23  and  N5_24 
ROOT
HETATM    1  C1  UNL     1      25.848  -1.022  53.755  1.00  0.00     0.071 C 
HETATM    2  C2  UNL     1      26.092   0.354  53.189  1.00  0.00     0.038 C 
HETATM    3  N1  UNL     1      27.198   1.027  53.213  1.00  0.00    -0.272 NA
HETATM    4  C3  UNL     1      27.595   2.327  52.730  1.00  0.00     0.299 C 
HETATM    5  N2  UNL     1      27.056   2.703  51.465  1.00  0.00    -0.250 NA
HETATM    6  C4  UNL     1      25.883   2.541  50.903  1.00  0.00     0.136 C 
HETATM    7  C11 UNL     1      24.764   1.845  51.575  1.00  0.00     0.024 A 
HETATM    8  C12 UNL     1      23.580   2.296  51.044  1.00  0.00     0.045 A 
HETATM    9  C13 UNL     1      22.381   1.760  51.526  1.00  0.00     0.035 A 
HETATM   10  C20 UNL     1      22.507   0.809  52.511  1.00  0.00     0.030 A 
HETATM   11  C21 UNL     1      23.688   0.349  53.051  1.00  0.00     0.017 A 
HETATM   12  C22 UNL     1      24.873   0.874  52.580  1.00  0.00     0.002 A 
ENDROOT
BRANCH   9  13
HETATM   13  N4  UNL     1      21.148   2.210  50.992  1.00  0.00    -0.327 N 
HETATM   14  C14 UNL     1      20.004   2.791  51.600  1.00  0.00     0.222 C 
HETATM   15  O1  UNL     1      20.090   2.937  52.841  1.00  0.00    -0.273 OA
HETATM   16  H12 UNL     1      21.044   2.100  49.942  1.00  0.00     0.169 HD
BRANCH  14  17
HETATM   17  C15 UNL     1      18.857   3.161  50.778  1.00  0.00     0.105 C 
BRANCH  17  18
HETATM   18  C16 UNL     1      17.713   2.226  50.891  1.00  0.00     0.039 C 
BRANCH  18  19
HETATM   19  C17 UNL     1      18.065   0.857  50.388  1.00  0.00     0.271 C 
BRANCH  19  20
HETATM   20  N5  UNL     1      17.607  -0.175  51.318  1.00  0.00     0.080 N 
HETATM   21  C18 UNL     1      16.360   0.186  51.917  1.00  0.00     0.309 C 
HETATM   22  C19 UNL     1      18.589  -0.442  52.334  1.00  0.00     0.309 C 
ENDBRANCH  19  20
ENDBRANCH  18  19
ENDBRANCH  17  18
ENDBRANCH  14  17
ENDBRANCH   9  13
BRANCH   6  23
HETATM   23  N3  UNL     1      25.636   3.048  49.573  1.00  0.00    -0.341 N 
HETATM   24  H6  UNL     1      25.141   2.318  48.974  1.00  0.00     0.167 HD
BRANCH  23  25
HETATM   25  C5  UNL     1      26.114   4.401  49.370  1.00  0.00     0.035 A 
HETATM   26  C6  UNL     1      25.279   5.362  49.902  1.00  0.00     0.029 A 
HETATM   27  C7  UNL     1      25.541   6.718  49.824  1.00  0.00     0.004 A 
HETATM   28  C8  UNL     1      26.719   7.074  49.165  1.00  0.00     0.019 A 
HETATM   29  C9  UNL     1      27.556   6.118  48.632  1.00  0.00     0.013 A 
HETATM   30 BR1  UNL     1      29.160   6.612  47.734  1.00  0.00    -0.051 Br
HETATM   31  C10 UNL     1      27.281   4.769  48.718  1.00  0.00     0.048 A 
ENDBRANCH  23  25
ENDBRANCH   6  23
TORSDOF 7
ENDMDL
MODEL 8
REMARK VINA RESULT:      -7.5      3.610      6.155
REMARK  7 active torsions:
REMARK  status: ('A' for Active; 'I' for Inactive)
REMARK    1  A    between atoms: C4_6  and  N3_7 
REMARK    2  A    between atoms: N3_7  and  C5_8 
REMARK    3  A    between atoms: C13_17  and  N4_18 
REMARK       I    between atoms: N4_18  and  C14_19 
REMARK    4  A    between atoms: C14_19  and  C15_21 
REMARK    5  A    between atoms: C15_21  and  C16_22 
REMARK    6  A    between atoms: C16_22  and  C17_23 
REMARK    7  A    between atoms: C17_23  and  N5_24 
ROOT
HETATM    1  C1  UNL     1      25.744  -0.919  54.308  1.00  0.00     0.071 C 
HETATM    2  C2  UNL     1      26.068   0.395  53.645  1.00  0.00     0.038 C 
HETATM    3  N1  UNL     1      27.198   1.027  53.667  1.00  0.00    -0.272 NA
HETATM    4  C3  UNL     1      27.668   2.267  53.099  1.00  0.00     0.299 C 
HETATM    5  N2  UNL     1      27.202   2.556  51.783  1.00  0.00    -0.250 NA
HETATM    6  C4  UNL     1      26.050   2.391  51.181  1.00  0.00     0.136 C 
HETATM    7  C11 UNL     1      24.875   1.794  51.852  1.00  0.00     0.024 A 
HETATM    8  C12 UNL     1      23.736   2.243  51.229  1.00  0.00     0.045 A 
HETATM    9  C13 UNL     1      22.495   1.792  51.695  1.00  0.00     0.035 A 
HETATM   10  C20 UNL     1      22.539   0.923  52.759  1.00  0.00     0.030 A 
HETATM   11  C21 UNL     1      23.674   0.467  53.391  1.00  0.00     0.017 A 
HETATM   12  C22 UNL     1      24.900   0.907  52.937  1.00  0.00     0.002 A 
ENDROOT
BRANCH   9  13
HETATM   13  N4  UNL     1      21.307   2.241  51.067  1.00  0.00    -0.327 N 
HETATM   14  C14 UNL     1      20.279   3.122  51.496  1.00  0.00     0.222 C 
HETATM   15  O1  UNL     1      20.444   3.597  52.644  1.00  0.00    -0.273 OA
HETATM   16  H12 UNL     1      21.138   1.857  50.093  1.00  0.00     0.169 HD
BRANCH  14  17
HETATM   17  C15 UNL     1      19.152   3.402  50.614  1.00  0.00     0.105 C 
BRANCH  17  18
HETATM   18  C16 UNL     1      17.829   3.249  51.266  1.00  0.00     0.039 C 
BRANCH  18  19
HETATM   19  C17 UNL     1      16.706   3.552  50.318  1.00  0.00     0.271 C 
BRANCH  19  20
HETATM   20  N5  UNL     1      15.660   4.330  50.981  1.00  0.00     0.080 N 
HETATM   21  C18 UNL     1      15.435   3.863  52.314  1.00  0.00     0.309 C 
HETATM   22  C19 UNL     1      14.433   4.308  50.231  1.00  0.00     0.309 C 
ENDBRANCH  19  20
ENDBRANCH  18  19
ENDBRANCH  17  18
ENDBRANCH  14  17
ENDBRANCH   9  13
BRANCH   6  23
HETATM   23  N3  UNL     1      25.884   2.794  49.803  1.00  0.00    -0.341 N 
HETATM   24  H6  UNL     1      25.595   1.966  49.198  1.00  0.00     0.167 HD
BRANCH  23  25
HETATM   25  C5  UNL     1      26.149   4.200  49.575  1.00  0.00     0.035 A 
HETATM   26  C6  UNL     1      27.281   4.428  48.819  1.00  0.00     0.029 A 
HETATM   27  C7  UNL     1      27.721   5.695  48.480  1.00  0.00     0.004 A 
HETATM   28  C8  UNL     1      26.947   6.756  48.952  1.00  0.00     0.019 A 
HETATM   29  C9  UNL     1      25.816   6.534  49.708  1.00  0.00     0.013 A 
HETATM   30 BR1  UNL     1      24.766   7.986  50.349  1.00  0.00    -0.051 Br
HETATM   31  C10 UNL     1      25.389   5.264  50.038  1.00  0.00     0.048 A 
ENDBRANCH  23  25
ENDBRANCH   6  23
TORSDOF 7
ENDMDL
MODEL 9
REMARK VINA RESULT:      -7.4      1.787      6.109
REMARK  7 active torsions:
REMARK  status: ('A' for Active; 'I' for Inactive)
REMARK    1  A    between atoms: C4_6  and  N3_7 
REMARK    2  A    between atoms: N3_7  and  C5_8 
REMARK    3  A    between atoms: C13_17  and  N4_18 
REMARK       I    between atoms: N4_18  and  C14_19 
REMARK    4  A    between atoms: C14_19  and  C15_21 
REMARK    5  A    between atoms: C15_21  and  C16_22 
REMARK    6  A    between atoms: C16_22  and  C17_23 
REMARK    7  A    between atoms: C17_23  and  N5_24 
ROOT
HETATM    1  C1  UNL     1      24.705   6.719  48.370  1.00  0.00     0.071 C 
HETATM    2  C2  UNL     1      25.236   5.421  48.922  1.00  0.00     0.038 C 
HETATM    3  N1  UNL     1      26.448   4.973  48.843  1.00  0.00    -0.272 NA
HETATM    4  C3  UNL     1      27.111   3.777  49.304  1.00  0.00     0.299 C 
HETATM    5  N2  UNL     1      26.717   3.316  50.594  1.00  0.00    -0.250 NA
HETATM    6  C4  UNL     1      25.563   3.253  51.214  1.00  0.00     0.136 C 
HETATM    7  C11 UNL     1      24.300   3.716  50.599  1.00  0.00     0.024 A 
HETATM    8  C12 UNL     1      23.253   3.050  51.188  1.00  0.00     0.045 A 
HETATM    9  C13 UNL     1      21.950   3.342  50.766  1.00  0.00     0.035 A 
HETATM   10  C20 UNL     1      21.843   4.290  49.777  1.00  0.00     0.030 A 
HETATM   11  C21 UNL     1      22.885   4.964  49.180  1.00  0.00     0.017 A 
HETATM   12  C22 UNL     1      24.171   4.681  49.591  1.00  0.00     0.002 A 
ENDROOT
BRANCH   9  13
HETATM   13  N4  UNL     1      20.855   2.668  51.361  1.00  0.00    -0.327 N 
HETATM   14  C14 UNL     1      20.000   1.639  50.884  1.00  0.00     0.222 C 
HETATM   15  O1  UNL     1      20.252   1.247  49.721  1.00  0.00    -0.273 OA
HETATM   16  H12 UNL     1      20.616   2.977  52.347  1.00  0.00     0.169 HD
BRANCH  14  17
HETATM   17  C15 UNL     1      18.933   1.131  51.740  1.00  0.00     0.105 C 
BRANCH  17  18
HETATM   18  C16 UNL     1      18.971  -0.338  51.936  1.00  0.00     0.039 C 
BRANCH  18  19
HETATM   19  C17 UNL     1      19.312  -0.699  53.351  1.00  0.00     0.271 C 
BRANCH  19  20
HETATM   20  N5  UNL     1      20.715  -0.404  53.641  1.00  0.00     0.080 N 
HETATM   21  C18 UNL     1      21.461  -1.604  53.863  1.00  0.00     0.309 C 
HETATM   22  C19 UNL     1      20.846   0.480  54.768  1.00  0.00     0.309 C 
ENDBRANCH  19  20
ENDBRANCH  18  19
ENDBRANCH  17  18
ENDBRANCH  14  17
ENDBRANCH   9  13
BRANCH   6  23
HETATM   23  N3  UNL     1      25.484   2.720  52.554  1.00  0.00    -0.341 N 
HETATM   24  H6  UNL     1      24.912   3.362  53.185  1.00  0.00     0.167 HD
BRANCH  23  25
HETATM   25  C5  UNL     1      26.190   1.466  52.721  1.00  0.00     0.035 A 
HETATM   26  C6  UNL     1      25.398   0.358  52.500  1.00  0.00     0.029 A 
HETATM   27  C7  UNL     1      25.866  -0.940  52.604  1.00  0.00     0.004 A 
HETATM   28  C8  UNL     1      27.211  -1.076  52.954  1.00  0.00     0.019 A 
HETATM   29  C9  UNL     1      28.006   0.027  53.176  1.00  0.00     0.013 A 
HETATM   30 BR1  UNL     1      29.839  -0.167  53.653  1.00  0.00    -0.051 Br
HETATM   31  C10 UNL     1      27.524   1.316  53.068  1.00  0.00     0.048 A 
ENDBRANCH  23  25
ENDBRANCH   6  23
TORSDOF 7
ENDMDL
