MODEL 1
REMARK VINA RESULT:      -8.3      0.000      0.000
REMARK  3 active torsions:
REMARK  status: ('A' for Active; 'I' for Inactive)
REMARK    1  A    between atoms: C1_2  and  N1_3 
REMARK    2  A    between atoms: N1_3  and  N2_4 
REMARK    3  A    between atoms: N2_4  and  C2_5 
ROOT
HETATM    1  C2  UNL     1      26.649   2.190  51.983  1.00  0.00     0.063 A 
HETATM    2  C3  UNL     1      26.620   3.007  50.802  1.00  0.00     0.026 A 
HETATM    3  C4  UNL     1      25.673   3.272  49.926  1.00  0.00    -0.015 A 
HETATM    4  C5  UNL     1      24.369   3.216  49.318  1.00  0.00     0.042 A 
HETATM    5  C6  UNL     1      23.119   2.867  49.157  1.00  0.00    -0.015 A 
HETATM    6  C7  UNL     1      21.881   2.192  49.466  1.00  0.00     0.021 A 
HETATM    7  C8  UNL     1      21.726   1.405  50.508  1.00  0.00     0.142 A 
HETATM    8  O1  UNL     1      22.700   1.125  51.420  1.00  0.00    -0.322 OA
HETATM    9  C9  UNL     1      22.554   0.307  52.510  1.00  0.00     0.084 A 
HETATM   10  C10 UNL     1      21.327  -0.288  52.713  1.00  0.00     0.038 A 
HETATM   11  C11 UNL     1      21.241  -1.099  53.824  1.00  0.00     0.003 A 
HETATM   12  C12 UNL     1      22.249  -1.359  54.727  1.00  0.00     0.001 A 
HETATM   13  C13 UNL     1      23.467  -0.755  54.508  1.00  0.00     0.014 A 
HETATM   14  C14 UNL     1      23.561   0.051  53.406  1.00  0.00    -0.005 A 
HETATM   15  C15 UNL     1      24.858   0.635  53.257  1.00  0.00    -0.001 A 
HETATM   16  C16 UNL     1      25.843   1.326  52.792  1.00  0.00     0.076 A 
ENDROOT
BRANCH   1  17
HETATM   17  N2  UNL     1      27.753   2.189  52.568  1.00  0.00    -0.178 NA
BRANCH  17  18
HETATM   18  N1  UNL     1      28.209   2.625  53.764  1.00  0.00    -0.279 N 
HETATM   19  H2  UNL     1      28.024   3.421  54.409  1.00  0.00     0.189 HD
BRANCH  18  20
HETATM   20  C1  UNL     1      29.208   1.720  54.235  1.00  0.00     0.190 C 
HETATM   21  S1  UNL     1      29.319   0.137  53.801  1.00  0.00    -0.073 SA
ENDBRANCH  18  20
ENDBRANCH  17  18
ENDBRANCH   1  17
TORSDOF 3
ENDMDL
MODEL 2
REMARK VINA RESULT:      -8.0      1.448      4.519
REMARK  3 active torsions:
REMARK  status: ('A' for Active; 'I' for Inactive)
REMARK    1  A    between atoms: C1_2  and  N1_3 
REMARK    2  A    between atoms: N1_3  and  N2_4 
REMARK    3  A    between atoms: N2_4  and  C2_5 
ROOT
HETATM    1  C2  UNL     1      25.556  -0.269  54.572  1.00  0.00     0.063 A 
HETATM    2  C3  UNL     1      24.698  -1.084  55.387  1.00  0.00     0.026 A 
HETATM    3  C4  UNL     1      23.408  -1.346  55.336  1.00  0.00    -0.015 A 
HETATM    4  C5  UNL     1      22.056  -1.287  54.843  1.00  0.00     0.042 A 
HETATM    5  C6  UNL     1      21.061  -0.937  54.073  1.00  0.00    -0.015 A 
HETATM    6  C7  UNL     1      20.406  -0.261  52.978  1.00  0.00     0.021 A 
HETATM    7  C8  UNL     1      21.035   0.524  52.131  1.00  0.00     0.142 A 
HETATM    8  O1  UNL     1      22.370   0.801  52.175  1.00  0.00    -0.322 OA
HETATM    9  C9  UNL     1      23.040   1.617  51.301  1.00  0.00     0.084 A 
HETATM   10  C10 UNL     1      22.317   2.213  50.290  1.00  0.00     0.038 A 
HETATM   11  C11 UNL     1      23.044   3.022  49.443  1.00  0.00     0.003 A 
HETATM   12  C12 UNL     1      24.396   3.279  49.518  1.00  0.00     0.001 A 
HETATM   13  C13 UNL     1      25.100   2.674  50.535  1.00  0.00     0.014 A 
HETATM   14  C14 UNL     1      24.386   1.870  51.380  1.00  0.00    -0.005 A 
HETATM   15  C15 UNL     1      25.195   1.285  52.404  1.00  0.00    -0.001 A 
HETATM   16  C16 UNL     1      25.560   0.594  53.430  1.00  0.00     0.076 A 
ENDROOT
BRANCH   1  17
HETATM   17  N2  UNL     1      26.750  -0.270  54.941  1.00  0.00    -0.178 NA
BRANCH  17  18
HETATM   18  N1  UNL     1      27.751   0.640  54.964  1.00  0.00    -0.279 N 
HETATM   19  H2  UNL     1      27.856   1.656  55.163  1.00  0.00     0.189 HD
BRANCH  18  20
HETATM   20  C1  UNL     1      28.974  -0.012  54.618  1.00  0.00     0.190 C 
HETATM   21  S1  UNL     1      29.131  -1.145  53.436  1.00  0.00    -0.073 SA
ENDBRANCH  18  20
ENDBRANCH  17  18
ENDBRANCH   1  17
TORSDOF 3
ENDMDL
MODEL 3
REMARK VINA RESULT:      -7.9      1.882      4.941
REMARK  3 active torsions:
REMARK  status: ('A' for Active; 'I' for Inactive)
REMARK    1  A    between atoms: C1_2  and  N1_3 
REMARK    2  A    between atoms: N1_3  and  N2_4 
REMARK    3  A    between atoms: N2_4  and  C2_5 
ROOT
HETATM    1  C2  UNL     1      26.150   0.061  52.436  1.00  0.00     0.063 A 
HETATM    2  C3  UNL     1      25.051  -0.499  53.170  1.00  0.00     0.026 A 
HETATM    3  C4  UNL     1      23.797  -0.125  53.319  1.00  0.00    -0.015 A 
HETATM    4  C5  UNL     1      22.620   0.688  53.145  1.00  0.00     0.042 A 
HETATM    5  C6  UNL     1      21.882   1.675  52.711  1.00  0.00    -0.015 A 
HETATM    6  C7  UNL     1      21.581   2.886  51.985  1.00  0.00     0.021 A 
HETATM    7  C8  UNL     1      22.465   3.534  51.259  1.00  0.00     0.142 A 
HETATM    8  O1  UNL     1      23.766   3.154  51.100  1.00  0.00    -0.322 OA
HETATM    9  C9  UNL     1      24.699   3.818  50.347  1.00  0.00     0.084 A 
HETATM   10  C10 UNL     1      24.305   4.966  49.693  1.00  0.00     0.038 A 
HETATM   11  C11 UNL     1      25.286   5.591  48.954  1.00  0.00     0.003 A 
HETATM   12  C12 UNL     1      26.594   5.177  48.815  1.00  0.00     0.001 A 
HETATM   13  C13 UNL     1      26.968   4.028  49.475  1.00  0.00     0.014 A 
HETATM   14  C14 UNL     1      25.999   3.403  50.212  1.00  0.00    -0.005 A 
HETATM   15  C15 UNL     1      26.475   2.221  50.863  1.00  0.00    -0.001 A 
HETATM   16  C16 UNL     1      26.513   1.149  51.579  1.00  0.00     0.076 A 
ENDROOT
BRANCH   1  17
HETATM   17  N2  UNL     1      27.210  -0.593  52.539  1.00  0.00    -0.178 NA
BRANCH  17  18
HETATM   18  N1  UNL     1      27.852  -1.232  53.544  1.00  0.00    -0.279 N 
HETATM   19  H2  UNL     1      27.690  -2.063  54.149  1.00  0.00     0.189 HD
BRANCH  18  20
HETATM   20  C1  UNL     1      29.078  -0.551  53.814  1.00  0.00     0.190 C 
HETATM   21  S1  UNL     1      29.191   1.007  54.327  1.00  0.00    -0.073 SA
ENDBRANCH  18  20
ENDBRANCH  17  18
ENDBRANCH   1  17
TORSDOF 3
ENDMDL
MODEL 4
REMARK VINA RESULT:      -7.8      1.253      1.921
REMARK  3 active torsions:
REMARK  status: ('A' for Active; 'I' for Inactive)
REMARK    1  A    between atoms: C1_2  and  N1_3 
REMARK    2  A    between atoms: N1_3  and  N2_4 
REMARK    3  A    between atoms: N2_4  and  C2_5 
ROOT
HETATM    1  C2  UNL     1      26.231   1.381  53.394  1.00  0.00     0.063 A 
HETATM    2  C3  UNL     1      27.034   2.163  52.495  1.00  0.00     0.026 A 
HETATM    3  C4  UNL     1      26.771   2.740  51.341  1.00  0.00    -0.015 A 
HETATM    4  C5  UNL     1      25.989   3.137  50.198  1.00  0.00     0.042 A 
HETATM    5  C6  UNL     1      24.945   3.238  49.419  1.00  0.00    -0.015 A 
HETATM    6  C7  UNL     1      23.580   3.027  48.997  1.00  0.00     0.021 A 
HETATM    7  C8  UNL     1      22.706   2.336  49.695  1.00  0.00     0.142 A 
HETATM    8  O1  UNL     1      22.968   1.735  50.891  1.00  0.00    -0.322 OA
HETATM    9  C9  UNL     1      22.068   1.012  51.630  1.00  0.00     0.084 A 
HETATM   10  C10 UNL     1      20.789   0.872  51.134  1.00  0.00     0.038 A 
HETATM   11  C11 UNL     1      19.929   0.135  51.919  1.00  0.00     0.003 A 
HETATM   12  C12 UNL     1      20.230  -0.459  53.127  1.00  0.00     0.001 A 
HETATM   13  C13 UNL     1      21.512  -0.308  53.605  1.00  0.00     0.014 A 
HETATM   14  C14 UNL     1      22.372   0.423  52.830  1.00  0.00    -0.005 A 
HETATM   15  C15 UNL     1      23.679   0.528  53.403  1.00  0.00    -0.001 A 
HETATM   16  C16 UNL     1      24.918   0.841  53.574  1.00  0.00     0.076 A 
ENDROOT
BRANCH   1  17
HETATM   17  N2  UNL     1      26.845   0.999  54.413  1.00  0.00    -0.178 NA
BRANCH  17  18
HETATM   18  N1  UNL     1      27.410  -0.162  54.818  1.00  0.00    -0.279 N 
HETATM   19  H2  UNL     1      27.090  -1.077  55.197  1.00  0.00     0.189 HD
BRANCH  18  20
HETATM   20  C1  UNL     1      28.826  -0.062  54.666  1.00  0.00     0.190 C 
HETATM   21  S1  UNL     1      29.717  -0.929  53.590  1.00  0.00    -0.073 SA
ENDBRANCH  18  20
ENDBRANCH  17  18
ENDBRANCH   1  17
TORSDOF 3
ENDMDL
MODEL 5
REMARK VINA RESULT:      -7.7      2.736      4.858
REMARK  3 active torsions:
REMARK  status: ('A' for Active; 'I' for Inactive)
REMARK    1  A    between atoms: C1_2  and  N1_3 
REMARK    2  A    between atoms: N1_3  and  N2_4 
REMARK    3  A    between atoms: N2_4  and  C2_5 
ROOT
HETATM    1  C2  UNL     1      25.403   3.387  49.930  1.00  0.00     0.063 A 
HETATM    2  C3  UNL     1      24.026   3.181  49.577  1.00  0.00     0.026 A 
HETATM    3  C4  UNL     1      23.084   2.411  50.081  1.00  0.00    -0.015 A 
HETATM    4  C5  UNL     1      22.486   1.445  50.966  1.00  0.00     0.042 A 
HETATM    5  C6  UNL     1      22.405   0.587  51.949  1.00  0.00    -0.015 A 
HETATM    6  C7  UNL     1      22.873  -0.189  53.072  1.00  0.00     0.021 A 
HETATM    7  C8  UNL     1      24.102  -0.127  53.534  1.00  0.00     0.142 A 
HETATM    8  O1  UNL     1      25.085   0.666  53.018  1.00  0.00    -0.322 OA
HETATM    9  C9  UNL     1      26.370   0.742  53.488  1.00  0.00     0.084 A 
HETATM   10  C10 UNL     1      26.712  -0.043  54.568  1.00  0.00     0.038 A 
HETATM   11  C11 UNL     1      28.017   0.075  54.994  1.00  0.00     0.003 A 
HETATM   12  C12 UNL     1      28.986   0.890  54.448  1.00  0.00     0.001 A 
HETATM   13  C13 UNL     1      28.625   1.667  53.370  1.00  0.00     0.014 A 
HETATM   14  C14 UNL     1      27.331   1.555  52.941  1.00  0.00    -0.005 A 
HETATM   15  C15 UNL     1      27.045   2.396  51.819  1.00  0.00    -0.001 A 
HETATM   16  C16 UNL     1      26.416   2.978  50.856  1.00  0.00     0.076 A 
ENDROOT
BRANCH   1  17
HETATM   17  N2  UNL     1      25.991   4.216  49.203  1.00  0.00    -0.178 NA
BRANCH  17  18
HETATM   18  N1  UNL     1      26.826   5.259  49.413  1.00  0.00    -0.279 N 
HETATM   19  H2  UNL     1      26.893   6.065  50.068  1.00  0.00     0.189 HD
BRANCH  18  20
HETATM   20  C1  UNL     1      27.889   5.198  48.461  1.00  0.00     0.190 C 
HETATM   21  S1  UNL     1      28.881   6.453  48.083  1.00  0.00    -0.073 SA
ENDBRANCH  18  20
ENDBRANCH  17  18
ENDBRANCH   1  17
TORSDOF 3
ENDMDL
MODEL 6
REMARK VINA RESULT:      -7.3      4.020      7.039
REMARK  3 active torsions:
REMARK  status: ('A' for Active; 'I' for Inactive)
REMARK    1  A    between atoms: C1_2  and  N1_3 
REMARK    2  A    between atoms: N1_3  and  N2_4 
REMARK    3  A    between atoms: N2_4  and  C2_5 
ROOT
HETATM    1  C2  UNL     1      21.383  -0.286  53.414  1.00  0.00     0.063 A 
HETATM    2  C3  UNL     1      21.741  -1.059  54.570  1.00  0.00     0.026 A 
HETATM    3  C4  UNL     1      22.886  -1.251  55.192  1.00  0.00    -0.015 A 
HETATM    4  C5  UNL     1      24.295  -1.118  55.459  1.00  0.00     0.042 A 
HETATM    5  C6  UNL     1      25.526  -0.709  55.300  1.00  0.00    -0.015 A 
HETATM    6  C7  UNL     1      26.615   0.007  54.680  1.00  0.00     0.021 A 
HETATM    7  C8  UNL     1      26.470   0.764  53.615  1.00  0.00     0.142 A 
HETATM    8  O1  UNL     1      25.289   0.969  52.963  1.00  0.00    -0.322 OA
HETATM    9  C9  UNL     1      25.122   1.754  51.852  1.00  0.00     0.084 A 
HETATM   10  C10 UNL     1      26.231   2.395  51.341  1.00  0.00     0.038 A 
HETATM   11  C11 UNL     1      26.001   3.170  50.224  1.00  0.00     0.003 A 
HETATM   12  C12 UNL     1      24.790   3.354  49.591  1.00  0.00     0.001 A 
HETATM   13  C13 UNL     1      23.696   2.707  50.117  1.00  0.00     0.014 A 
HETATM   14  C14 UNL     1      23.916   1.935  51.226  1.00  0.00    -0.005 A 
HETATM   15  C15 UNL     1      22.725   1.300  51.703  1.00  0.00    -0.001 A 
HETATM   16  C16 UNL     1      21.921   0.585  52.413  1.00  0.00     0.076 A 
ENDROOT
BRANCH   1  17
HETATM   17  N2  UNL     1      20.170  -0.352  53.120  1.00  0.00    -0.178 NA
BRANCH  17  18
HETATM   18  N1  UNL     1      19.395   0.126  52.120  1.00  0.00    -0.279 N 
HETATM   19  H2  UNL     1      19.476   0.834  51.361  1.00  0.00     0.189 HD
BRANCH  18  20
HETATM   20  C1  UNL     1      18.138  -0.551  52.147  1.00  0.00     0.190 C 
HETATM   21  S1  UNL     1      17.713  -1.697  53.248  1.00  0.00    -0.073 SA
ENDBRANCH  18  20
ENDBRANCH  17  18
ENDBRANCH   1  17
TORSDOF 3
ENDMDL
MODEL 7
REMARK VINA RESULT:      -7.3      3.434      4.397
REMARK  3 active torsions:
REMARK  status: ('A' for Active; 'I' for Inactive)
REMARK    1  A    between atoms: C1_2  and  N1_3 
REMARK    2  A    between atoms: N1_3  and  N2_4 
REMARK    3  A    between atoms: N2_4  and  C2_5 
ROOT
HETATM    1  C2  UNL     1      26.268   4.712  49.246  1.00  0.00     0.063 A 
HETATM    2  C3  UNL     1      25.250   5.703  49.035  1.00  0.00     0.026 A 
HETATM    3  C4  UNL     1      24.027   5.837  49.504  1.00  0.00    -0.015 A 
HETATM    4  C5  UNL     1      22.851   5.508  50.267  1.00  0.00     0.042 A 
HETATM    5  C6  UNL     1      22.083   4.833  51.082  1.00  0.00    -0.015 A 
HETATM    6  C7  UNL     1      21.719   3.763  51.980  1.00  0.00     0.021 A 
HETATM    7  C8  UNL     1      22.526   2.773  52.289  1.00  0.00     0.142 A 
HETATM    8  O1  UNL     1      23.794   2.625  51.808  1.00  0.00    -0.322 OA
HETATM    9  C9  UNL     1      24.647   1.599  52.121  1.00  0.00     0.084 A 
HETATM   10  C10 UNL     1      24.199   0.628  52.991  1.00  0.00     0.038 A 
HETATM   11  C11 UNL     1      25.099  -0.378  53.267  1.00  0.00     0.003 A 
HETATM   12  C12 UNL     1      26.376  -0.494  52.762  1.00  0.00     0.001 A 
HETATM   13  C13 UNL     1      26.806   0.485  51.895  1.00  0.00     0.014 A 
HETATM   14  C14 UNL     1      25.917   1.487  51.615  1.00  0.00    -0.005 A 
HETATM   15  C15 UNL     1      26.446   2.459  50.708  1.00  0.00    -0.001 A 
HETATM   16  C16 UNL     1      26.548   3.498  49.950  1.00  0.00     0.076 A 
ENDROOT
BRANCH   1  17
HETATM   17  N2  UNL     1      27.324   4.931  48.613  1.00  0.00    -0.178 NA
BRANCH  17  18
HETATM   18  N1  UNL     1      28.561   5.374  48.931  1.00  0.00    -0.279 N 
HETATM   19  H2  UNL     1      29.328   5.101  49.579  1.00  0.00     0.189 HD
BRANCH  18  20
HETATM   20  C1  UNL     1      28.856   6.525  48.139  1.00  0.00     0.190 C 
HETATM   21  S1  UNL     1      28.290   8.040  48.439  1.00  0.00    -0.073 SA
ENDBRANCH  18  20
ENDBRANCH  17  18
ENDBRANCH   1  17
TORSDOF 3
ENDMDL
MODEL 8
REMARK VINA RESULT:      -7.2      3.266      6.012
REMARK  3 active torsions:
REMARK  status: ('A' for Active; 'I' for Inactive)
REMARK    1  A    between atoms: C1_2  and  N1_3 
REMARK    2  A    between atoms: N1_3  and  N2_4 
REMARK    3  A    between atoms: N2_4  and  C2_5 
ROOT
HETATM    1  C2  UNL     1      22.969   2.441  51.927  1.00  0.00     0.063 A 
HETATM    2  C3  UNL     1      21.757   1.759  52.288  1.00  0.00     0.026 A 
HETATM    3  C4  UNL     1      21.509   0.765  53.116  1.00  0.00    -0.015 A 
HETATM    4  C5  UNL     1      21.791  -0.266  54.081  1.00  0.00     0.042 A 
HETATM    5  C6  UNL     1      22.502  -1.015  54.883  1.00  0.00    -0.015 A 
HETATM    6  C7  UNL     1      23.694  -1.493  55.540  1.00  0.00     0.021 A 
HETATM    7  C8  UNL     1      24.889  -0.987  55.331  1.00  0.00     0.142 A 
HETATM    8  O1  UNL     1      25.157   0.042  54.476  1.00  0.00    -0.322 OA
HETATM    9  C9  UNL     1      26.396   0.581  54.247  1.00  0.00     0.084 A 
HETATM   10  C10 UNL     1      27.469   0.049  54.929  1.00  0.00     0.038 A 
HETATM   11  C11 UNL     1      28.688   0.631  54.657  1.00  0.00     0.003 A 
HETATM   12  C12 UNL     1      28.922   1.673  53.785  1.00  0.00     0.001 A 
HETATM   13  C13 UNL     1      27.837   2.191  53.113  1.00  0.00     0.014 A 
HETATM   14  C14 UNL     1      26.623   1.618  53.378  1.00  0.00    -0.005 A 
HETATM   15  C15 UNL     1      25.555   2.217  52.637  1.00  0.00    -0.001 A 
HETATM   16  C16 UNL     1      24.378   2.474  52.178  1.00  0.00     0.076 A 
ENDROOT
BRANCH   1  17
HETATM   17  N2  UNL     1      22.802   3.354  51.089  1.00  0.00    -0.178 NA
BRANCH  17  18
HETATM   18  N1  UNL     1      21.868   4.310  50.882  1.00  0.00    -0.279 N 
HETATM   19  H2  UNL     1      20.942   4.386  50.412  1.00  0.00     0.189 HD
BRANCH  18  20
HETATM   20  C1  UNL     1      22.309   5.525  51.489  1.00  0.00     0.190 C 
HETATM   21  S1  UNL     1      23.705   6.308  51.111  1.00  0.00    -0.073 SA
ENDBRANCH  18  20
ENDBRANCH  17  18
ENDBRANCH   1  17
TORSDOF 3
ENDMDL
MODEL 9
REMARK VINA RESULT:      -7.0      2.414      4.592
REMARK  3 active torsions:
REMARK  status: ('A' for Active; 'I' for Inactive)
REMARK    1  A    between atoms: C1_2  and  N1_3 
REMARK    2  A    between atoms: N1_3  and  N2_4 
REMARK    3  A    between atoms: N2_4  and  C2_5 
ROOT
HETATM    1  C2  UNL     1      25.572   1.312  51.982  1.00  0.00     0.063 A 
HETATM    2  C3  UNL     1      26.261   0.709  53.089  1.00  0.00     0.026 A 
HETATM    3  C4  UNL     1      25.852  -0.048  54.086  1.00  0.00    -0.015 A 
HETATM    4  C5  UNL     1      24.925  -0.790  54.901  1.00  0.00     0.042 A 
HETATM    5  C6  UNL     1      23.781  -1.289  55.288  1.00  0.00    -0.015 A 
HETATM    6  C7  UNL     1      22.362  -1.548  55.235  1.00  0.00     0.021 A 
HETATM    7  C8  UNL     1      21.575  -1.078  54.293  1.00  0.00     0.142 A 
HETATM    8  O1  UNL     1      21.988  -0.292  53.257  1.00  0.00    -0.322 OA
HETATM    9  C9  UNL     1      21.181   0.206  52.268  1.00  0.00     0.084 A 
HETATM   10  C10 UNL     1      19.838  -0.103  52.312  1.00  0.00     0.038 A 
HETATM   11  C11 UNL     1      19.076   0.426  51.293  1.00  0.00     0.003 A 
HETATM   12  C12 UNL     1      19.530   1.217  50.258  1.00  0.00     0.001 A 
HETATM   13  C13 UNL     1      20.874   1.514  50.232  1.00  0.00     0.014 A 
HETATM   14  C14 UNL     1      21.637   0.993  51.241  1.00  0.00    -0.005 A 
HETATM   15  C15 UNL     1      23.018   1.352  51.134  1.00  0.00    -0.001 A 
HETATM   16  C16 UNL     1      24.280   1.448  51.381  1.00  0.00     0.076 A 
ENDROOT
BRANCH   1  17
HETATM   17  N2  UNL     1      26.315   1.975  51.227  1.00  0.00    -0.178 NA
BRANCH  17  18
HETATM   18  N1  UNL     1      26.752   3.254  51.188  1.00  0.00    -0.279 N 
HETATM   19  H2  UNL     1      27.201   3.929  51.840  1.00  0.00     0.189 HD
BRANCH  18  20
HETATM   20  C1  UNL     1      26.516   3.782  49.882  1.00  0.00     0.190 C 
HETATM   21  S1  UNL     1      25.228   4.715  49.466  1.00  0.00    -0.073 SA
ENDBRANCH  18  20
ENDBRANCH  17  18
ENDBRANCH   1  17
TORSDOF 3
ENDMDL
