MODEL 1
REMARK VINA RESULT:      -7.1      0.000      0.000
REMARK  7 active torsions:
REMARK  status: ('A' for Active; 'I' for Inactive)
REMARK    1  A    between atoms: C2_2  and  C3_3 
REMARK    2  A    between atoms: C3_3  and  C4_4 
REMARK    3  A    between atoms: C4_4  and  N1_5 
REMARK    4  A    between atoms: N1_5  and  C5_7 
REMARK    5  A    between atoms: C5_7  and  C6_8 
REMARK    6  A    between atoms: C6_8  and  C7_9 
REMARK    7  A    between atoms: C7_9  and  N2_10 
ROOT
HETATM    1  N2  UNL     1      24.091   2.306  51.179  1.00  0.00    -0.314 N 
HETATM    2  C8  UNL     1      24.700   3.281  50.307  1.00  0.00     0.248 C 
HETATM    3  O1  UNL     1      24.012   3.937  49.454  1.00  0.00    -0.271 OA
HETATM    4  C9  UNL     1      26.144   3.622  50.303  1.00  0.00     0.279 C 
HETATM    5  O2  UNL     1      26.934   2.597  50.868  1.00  0.00    -0.340 OA
HETATM    6  C10 UNL     1      26.421   1.634  51.726  1.00  0.00     0.098 A 
HETATM    7  C11 UNL     1      27.255   0.861  52.393  1.00  0.00     0.067 A 
HETATM    8  C12 UNL     1      26.674  -0.134  53.283  1.00  0.00     0.053 A 
HETATM    9  N3  UNL     1      27.506  -0.905  53.939  1.00  0.00    -0.178 NA
HETATM   10  C13 UNL     1      28.903  -0.745  53.760  1.00  0.00     0.206 C 
HETATM   11  N4  UNL     1      30.061  -0.608  53.622  1.00  0.00    -0.170 NA
HETATM   12  C14 UNL     1      25.234  -0.340  53.502  1.00  0.00     0.089 A 
HETATM   13  C15 UNL     1      24.413   0.595  52.691  1.00  0.00     0.012 A 
HETATM   14  C16 UNL     1      24.994   1.476  51.894  1.00  0.00     0.067 A 
ENDROOT
BRANCH   1  15
HETATM   15  C7  UNL     1      22.658   2.327  51.194  1.00  0.00     0.133 C 
BRANCH  15  16
HETATM   16  C6  UNL     1      22.123   1.362  50.140  1.00  0.00     0.036 C 
BRANCH  16  17
HETATM   17  C5  UNL     1      21.272   0.259  50.748  1.00  0.00     0.110 C 
BRANCH  17  18
HETATM   18  N1  UNL     1      20.384   0.827  51.737  1.00  0.00    -0.228 NA
HETATM   19 CL1  UNL     1      18.778   0.952  51.065  1.00  0.00    -0.022 Cl
BRANCH  18  20
HETATM   20  C4  UNL     1      20.338  -0.044  52.883  1.00  0.00     0.108 C 
BRANCH  20  21
HETATM   21  C3  UNL     1      20.865   0.559  54.149  1.00  0.00     0.015 C 
BRANCH  21  22
HETATM   22  C2  UNL     1      21.572  -0.535  54.933  1.00  0.00    -0.003 C 
HETATM   23  C1  UNL     1      21.665  -1.752  54.041  1.00  0.00     0.005 C 
ENDBRANCH  21  22
ENDBRANCH  20  21
ENDBRANCH  18  20
ENDBRANCH  17  18
ENDBRANCH  16  17
ENDBRANCH  15  16
ENDBRANCH   1  15
TORSDOF 7
ENDMDL
MODEL 2
REMARK VINA RESULT:      -6.9      3.334      7.423
REMARK  7 active torsions:
REMARK  status: ('A' for Active; 'I' for Inactive)
REMARK    1  A    between atoms: C2_2  and  C3_3 
REMARK    2  A    between atoms: C3_3  and  C4_4 
REMARK    3  A    between atoms: C4_4  and  N1_5 
REMARK    4  A    between atoms: N1_5  and  C5_7 
REMARK    5  A    between atoms: C5_7  and  C6_8 
REMARK    6  A    between atoms: C6_8  and  C7_9 
REMARK    7  A    between atoms: C7_9  and  N2_10 
ROOT
HETATM    1  N2  UNL     1      23.623  -0.163  53.331  1.00  0.00    -0.314 N 
HETATM    2  C8  UNL     1      23.922  -0.890  54.542  1.00  0.00     0.248 C 
HETATM    3  O1  UNL     1      25.124  -1.145  54.889  1.00  0.00    -0.271 OA
HETATM    4  C9  UNL     1      22.902  -1.404  55.488  1.00  0.00     0.279 C 
HETATM    5  O2  UNL     1      21.635  -1.547  54.880  1.00  0.00    -0.340 OA
HETATM    6  C10 UNL     1      21.272  -0.868  53.725  1.00  0.00     0.098 A 
HETATM    7  C11 UNL     1      20.008  -0.868  53.353  1.00  0.00     0.067 A 
HETATM    8  C12 UNL     1      19.671  -0.143  52.135  1.00  0.00     0.053 A 
HETATM    9  N3  UNL     1      18.415  -0.152  51.765  1.00  0.00    -0.178 NA
HETATM   10  C13 UNL     1      17.456  -0.849  52.544  1.00  0.00     0.206 C 
HETATM   11  N4  UNL     1      16.659  -1.417  53.192  1.00  0.00    -0.170 NA
HETATM   12  C14 UNL     1      20.627   0.593  51.294  1.00  0.00     0.089 A 
HETATM   13  C15 UNL     1      22.010   0.511  51.827  1.00  0.00     0.012 A 
HETATM   14  C16 UNL     1      22.260  -0.167  52.935  1.00  0.00     0.067 A 
ENDROOT
BRANCH   1  15
HETATM   15  C7  UNL     1      24.755   0.461  52.711  1.00  0.00     0.133 C 
BRANCH  15  16
HETATM   16  C6  UNL     1      24.833   1.921  53.147  1.00  0.00     0.036 C 
BRANCH  16  17
HETATM   17  C5  UNL     1      26.150   2.248  53.832  1.00  0.00     0.110 C 
BRANCH  17  18
HETATM   18  N1  UNL     1      27.247   1.879  52.965  1.00  0.00    -0.228 NA
HETATM   19 CL1  UNL     1      27.049   2.664  51.418  1.00  0.00    -0.022 Cl
BRANCH  18  20
HETATM   20  C4  UNL     1      28.483   2.328  53.554  1.00  0.00     0.108 C 
BRANCH  20  21
HETATM   21  C3  UNL     1      29.290   1.250  54.209  1.00  0.00     0.015 C 
BRANCH  21  22
HETATM   22  C2  UNL     1      28.736  -0.093  53.760  1.00  0.00    -0.003 C 
HETATM   23  C1  UNL     1      29.903  -1.042  53.604  1.00  0.00     0.005 C 
ENDBRANCH  21  22
ENDBRANCH  20  21
ENDBRANCH  18  20
ENDBRANCH  17  18
ENDBRANCH  16  17
ENDBRANCH  15  16
ENDBRANCH   1  15
TORSDOF 7
ENDMDL
MODEL 3
REMARK VINA RESULT:      -6.7      3.121      7.149
REMARK  7 active torsions:
REMARK  status: ('A' for Active; 'I' for Inactive)
REMARK    1  A    between atoms: C2_2  and  C3_3 
REMARK    2  A    between atoms: C3_3  and  C4_4 
REMARK    3  A    between atoms: C4_4  and  N1_5 
REMARK    4  A    between atoms: N1_5  and  C5_7 
REMARK    5  A    between atoms: C5_7  and  C6_8 
REMARK    6  A    between atoms: C6_8  and  C7_9 
REMARK    7  A    between atoms: C7_9  and  N2_10 
ROOT
HETATM    1  N2  UNL     1      24.066  -0.236  53.402  1.00  0.00    -0.314 N 
HETATM    2  C8  UNL     1      24.359  -0.913  54.642  1.00  0.00     0.248 C 
HETATM    3  O1  UNL     1      25.556  -1.208  54.975  1.00  0.00    -0.271 OA
HETATM    4  C9  UNL     1      23.340  -1.326  55.637  1.00  0.00     0.279 C 
HETATM    5  O2  UNL     1      22.052  -1.437  55.066  1.00  0.00    -0.340 OA
HETATM    6  C10 UNL     1      21.694  -0.802  53.884  1.00  0.00     0.098 A 
HETATM    7  C11 UNL     1      20.422  -0.759  53.541  1.00  0.00     0.067 A 
HETATM    8  C12 UNL     1      20.091  -0.083  52.294  1.00  0.00     0.053 A 
HETATM    9  N3  UNL     1      18.827  -0.049  51.953  1.00  0.00    -0.178 NA
HETATM   10  C13 UNL     1      17.855  -0.656  52.789  1.00  0.00     0.206 C 
HETATM   11  N4  UNL     1      17.048  -1.149  53.484  1.00  0.00    -0.170 NA
HETATM   12  C14 UNL     1      21.059   0.560  51.395  1.00  0.00     0.089 A 
HETATM   13  C15 UNL     1      22.450   0.438  51.900  1.00  0.00     0.012 A 
HETATM   14  C16 UNL     1      22.695  -0.193  53.037  1.00  0.00     0.067 A 
ENDROOT
BRANCH   1  15
HETATM   15  C7  UNL     1      25.211   0.298  52.724  1.00  0.00     0.133 C 
BRANCH  15  16
HETATM   16  C6  UNL     1      25.442   1.738  53.173  1.00  0.00     0.036 C 
BRANCH  16  17
HETATM   17  C5  UNL     1      25.843   2.643  52.019  1.00  0.00     0.110 C 
BRANCH  17  18
HETATM   18  N1  UNL     1      24.670   2.980  51.243  1.00  0.00    -0.228 NA
HETATM   19 CL1  UNL     1      23.769   4.224  52.071  1.00  0.00    -0.022 Cl
BRANCH  18  20
HETATM   20  C4  UNL     1      25.086   3.488  49.961  1.00  0.00     0.108 C 
BRANCH  20  21
HETATM   21  C3  UNL     1      26.514   3.204  49.610  1.00  0.00     0.015 C 
BRANCH  21  22
HETATM   22  C2  UNL     1      27.108   4.464  48.999  1.00  0.00    -0.003 C 
HETATM   23  C1  UNL     1      26.043   5.537  49.034  1.00  0.00     0.005 C 
ENDBRANCH  21  22
ENDBRANCH  20  21
ENDBRANCH  18  20
ENDBRANCH  17  18
ENDBRANCH  16  17
ENDBRANCH  15  16
ENDBRANCH   1  15
TORSDOF 7
ENDMDL
MODEL 4
REMARK VINA RESULT:      -6.6      2.843      4.415
REMARK  7 active torsions:
REMARK  status: ('A' for Active; 'I' for Inactive)
REMARK    1  A    between atoms: C2_2  and  C3_3 
REMARK    2  A    between atoms: C3_3  and  C4_4 
REMARK    3  A    between atoms: C4_4  and  N1_5 
REMARK    4  A    between atoms: N1_5  and  C5_7 
REMARK    5  A    between atoms: C5_7  and  C6_8 
REMARK    6  A    between atoms: C6_8  and  C7_9 
REMARK    7  A    between atoms: C7_9  and  N2_10 
ROOT
HETATM    1  N2  UNL     1      23.088  -0.410  53.470  1.00  0.00    -0.314 N 
HETATM    2  C8  UNL     1      22.992  -1.152  54.704  1.00  0.00     0.248 C 
HETATM    3  O1  UNL     1      21.887  -1.660  55.093  1.00  0.00    -0.271 OA
HETATM    4  C9  UNL     1      24.126  -1.401  55.627  1.00  0.00     0.279 C 
HETATM    5  O2  UNL     1      25.171  -0.466  55.451  1.00  0.00    -0.340 OA
HETATM    6  C10 UNL     1      25.335   0.271  54.286  1.00  0.00     0.098 A 
HETATM    7  C11 UNL     1      26.456   0.939  54.105  1.00  0.00     0.067 A 
HETATM    8  C12 UNL     1      26.587   1.699  52.869  1.00  0.00     0.053 A 
HETATM    9  N3  UNL     1      27.700   2.368  52.696  1.00  0.00    -0.178 NA
HETATM   10  C13 UNL     1      28.707   2.329  53.693  1.00  0.00     0.206 C 
HETATM   11  N4  UNL     1      29.547   2.289  54.512  1.00  0.00    -0.170 NA
HETATM   12  C14 UNL     1      25.573   1.772  51.806  1.00  0.00     0.089 A 
HETATM   13  C15 UNL     1      24.365   0.974  52.139  1.00  0.00     0.012 A 
HETATM   14  C16 UNL     1      24.298   0.309  53.280  1.00  0.00     0.067 A 
ENDROOT
BRANCH   1  15
HETATM   15  C7  UNL     1      21.943  -0.517  52.614  1.00  0.00     0.133 C 
BRANCH  15  16
HETATM   16  C6  UNL     1      21.015   0.670  52.855  1.00  0.00     0.036 C 
BRANCH  16  17
HETATM   17  C5  UNL     1      20.131   0.963  51.653  1.00  0.00     0.110 C 
BRANCH  17  18
HETATM   18  N1  UNL     1      20.190   2.375  51.346  1.00  0.00    -0.228 NA
HETATM   19 CL1  UNL     1      21.446   3.120  52.301  1.00  0.00    -0.022 Cl
BRANCH  18  20
HETATM   20  C4  UNL     1      20.514   2.538  49.952  1.00  0.00     0.108 C 
BRANCH  20  21
HETATM   21  C3  UNL     1      20.841   1.266  49.232  1.00  0.00     0.015 C 
BRANCH  21  22
HETATM   22  C2  UNL     1      21.973   1.553  48.259  1.00  0.00    -0.003 C 
HETATM   23  C1  UNL     1      22.860   2.607  48.883  1.00  0.00     0.005 C 
ENDBRANCH  21  22
ENDBRANCH  20  21
ENDBRANCH  18  20
ENDBRANCH  17  18
ENDBRANCH  16  17
ENDBRANCH  15  16
ENDBRANCH   1  15
TORSDOF 7
ENDMDL
MODEL 5
REMARK VINA RESULT:      -6.6      2.874      5.180
REMARK  7 active torsions:
REMARK  status: ('A' for Active; 'I' for Inactive)
REMARK    1  A    between atoms: C2_2  and  C3_3 
REMARK    2  A    between atoms: C3_3  and  C4_4 
REMARK    3  A    between atoms: C4_4  and  N1_5 
REMARK    4  A    between atoms: N1_5  and  C5_7 
REMARK    5  A    between atoms: C5_7  and  C6_8 
REMARK    6  A    between atoms: C6_8  and  C7_9 
REMARK    7  A    between atoms: C7_9  and  N2_10 
ROOT
HETATM    1  N2  UNL     1      23.840   1.939  52.843  1.00  0.00    -0.314 N 
HETATM    2  C8  UNL     1      22.743   1.016  53.012  1.00  0.00     0.248 C 
HETATM    3  O1  UNL     1      21.547   1.427  53.189  1.00  0.00    -0.271 OA
HETATM    4  C9  UNL     1      22.875  -0.461  52.999  1.00  0.00     0.279 C 
HETATM    5  O2  UNL     1      24.194  -0.880  53.286  1.00  0.00    -0.340 OA
HETATM    6  C10 UNL     1      25.299  -0.054  53.132  1.00  0.00     0.098 A 
HETATM    7  C11 UNL     1      26.505  -0.581  53.191  1.00  0.00     0.067 A 
HETATM    8  C12 UNL     1      27.636   0.322  53.024  1.00  0.00     0.053 A 
HETATM    9  N3  UNL     1      28.833  -0.205  53.091  1.00  0.00    -0.178 NA
HETATM   10  C13 UNL     1      28.978  -1.596  53.318  1.00  0.00     0.206 C 
HETATM   11  N4  UNL     1      29.101  -2.750  53.496  1.00  0.00    -0.170 NA
HETATM   12  C14 UNL     1      27.538   1.770  52.787  1.00  0.00     0.089 A 
HETATM   13  C15 UNL     1      26.126   2.229  52.743  1.00  0.00     0.012 A 
HETATM   14  C16 UNL     1      25.138   1.366  52.908  1.00  0.00     0.067 A 
ENDROOT
BRANCH   1  15
HETATM   15  C7  UNL     1      23.451   3.301  52.628  1.00  0.00     0.133 C 
BRANCH  15  16
HETATM   16  C6  UNL     1      23.302   3.558  51.131  1.00  0.00     0.036 C 
BRANCH  16  17
HETATM   17  C5  UNL     1      22.665   4.908  50.839  1.00  0.00     0.110 C 
BRANCH  17  18
HETATM   18  N1  UNL     1      23.597   5.728  50.098  1.00  0.00    -0.228 NA
HETATM   19 CL1  UNL     1      24.379   6.842  51.190  1.00  0.00    -0.022 Cl
BRANCH  18  20
HETATM   20  C4  UNL     1      24.600   4.881  49.506  1.00  0.00     0.108 C 
BRANCH  20  21
HETATM   21  C3  UNL     1      25.923   5.545  49.279  1.00  0.00     0.015 C 
BRANCH  21  22
HETATM   22  C2  UNL     1      26.966   4.457  49.070  1.00  0.00    -0.003 C 
HETATM   23  C1  UNL     1      28.197   5.109  48.481  1.00  0.00     0.005 C 
ENDBRANCH  21  22
ENDBRANCH  20  21
ENDBRANCH  18  20
ENDBRANCH  17  18
ENDBRANCH  16  17
ENDBRANCH  15  16
ENDBRANCH   1  15
TORSDOF 7
ENDMDL
MODEL 6
REMARK VINA RESULT:      -6.5      1.661      1.935
REMARK  7 active torsions:
REMARK  status: ('A' for Active; 'I' for Inactive)
REMARK    1  A    between atoms: C2_2  and  C3_3 
REMARK    2  A    between atoms: C3_3  and  C4_4 
REMARK    3  A    between atoms: C4_4  and  N1_5 
REMARK    4  A    between atoms: N1_5  and  C5_7 
REMARK    5  A    between atoms: C5_7  and  C6_8 
REMARK    6  A    between atoms: C6_8  and  C7_9 
REMARK    7  A    between atoms: C7_9  and  N2_10 
ROOT
HETATM    1  N2  UNL     1      24.029   2.506  50.937  1.00  0.00    -0.314 N 
HETATM    2  C8  UNL     1      24.705   3.466  50.098  1.00  0.00     0.248 C 
HETATM    3  O1  UNL     1      24.081   4.123  49.198  1.00  0.00    -0.271 OA
HETATM    4  C9  UNL     1      26.150   3.789  50.183  1.00  0.00     0.279 C 
HETATM    5  O2  UNL     1      26.889   2.758  50.804  1.00  0.00    -0.340 OA
HETATM    6  C10 UNL     1      26.310   1.809  51.636  1.00  0.00     0.098 A 
HETATM    7  C11 UNL     1      27.090   1.032  52.360  1.00  0.00     0.067 A 
HETATM    8  C12 UNL     1      26.440   0.051  53.220  1.00  0.00     0.053 A 
HETATM    9  N3  UNL     1      27.219  -0.724  53.932  1.00  0.00    -0.178 NA
HETATM   10  C13 UNL     1      28.626  -0.584  53.841  1.00  0.00     0.206 C 
HETATM   11  N4  UNL     1      29.792  -0.462  53.776  1.00  0.00    -0.170 NA
HETATM   12  C14 UNL     1      24.987  -0.134  53.348  1.00  0.00     0.089 A 
HETATM   13  C15 UNL     1      24.231   0.804  52.480  1.00  0.00     0.012 A 
HETATM   14  C16 UNL     1      24.873   1.671  51.715  1.00  0.00     0.067 A 
ENDROOT
BRANCH   1  15
HETATM   15  C7  UNL     1      22.598   2.546  50.862  1.00  0.00     0.133 C 
BRANCH  15  16
HETATM   16  C6  UNL     1      22.057   3.490  51.932  1.00  0.00     0.036 C 
BRANCH  16  17
HETATM   17  C5  UNL     1      20.703   3.045  52.461  1.00  0.00     0.110 C 
BRANCH  17  18
HETATM   18  N1  UNL     1      20.553   1.621  52.259  1.00  0.00    -0.228 NA
HETATM   19 CL1  UNL     1      20.811   0.794  53.775  1.00  0.00    -0.022 Cl
BRANCH  18  20
HETATM   20  C4  UNL     1      19.212   1.349  51.809  1.00  0.00     0.108 C 
BRANCH  20  21
HETATM   21  C3  UNL     1      18.890  -0.104  51.645  1.00  0.00     0.015 C 
BRANCH  21  22
HETATM   22  C2  UNL     1      17.575  -0.379  52.358  1.00  0.00    -0.003 C 
HETATM   23  C1  UNL     1      17.762  -1.620  53.202  1.00  0.00     0.005 C 
ENDBRANCH  21  22
ENDBRANCH  20  21
ENDBRANCH  18  20
ENDBRANCH  17  18
ENDBRANCH  16  17
ENDBRANCH  15  16
ENDBRANCH   1  15
TORSDOF 7
ENDMDL
MODEL 7
REMARK VINA RESULT:      -6.5      2.000      2.462
REMARK  7 active torsions:
REMARK  status: ('A' for Active; 'I' for Inactive)
REMARK    1  A    between atoms: C2_2  and  C3_3 
REMARK    2  A    between atoms: C3_3  and  C4_4 
REMARK    3  A    between atoms: C4_4  and  N1_5 
REMARK    4  A    between atoms: N1_5  and  C5_7 
REMARK    5  A    between atoms: C5_7  and  C6_8 
REMARK    6  A    between atoms: C6_8  and  C7_9 
REMARK    7  A    between atoms: C7_9  and  N2_10 
ROOT
HETATM    1  N2  UNL     1      23.149   1.128  51.611  1.00  0.00    -0.314 N 
HETATM    2  C8  UNL     1      23.375   2.144  50.611  1.00  0.00     0.248 C 
HETATM    3  O1  UNL     1      22.469   2.466  49.770  1.00  0.00    -0.271 OA
HETATM    4  C9  UNL     1      24.639   2.903  50.452  1.00  0.00     0.279 C 
HETATM    5  O2  UNL     1      25.739   2.230  51.028  1.00  0.00    -0.340 OA
HETATM    6  C10 UNL     1      25.600   1.255  52.006  1.00  0.00     0.098 A 
HETATM    7  C11 UNL     1      26.669   0.846  52.659  1.00  0.00     0.067 A 
HETATM    8  C12 UNL     1      26.477  -0.178  53.677  1.00  0.00     0.053 A 
HETATM    9  N3  UNL     1      27.543  -0.587  54.319  1.00  0.00    -0.178 NA
HETATM   10  C13 UNL     1      28.810  -0.032  54.006  1.00  0.00     0.206 C 
HETATM   11  N4  UNL     1      29.858   0.434  53.756  1.00  0.00    -0.170 NA
HETATM   12  C14 UNL     1      25.187  -0.785  54.037  1.00  0.00     0.089 A 
HETATM   13  C15 UNL     1      24.071  -0.234  53.227  1.00  0.00     0.012 A 
HETATM   14  C16 UNL     1      24.304   0.691  52.311  1.00  0.00     0.067 A 
ENDROOT
BRANCH   1  15
HETATM   15  C7  UNL     1      21.783   0.716  51.750  1.00  0.00     0.133 C 
BRANCH  15  16
HETATM   16  C6  UNL     1      21.110   1.545  52.841  1.00  0.00     0.036 C 
BRANCH  16  17
HETATM   17  C5  UNL     1      20.582   0.682  53.976  1.00  0.00     0.110 C 
BRANCH  17  18
HETATM   18  N1  UNL     1      20.267  -0.636  53.471  1.00  0.00    -0.228 NA
HETATM   19 CL1  UNL     1      21.211  -1.824  54.334  1.00  0.00    -0.022 Cl
BRANCH  18  20
HETATM   20  C4  UNL     1      18.870  -0.903  53.698  1.00  0.00     0.108 C 
BRANCH  20  21
HETATM   21  C3  UNL     1      18.039  -0.978  52.454  1.00  0.00     0.015 C 
BRANCH  21  22
HETATM   22  C2  UNL     1      16.874  -1.918  52.722  1.00  0.00    -0.003 C 
HETATM   23  C1  UNL     1      17.406  -3.094  53.511  1.00  0.00     0.005 C 
ENDBRANCH  21  22
ENDBRANCH  20  21
ENDBRANCH  18  20
ENDBRANCH  17  18
ENDBRANCH  16  17
ENDBRANCH  15  16
ENDBRANCH   1  15
TORSDOF 7
ENDMDL
MODEL 8
REMARK VINA RESULT:      -6.2      3.231      6.740
REMARK  7 active torsions:
REMARK  status: ('A' for Active; 'I' for Inactive)
REMARK    1  A    between atoms: C2_2  and  C3_3 
REMARK    2  A    between atoms: C3_3  and  C4_4 
REMARK    3  A    between atoms: C4_4  and  N1_5 
REMARK    4  A    between atoms: N1_5  and  C5_7 
REMARK    5  A    between atoms: C5_7  and  C6_8 
REMARK    6  A    between atoms: C6_8  and  C7_9 
REMARK    7  A    between atoms: C7_9  and  N2_10 
ROOT
HETATM    1  N2  UNL     1      24.774   2.676  50.726  1.00  0.00    -0.314 N 
HETATM    2  C8  UNL     1      26.110   2.653  51.272  1.00  0.00     0.248 C 
HETATM    3  O1  UNL     1      27.090   3.200  50.662  1.00  0.00    -0.271 OA
HETATM    4  C9  UNL     1      26.483   2.015  52.557  1.00  0.00     0.279 C 
HETATM    5  O2  UNL     1      25.545   1.037  52.959  1.00  0.00    -0.340 OA
HETATM    6  C10 UNL     1      24.239   1.007  52.489  1.00  0.00     0.098 A 
HETATM    7  C11 UNL     1      23.365   0.219  53.081  1.00  0.00     0.067 A 
HETATM    8  C12 UNL     1      22.006   0.219  52.557  1.00  0.00     0.053 A 
HETATM    9  N3  UNL     1      21.141  -0.571  53.143  1.00  0.00    -0.178 NA
HETATM   10  C13 UNL     1      21.551  -1.374  54.237  1.00  0.00     0.206 C 
HETATM   11  N4  UNL     1      21.885  -2.032  55.150  1.00  0.00    -0.170 NA
HETATM   12  C14 UNL     1      21.533   1.032  51.426  1.00  0.00     0.089 A 
HETATM   13  C15 UNL     1      22.617   1.870  50.855  1.00  0.00     0.012 A 
HETATM   14  C16 UNL     1      23.836   1.826  51.368  1.00  0.00     0.067 A 
ENDROOT
BRANCH   1  15
HETATM   15  C7  UNL     1      24.594   3.565  49.616  1.00  0.00     0.133 C 
BRANCH  15  16
HETATM   16  C6  UNL     1      24.063   4.905  50.117  1.00  0.00     0.036 C 
BRANCH  16  17
HETATM   17  C5  UNL     1      25.114   6.002  50.048  1.00  0.00     0.110 C 
BRANCH  17  18
HETATM   18  N1  UNL     1      25.701   6.023  48.727  1.00  0.00    -0.228 NA
HETATM   19 CL1  UNL     1      24.799   7.120  47.712  1.00  0.00    -0.022 Cl
BRANCH  18  20
HETATM   20  C4  UNL     1      27.058   6.495  48.824  1.00  0.00     0.108 C 
BRANCH  20  21
HETATM   21  C3  UNL     1      28.097   5.503  48.400  1.00  0.00     0.015 C 
BRANCH  21  22
HETATM   22  C2  UNL     1      29.269   6.272  47.810  1.00  0.00    -0.003 C 
HETATM   23  C1  UNL     1      29.166   7.703  48.286  1.00  0.00     0.005 C 
ENDBRANCH  21  22
ENDBRANCH  20  21
ENDBRANCH  18  20
ENDBRANCH  17  18
ENDBRANCH  16  17
ENDBRANCH  15  16
ENDBRANCH   1  15
TORSDOF 7
ENDMDL
MODEL 9
REMARK VINA RESULT:      -6.1      3.664      6.399
REMARK  7 active torsions:
REMARK  status: ('A' for Active; 'I' for Inactive)
REMARK    1  A    between atoms: C2_2  and  C3_3 
REMARK    2  A    between atoms: C3_3  and  C4_4 
REMARK    3  A    between atoms: C4_4  and  N1_5 
REMARK    4  A    between atoms: N1_5  and  C5_7 
REMARK    5  A    between atoms: C5_7  and  C6_8 
REMARK    6  A    between atoms: C6_8  and  C7_9 
REMARK    7  A    between atoms: C7_9  and  N2_10 
ROOT
HETATM    1  N2  UNL     1      24.582   4.594  50.577  1.00  0.00    -0.314 N 
HETATM    2  C8  UNL     1      23.650   5.560  51.108  1.00  0.00     0.248 C 
HETATM    3  O1  UNL     1      22.522   5.205  51.589  1.00  0.00    -0.271 OA
HETATM    4  C9  UNL     1      23.889   7.023  51.155  1.00  0.00     0.279 C 
HETATM    5  O2  UNL     1      24.867   7.432  50.221  1.00  0.00    -0.340 OA
HETATM    6  C10 UNL     1      25.805   6.564  49.680  1.00  0.00     0.098 A 
HETATM    7  C11 UNL     1      26.823   7.059  49.006  1.00  0.00     0.067 A 
HETATM    8  C12 UNL     1      27.783   6.112  48.456  1.00  0.00     0.053 A 
HETATM    9  N3  UNL     1      28.789   6.608  47.780  1.00  0.00    -0.178 NA
HETATM   10  C13 UNL     1      28.901   8.012  47.614  1.00  0.00     0.206 C 
HETATM   11  N4  UNL     1      29.002   9.174  47.483  1.00  0.00    -0.170 NA
HETATM   12  C14 UNL     1      27.711   4.650  48.600  1.00  0.00     0.089 A 
HETATM   13  C15 UNL     1      26.519   4.230  49.380  1.00  0.00     0.012 A 
HETATM   14  C16 UNL     1      25.676   5.133  49.851  1.00  0.00     0.067 A 
ENDROOT
BRANCH   1  15
HETATM   15  C7  UNL     1      24.261   3.227  50.869  1.00  0.00     0.133 C 
BRANCH  15  16
HETATM   16  C6  UNL     1      24.873   2.838  52.212  1.00  0.00     0.036 C 
BRANCH  16  17
HETATM   17  C5  UNL     1      25.648   1.532  52.134  1.00  0.00     0.110 C 
BRANCH  17  18
HETATM   18  N1  UNL     1      25.267   0.681  53.239  1.00  0.00    -0.228 NA
HETATM   19 CL1  UNL     1      23.562   0.325  53.131  1.00  0.00    -0.022 Cl
BRANCH  18  20
HETATM   20  C4  UNL     1      26.002  -0.555  53.153  1.00  0.00     0.108 C 
BRANCH  20  21
HETATM   21  C3  UNL     1      27.431  -0.405  52.734  1.00  0.00     0.015 C 
BRANCH  21  22
HETATM   22  C2  UNL     1      28.294  -0.419  53.987  1.00  0.00    -0.003 C 
HETATM   23  C1  UNL     1      29.729  -0.212  53.559  1.00  0.00     0.005 C 
ENDBRANCH  21  22
ENDBRANCH  20  21
ENDBRANCH  18  20
ENDBRANCH  17  18
ENDBRANCH  16  17
ENDBRANCH  15  16
ENDBRANCH   1  15
TORSDOF 7
ENDMDL
