MODEL 1
REMARK VINA RESULT:      -8.1      0.000      0.000
REMARK  7 active torsions:
REMARK  status: ('A' for Active; 'I' for Inactive)
REMARK       I    between atoms: C2_2  and  N1_4 
REMARK    1  A    between atoms: N1_4  and  C3_5 
REMARK    2  A    between atoms: C8_10  and  N2_11 
REMARK    3  A    between atoms: N2_11  and  C9_12 
REMARK    4  A    between atoms: C10_13  and  C11_14 
REMARK    5  A    between atoms: C11_14  and  C12_15 
REMARK    6  A    between atoms: C11_14  and  C14_18 
REMARK    7  A    between atoms: C13_16  and  N3_17 
ROOT
HETATM    1  N2  UNL     1      26.141   4.053  49.271  1.00  0.00    -0.315 N 
HETATM    2  H10 UNL     1      25.222   3.878  48.783  1.00  0.00     0.176 HD
ENDROOT
BRANCH   1   3
HETATM    3  C8  UNL     1      26.946   5.120  48.872  1.00  0.00     0.048 A 
HETATM    4  C6  UNL     1      26.560   6.440  48.806  1.00  0.00    -0.035 A 
HETATM    5  C5  UNL     1      27.470   7.420  48.388  1.00  0.00     0.011 A 
HETATM    6  C7  UNL     1      25.193   6.801  49.178  1.00  0.00     0.050 C 
HETATM    7  C4  UNL     1      28.772   7.158  48.023  1.00  0.00     0.030 A 
HETATM    8  C3  UNL     1      29.124   5.829  48.101  1.00  0.00     0.036 A 
HETATM    9  C19 UNL     1      28.251   4.860  48.506  1.00  0.00     0.060 A 
BRANCH   8  10
HETATM   10  N1  UNL     1      30.479   5.503  47.728  1.00  0.00    -0.327 N 
HETATM   11  C2  UNL     1      31.583   5.400  48.613  1.00  0.00     0.218 C 
HETATM   12  C1  UNL     1      32.925   5.052  48.058  1.00  0.00     0.117 C 
HETATM   13  O1  UNL     1      31.493   5.589  49.851  1.00  0.00    -0.274 OA
HETATM   14  H4  UNL     1      30.553   5.344  46.684  1.00  0.00     0.169 HD
ENDBRANCH   8  10
ENDBRANCH   1   3
BRANCH   1  15
HETATM   15  C9  UNL     1      26.378   3.120  50.283  1.00  0.00     0.012 C 
HETATM   16  C10 UNL     1      26.595   2.304  51.143  1.00  0.00    -0.070 C 
BRANCH  16  17
HETATM   17  C11 UNL     1      26.887   1.312  52.200  1.00  0.00     0.124 C 
BRANCH  17  18
HETATM   18  C12 UNL     1      27.622   1.982  53.277  1.00  0.00     0.006 C 
HETATM   19  C13 UNL     1      28.868   1.637  53.556  1.00  0.00     0.051 C 
BRANCH  19  20
HETATM   20  N3  UNL     1      29.522   2.324  54.609  1.00  0.00    -0.312 NA
HETATM   21  H14 UNL     1      30.175   2.910  55.147  1.00  0.00     0.123 HD
HETATM   22  H15 UNL     1      30.364   2.945  54.620  1.00  0.00     0.123 HD
ENDBRANCH  19  20
ENDBRANCH  17  18
BRANCH  17  23
HETATM   23  C14 UNL     1      25.629   0.730  52.731  1.00  0.00    -0.021 A 
HETATM   24  C15 UNL     1      24.354   1.008  52.255  1.00  0.00     0.011 A 
HETATM   25  C16 UNL     1      23.222   0.440  52.787  1.00  0.00     0.020 A 
HETATM   26  C17 UNL     1      23.305  -0.449  53.838  1.00  0.00     0.116 A 
HETATM   27  N4  UNL     1      24.526  -0.733  54.314  1.00  0.00    -0.273 NA
HETATM   28  C18 UNL     1      25.635  -0.176  53.793  1.00  0.00     0.124 A 
ENDBRANCH  17  23
ENDBRANCH  16  17
ENDBRANCH   1  15
TORSDOF 7
ENDMDL
MODEL 2
REMARK VINA RESULT:      -7.8      1.427      2.987
REMARK  7 active torsions:
REMARK  status: ('A' for Active; 'I' for Inactive)
REMARK       I    between atoms: C2_2  and  N1_4 
REMARK    1  A    between atoms: N1_4  and  C3_5 
REMARK    2  A    between atoms: C8_10  and  N2_11 
REMARK    3  A    between atoms: N2_11  and  C9_12 
REMARK    4  A    between atoms: C10_13  and  C11_14 
REMARK    5  A    between atoms: C11_14  and  C12_15 
REMARK    6  A    between atoms: C11_14  and  C14_18 
REMARK    7  A    between atoms: C13_16  and  N3_17 
ROOT
HETATM    1  N2  UNL     1      26.527   3.367  49.344  1.00  0.00    -0.315 N 
HETATM    2  H10 UNL     1      26.153   2.707  48.610  1.00  0.00     0.176 HD
ENDROOT
BRANCH   1   3
HETATM    3  C8  UNL     1      26.999   4.626  48.970  1.00  0.00     0.048 A 
HETATM    4  C6  UNL     1      26.272   5.795  48.983  1.00  0.00    -0.035 A 
HETATM    5  C5  UNL     1      26.867   6.999  48.582  1.00  0.00     0.011 A 
HETATM    6  C7  UNL     1      24.877   5.761  49.419  1.00  0.00     0.050 C 
HETATM    7  C4  UNL     1      28.174   7.110  48.160  1.00  0.00     0.030 A 
HETATM    8  C3  UNL     1      28.871   5.923  48.160  1.00  0.00     0.036 A 
HETATM    9  C19 UNL     1      28.308   4.740  48.548  1.00  0.00     0.060 A 
BRANCH   8  10
HETATM   10  N1  UNL     1      30.245   5.987  47.726  1.00  0.00    -0.327 N 
HETATM   11  C2  UNL     1      31.386   5.771  48.541  1.00  0.00     0.218 C 
HETATM   12  C1  UNL     1      32.743   5.876  47.928  1.00  0.00     0.117 C 
HETATM   13  O1  UNL     1      31.316   5.494  49.764  1.00  0.00    -0.274 OA
HETATM   14  H4  UNL     1      30.301   6.220  46.695  1.00  0.00     0.169 HD
ENDBRANCH   8  10
ENDBRANCH   1   3
BRANCH   1  15
HETATM   15  C9  UNL     1      26.468   2.809  50.623  1.00  0.00     0.012 C 
HETATM   16  C10 UNL     1      26.433   2.314  51.721  1.00  0.00    -0.070 C 
BRANCH  16  17
HETATM   17  C11 UNL     1      26.414   1.718  53.074  1.00  0.00     0.124 C 
BRANCH  17  18
HETATM   18  C12 UNL     1      25.112   1.077  53.282  1.00  0.00     0.006 C 
HETATM   19  C13 UNL     1      23.992   1.721  52.998  1.00  0.00     0.051 C 
BRANCH  19  20
HETATM   20  N3  UNL     1      22.768   1.044  53.222  1.00  0.00    -0.312 NA
HETATM   21  H14 UNL     1      21.864   0.570  53.085  1.00  0.00     0.123 HD
HETATM   22  H15 UNL     1      22.027   0.705  52.566  1.00  0.00     0.123 HD
ENDBRANCH  19  20
ENDBRANCH  17  18
BRANCH  17  23
HETATM   23  C14 UNL     1      27.500   0.718  53.221  1.00  0.00    -0.021 A 
HETATM   24  C15 UNL     1      28.835   1.016  53.462  1.00  0.00     0.011 A 
HETATM   25  C16 UNL     1      29.801   0.047  53.588  1.00  0.00     0.020 A 
HETATM   26  C17 UNL     1      29.481  -1.289  53.478  1.00  0.00     0.116 A 
HETATM   27  N4  UNL     1      28.197  -1.601  53.245  1.00  0.00    -0.273 NA
HETATM   28  C18 UNL     1      27.251  -0.652  53.121  1.00  0.00     0.124 A 
ENDBRANCH  17  23
ENDBRANCH  16  17
ENDBRANCH   1  15
TORSDOF 7
ENDMDL
MODEL 3
REMARK VINA RESULT:      -7.8      3.363      8.052
REMARK  7 active torsions:
REMARK  status: ('A' for Active; 'I' for Inactive)
REMARK       I    between atoms: C2_2  and  N1_4 
REMARK    1  A    between atoms: N1_4  and  C3_5 
REMARK    2  A    between atoms: C8_10  and  N2_11 
REMARK    3  A    between atoms: N2_11  and  C9_12 
REMARK    4  A    between atoms: C10_13  and  C11_14 
REMARK    5  A    between atoms: C11_14  and  C12_15 
REMARK    6  A    between atoms: C11_14  and  C14_18 
REMARK    7  A    between atoms: C13_16  and  N3_17 
ROOT
HETATM    1  N2  UNL     1      22.439   0.502  52.032  1.00  0.00    -0.315 N 
HETATM    2  H10 UNL     1      21.562   0.106  51.598  1.00  0.00     0.176 HD
ENDROOT
BRANCH   1   3
HETATM    3  C8  UNL     1      22.982  -0.097  53.169  1.00  0.00     0.048 A 
HETATM    4  C6  UNL     1      22.266  -0.637  54.214  1.00  0.00    -0.035 A 
HETATM    5  C5  UNL     1      22.935  -1.213  55.303  1.00  0.00     0.011 A 
HETATM    6  C7  UNL     1      20.806  -0.601  54.171  1.00  0.00     0.050 C 
HETATM    7  C4  UNL     1      24.307  -1.285  55.415  1.00  0.00     0.030 A 
HETATM    8  C3  UNL     1      24.990  -0.736  54.353  1.00  0.00     0.036 A 
HETATM    9  C19 UNL     1      24.355  -0.170  53.283  1.00  0.00     0.060 A 
BRANCH   8  10
HETATM   10  N1  UNL     1      26.430  -0.786  54.424  1.00  0.00    -0.327 N 
HETATM   11  C2  UNL     1      27.291   0.320  54.641  1.00  0.00     0.218 C 
HETATM   12  C1  UNL     1      28.766   0.091  54.685  1.00  0.00     0.117 C 
HETATM   13  O1  UNL     1      26.877   1.495  54.798  1.00  0.00    -0.274 OA
HETATM   14  H4  UNL     1      26.777  -1.778  54.291  1.00  0.00     0.169 HD
ENDBRANCH   8  10
ENDBRANCH   1   3
BRANCH   1  15
HETATM   15  C9  UNL     1      22.908   1.615  51.332  1.00  0.00     0.012 C 
HETATM   16  C10 UNL     1      23.329   2.566  50.722  1.00  0.00    -0.070 C 
BRANCH  16  17
HETATM   17  C11 UNL     1      23.842   3.719  49.952  1.00  0.00     0.124 C 
BRANCH  17  18
HETATM   18  C12 UNL     1      25.272   3.512  49.700  1.00  0.00     0.006 C 
HETATM   19  C13 UNL     1      26.098   4.542  49.633  1.00  0.00     0.051 C 
BRANCH  19  20
HETATM   20  N3  UNL     1      27.467   4.273  49.387  1.00  0.00    -0.312 NA
HETATM   21  H14 UNL     1      28.355   4.011  48.934  1.00  0.00     0.123 HD
HETATM   22  H15 UNL     1      27.971   3.945  48.531  1.00  0.00     0.123 HD
ENDBRANCH  19  20
ENDBRANCH  17  18
BRANCH  17  23
HETATM   23  C14 UNL     1      23.115   3.852  48.665  1.00  0.00    -0.021 A 
HETATM   24  C15 UNL     1      22.599   2.797  47.924  1.00  0.00     0.011 A 
HETATM   25  C16 UNL     1      21.934   2.978  46.735  1.00  0.00     0.020 A 
HETATM   26  C17 UNL     1      21.747   4.242  46.217  1.00  0.00     0.116 A 
HETATM   27  N4  UNL     1      22.236   5.277  46.916  1.00  0.00    -0.273 NA
HETATM   28  C18 UNL     1      22.888   5.098  48.080  1.00  0.00     0.124 A 
ENDBRANCH  17  23
ENDBRANCH  16  17
ENDBRANCH   1  15
TORSDOF 7
ENDMDL
MODEL 4
REMARK VINA RESULT:      -7.7      2.695      7.773
REMARK  7 active torsions:
REMARK  status: ('A' for Active; 'I' for Inactive)
REMARK       I    between atoms: C2_2  and  N1_4 
REMARK    1  A    between atoms: N1_4  and  C3_5 
REMARK    2  A    between atoms: C8_10  and  N2_11 
REMARK    3  A    between atoms: N2_11  and  C9_12 
REMARK    4  A    between atoms: C10_13  and  C11_14 
REMARK    5  A    between atoms: C11_14  and  C12_15 
REMARK    6  A    between atoms: C11_14  and  C14_18 
REMARK    7  A    between atoms: C13_16  and  N3_17 
ROOT
HETATM    1  N2  UNL     1      24.522   3.378  52.435  1.00  0.00    -0.315 N 
HETATM    2  H10 UNL     1      24.246   4.016  53.229  1.00  0.00     0.176 HD
ENDROOT
BRANCH   1   3
HETATM    3  C8  UNL     1      24.735   2.021  52.677  1.00  0.00     0.048 A 
HETATM    4  C6  UNL     1      23.760   1.090  52.957  1.00  0.00    -0.035 A 
HETATM    5  C5  UNL     1      24.108  -0.249  53.180  1.00  0.00     0.011 A 
HETATM    6  C7  UNL     1      22.364   1.517  53.016  1.00  0.00     0.050 C 
HETATM    7  C4  UNL     1      25.400  -0.728  53.141  1.00  0.00     0.030 A 
HETATM    8  C3  UNL     1      26.348   0.230  52.858  1.00  0.00     0.036 A 
HETATM    9  C19 UNL     1      26.028   1.540  52.637  1.00  0.00     0.060 A 
BRANCH   8  10
HETATM   10  N1  UNL     1      27.717  -0.221  52.806  1.00  0.00    -0.327 N 
HETATM   11  C2  UNL     1      28.570  -0.422  53.921  1.00  0.00     0.218 C 
HETATM   12  C1  UNL     1      29.967  -0.895  53.688  1.00  0.00     0.117 C 
HETATM   13  O1  UNL     1      28.211  -0.221  55.108  1.00  0.00    -0.274 OA
HETATM   14  H4  UNL     1      28.018  -0.390  51.805  1.00  0.00     0.169 HD
ENDBRANCH   8  10
ENDBRANCH   1   3
BRANCH   1  15
HETATM   15  C9  UNL     1      24.624   4.069  51.226  1.00  0.00     0.012 C 
HETATM   16  C10 UNL     1      24.726   4.678  50.190  1.00  0.00    -0.070 C 
BRANCH  16  17
HETATM   17  C11 UNL     1      24.876   5.413  48.917  1.00  0.00     0.124 C 
BRANCH  17  18
HETATM   18  C12 UNL     1      24.151   6.683  49.024  1.00  0.00     0.006 C 
HETATM   19  C13 UNL     1      22.835   6.717  48.900  1.00  0.00     0.051 C 
BRANCH  19  20
HETATM   20  N3  UNL     1      22.195   7.977  49.014  1.00  0.00    -0.312 NA
HETATM   21  H14 UNL     1      21.987   8.960  49.240  1.00  0.00     0.123 HD
HETATM   22  H15 UNL     1      22.498   8.876  49.455  1.00  0.00     0.123 HD
ENDBRANCH  19  20
ENDBRANCH  17  18
BRANCH  17  23
HETATM   23  C14 UNL     1      26.309   5.671  48.628  1.00  0.00    -0.021 A 
HETATM   24  C15 UNL     1      26.829   6.873  48.166  1.00  0.00     0.011 A 
HETATM   25  C16 UNL     1      28.167   7.056  47.914  1.00  0.00     0.020 A 
HETATM   26  C17 UNL     1      29.069   6.033  48.114  1.00  0.00     0.116 A 
HETATM   27  N4  UNL     1      28.590   4.863  48.560  1.00  0.00    -0.273 NA
HETATM   28  C18 UNL     1      27.279   4.684  48.806  1.00  0.00     0.124 A 
ENDBRANCH  17  23
ENDBRANCH  16  17
ENDBRANCH   1  15
TORSDOF 7
ENDMDL
MODEL 5
REMARK VINA RESULT:      -7.7      2.334      7.426
REMARK  7 active torsions:
REMARK  status: ('A' for Active; 'I' for Inactive)
REMARK       I    between atoms: C2_2  and  N1_4 
REMARK    1  A    between atoms: N1_4  and  C3_5 
REMARK    2  A    between atoms: C8_10  and  N2_11 
REMARK    3  A    between atoms: N2_11  and  C9_12 
REMARK    4  A    between atoms: C10_13  and  C11_14 
REMARK    5  A    between atoms: C11_14  and  C12_15 
REMARK    6  A    between atoms: C11_14  and  C14_18 
REMARK    7  A    between atoms: C13_16  and  N3_17 
ROOT
HETATM    1  N2  UNL     1      25.476   4.419  49.328  1.00  0.00    -0.315 N 
HETATM    2  H10 UNL     1      24.839   4.157  48.527  1.00  0.00     0.176 HD
ENDROOT
BRANCH   1   3
HETATM    3  C8  UNL     1      25.345   3.772  50.557  1.00  0.00     0.048 A 
HETATM    4  C6  UNL     1      24.295   3.916  51.436  1.00  0.00    -0.035 A 
HETATM    5  C5  UNL     1      24.285   3.206  52.644  1.00  0.00     0.011 A 
HETATM    6  C7  UNL     1      23.197   4.817  51.091  1.00  0.00     0.050 C 
HETATM    7  C4  UNL     1      25.281   2.340  53.038  1.00  0.00     0.030 A 
HETATM    8  C3  UNL     1      26.314   2.220  52.136  1.00  0.00     0.036 A 
HETATM    9  C19 UNL     1      26.342   2.904  50.954  1.00  0.00     0.060 A 
BRANCH   8  10
HETATM   10  N1  UNL     1      27.383   1.324  52.503  1.00  0.00    -0.327 N 
HETATM   11  C2  UNL     1      28.417   1.599  53.436  1.00  0.00     0.218 C 
HETATM   12  C1  UNL     1      29.450   0.555  53.700  1.00  0.00     0.117 C 
HETATM   13  O1  UNL     1      28.511   2.687  54.057  1.00  0.00    -0.274 OA
HETATM   14  H4  UNL     1      27.302   0.408  51.978  1.00  0.00     0.169 HD
ENDBRANCH   8  10
ENDBRANCH   1   3
BRANCH   1  15
HETATM   15  C9  UNL     1      26.377   5.423  48.968  1.00  0.00     0.012 C 
HETATM   16  C10 UNL     1      27.171   6.277  48.663  1.00  0.00    -0.070 C 
BRANCH  16  17
HETATM   17  C11 UNL     1      28.153   7.310  48.270  1.00  0.00     0.124 C 
BRANCH  17  18
HETATM   18  C12 UNL     1      28.076   8.415  49.230  1.00  0.00     0.006 C 
HETATM   19  C13 UNL     1      27.017   8.556  50.009  1.00  0.00     0.051 C 
BRANCH  19  20
HETATM   20  N3  UNL     1      27.006   9.646  50.914  1.00  0.00    -0.312 NA
HETATM   21  H14 UNL     1      27.295  10.385  51.571  1.00  0.00     0.123 HD
HETATM   22  H15 UNL     1      27.775  10.132  51.431  1.00  0.00     0.123 HD
ENDBRANCH  19  20
ENDBRANCH  17  18
BRANCH  17  23
HETATM   23  C14 UNL     1      29.525   6.746  48.255  1.00  0.00    -0.021 A 
HETATM   24  C15 UNL     1      29.861   5.465  47.837  1.00  0.00     0.011 A 
HETATM   25  C16 UNL     1      31.151   4.994  47.846  1.00  0.00     0.020 A 
HETATM   26  C17 UNL     1      32.190   5.789  48.279  1.00  0.00     0.116 A 
HETATM   27  N4  UNL     1      31.891   7.031  48.687  1.00  0.00    -0.273 NA
HETATM   28  C18 UNL     1      30.627   7.493  48.679  1.00  0.00     0.124 A 
ENDBRANCH  17  23
ENDBRANCH  16  17
ENDBRANCH   1  15
TORSDOF 7
ENDMDL
MODEL 6
REMARK VINA RESULT:      -7.6      2.853      4.869
REMARK  7 active torsions:
REMARK  status: ('A' for Active; 'I' for Inactive)
REMARK       I    between atoms: C2_2  and  N1_4 
REMARK    1  A    between atoms: N1_4  and  C3_5 
REMARK    2  A    between atoms: C8_10  and  N2_11 
REMARK    3  A    between atoms: N2_11  and  C9_12 
REMARK    4  A    between atoms: C10_13  and  C11_14 
REMARK    5  A    between atoms: C11_14  and  C12_15 
REMARK    6  A    between atoms: C11_14  and  C14_18 
REMARK    7  A    between atoms: C13_16  and  N3_17 
ROOT
HETATM    1  N2  UNL     1      26.747   3.952  49.915  1.00  0.00    -0.315 N 
HETATM    2  H10 UNL     1      27.708   4.139  49.519  1.00  0.00     0.176 HD
ENDROOT
BRANCH   1   3
HETATM    3  C8  UNL     1      25.663   4.725  49.498  1.00  0.00     0.048 A 
HETATM    4  C6  UNL     1      25.736   5.890  48.769  1.00  0.00    -0.035 A 
HETATM    5  C5  UNL     1      24.566   6.573  48.412  1.00  0.00     0.011 A 
HETATM    6  C7  UNL     1      27.048   6.401  48.374  1.00  0.00     0.050 C 
HETATM    7  C4  UNL     1      23.296   6.155  48.746  1.00  0.00     0.030 A 
HETATM    8  C3  UNL     1      23.260   4.987  49.474  1.00  0.00     0.036 A 
HETATM    9  C19 UNL     1      24.390   4.307  49.831  1.00  0.00     0.060 A 
BRANCH   8  10
HETATM   10  N1  UNL     1      21.952   4.507  49.849  1.00  0.00    -0.327 N 
HETATM   11  C2  UNL     1      21.400   4.532  51.155  1.00  0.00     0.218 C 
HETATM   12  C1  UNL     1      20.025   3.991  51.370  1.00  0.00     0.117 C 
HETATM   13  O1  UNL     1      22.011   4.988  52.153  1.00  0.00    -0.274 OA
HETATM   14  H4  UNL     1      21.439   4.123  49.006  1.00  0.00     0.169 HD
ENDBRANCH   8  10
ENDBRANCH   1   3
BRANCH   1  15
HETATM   15  C9  UNL     1      26.760   2.901  50.833  1.00  0.00     0.012 C 
HETATM   16  C10 UNL     1      26.776   1.979  51.610  1.00  0.00    -0.070 C 
BRANCH  16  17
HETATM   17  C11 UNL     1      26.823   0.848  52.561  1.00  0.00     0.124 C 
BRANCH  17  18
HETATM   18  C12 UNL     1      27.605   1.257  53.733  1.00  0.00     0.006 C 
HETATM   19  C13 UNL     1      28.780   1.844  53.585  1.00  0.00     0.051 C 
BRANCH  19  20
HETATM   20  N3  UNL     1      29.484   2.214  54.758  1.00  0.00    -0.312 NA
HETATM   21  H14 UNL     1      29.839   2.250  55.724  1.00  0.00     0.123 HD
HETATM   22  H15 UNL     1      29.478   1.821  55.728  1.00  0.00     0.123 HD
ENDBRANCH  19  20
ENDBRANCH  17  18
BRANCH  17  23
HETATM   23  C14 UNL     1      25.453   0.459  52.977  1.00  0.00    -0.021 A 
HETATM   24  C15 UNL     1      24.278   0.938  52.413  1.00  0.00     0.011 A 
HETATM   25  C16 UNL     1      23.033   0.542  52.839  1.00  0.00     0.020 A 
HETATM   26  C17 UNL     1      22.894  -0.366  53.866  1.00  0.00     0.116 A 
HETATM   27  N4  UNL     1      24.016  -0.843  54.427  1.00  0.00    -0.273 NA
HETATM   28  C18 UNL     1      25.235  -0.455  54.010  1.00  0.00     0.124 A 
ENDBRANCH  17  23
ENDBRANCH  16  17
ENDBRANCH   1  15
TORSDOF 7
ENDMDL
MODEL 7
REMARK VINA RESULT:      -7.5      2.560      4.998
REMARK  7 active torsions:
REMARK  status: ('A' for Active; 'I' for Inactive)
REMARK       I    between atoms: C2_2  and  N1_4 
REMARK    1  A    between atoms: N1_4  and  C3_5 
REMARK    2  A    between atoms: C8_10  and  N2_11 
REMARK    3  A    between atoms: N2_11  and  C9_12 
REMARK    4  A    between atoms: C10_13  and  C11_14 
REMARK    5  A    between atoms: C11_14  and  C12_15 
REMARK    6  A    between atoms: C11_14  and  C14_18 
REMARK    7  A    between atoms: C13_16  and  N3_17 
ROOT
HETATM    1  N2  UNL     1      26.874   3.649  49.188  1.00  0.00    -0.315 N 
HETATM    2  H10 UNL     1      27.258   2.991  48.457  1.00  0.00     0.176 HD
ENDROOT
BRANCH   1   3
HETATM    3  C8  UNL     1      26.637   4.985  48.862  1.00  0.00     0.048 A 
HETATM    4  C6  UNL     1      27.583   5.892  48.442  1.00  0.00    -0.035 A 
HETATM    5  C5  UNL     1      27.212   7.210  48.144  1.00  0.00     0.011 A 
HETATM    6  C7  UNL     1      28.973   5.461  48.310  1.00  0.00     0.050 C 
HETATM    7  C4  UNL     1      25.924   7.690  48.242  1.00  0.00     0.030 A 
HETATM    8  C3  UNL     1      25.005   6.756  48.665  1.00  0.00     0.036 A 
HETATM    9  C19 UNL     1      25.347   5.467  48.960  1.00  0.00     0.060 A 
BRANCH   8  10
HETATM   10  N1  UNL     1      23.641   7.210  48.784  1.00  0.00    -0.327 N 
HETATM   11  C2  UNL     1      23.053   7.784  49.941  1.00  0.00     0.218 C 
HETATM   12  C1  UNL     1      21.620   8.201  49.894  1.00  0.00     0.117 C 
HETATM   13  O1  UNL     1      23.678   7.960  51.016  1.00  0.00    -0.274 OA
HETATM   14  H4  UNL     1      23.115   7.060  47.878  1.00  0.00     0.169 HD
ENDBRANCH   8  10
ENDBRANCH   1   3
BRANCH   1  15
HETATM   15  C9  UNL     1      26.670   3.006  50.410  1.00  0.00     0.012 C 
HETATM   16  C10 UNL     1      26.496   2.468  51.475  1.00  0.00    -0.070 C 
BRANCH  16  17
HETATM   17  C11 UNL     1      26.258   1.822  52.783  1.00  0.00     0.124 C 
BRANCH  17  18
HETATM   18  C12 UNL     1      24.967   1.129  52.733  1.00  0.00     0.006 C 
HETATM   19  C13 UNL     1      23.841   1.790  52.939  1.00  0.00     0.051 C 
BRANCH  19  20
HETATM   20  N3  UNL     1      22.628   1.061  52.877  1.00  0.00    -0.312 NA
HETATM   21  H14 UNL     1      21.882   0.372  53.050  1.00  0.00     0.123 HD
HETATM   22  H15 UNL     1      22.286   0.228  53.410  1.00  0.00     0.123 HD
ENDBRANCH  19  20
ENDBRANCH  17  18
BRANCH  17  23
HETATM   23  C14 UNL     1      27.341   0.855  53.092  1.00  0.00    -0.021 A 
HETATM   24  C15 UNL     1      28.672   1.186  53.310  1.00  0.00     0.011 A 
HETATM   25  C16 UNL     1      29.635   0.247  53.592  1.00  0.00     0.020 A 
HETATM   26  C17 UNL     1      29.314  -1.091  53.672  1.00  0.00     0.116 A 
HETATM   27  N4  UNL     1      28.034  -1.435  53.465  1.00  0.00    -0.273 NA
HETATM   28  C18 UNL     1      27.091  -0.515  53.189  1.00  0.00     0.124 A 
ENDBRANCH  17  23
ENDBRANCH  16  17
ENDBRANCH   1  15
TORSDOF 7
ENDMDL
MODEL 8
REMARK VINA RESULT:      -7.2      2.328      2.785
REMARK  7 active torsions:
REMARK  status: ('A' for Active; 'I' for Inactive)
REMARK       I    between atoms: C2_2  and  N1_4 
REMARK    1  A    between atoms: N1_4  and  C3_5 
REMARK    2  A    between atoms: C8_10  and  N2_11 
REMARK    3  A    between atoms: N2_11  and  C9_12 
REMARK    4  A    between atoms: C10_13  and  C11_14 
REMARK    5  A    between atoms: C11_14  and  C12_15 
REMARK    6  A    between atoms: C11_14  and  C14_18 
REMARK    7  A    between atoms: C13_16  and  N3_17 
ROOT
HETATM    1  N2  UNL     1      26.732   3.710  49.165  1.00  0.00    -0.315 N 
HETATM    2  H10 UNL     1      27.268   3.304  48.351  1.00  0.00     0.176 HD
ENDROOT
BRANCH   1   3
HETATM    3  C8  UNL     1      26.140   4.968  49.048  1.00  0.00     0.048 A 
HETATM    4  C6  UNL     1      24.793   5.235  49.131  1.00  0.00    -0.035 A 
HETATM    5  C5  UNL     1      24.325   6.549  48.996  1.00  0.00     0.011 A 
HETATM    6  C7  UNL     1      23.861   4.132  49.361  1.00  0.00     0.050 C 
HETATM    7  C4  UNL     1      25.139   7.639  48.778  1.00  0.00     0.030 A 
HETATM    8  C3  UNL     1      26.480   7.336  48.701  1.00  0.00     0.036 A 
HETATM    9  C19 UNL     1      26.955   6.061  48.830  1.00  0.00     0.060 A 
BRANCH   8  10
HETATM   10  N1  UNL     1      27.375   8.444  48.473  1.00  0.00    -0.327 N 
HETATM   11  C2  UNL     1      27.769   9.407  49.438  1.00  0.00     0.218 C 
HETATM   12  C1  UNL     1      28.707  10.495  49.033  1.00  0.00     0.117 C 
HETATM   13  O1  UNL     1      27.365   9.395  50.627  1.00  0.00    -0.274 OA
HETATM   14  H4  UNL     1      27.714   8.452  47.470  1.00  0.00     0.169 HD
ENDBRANCH   8  10
ENDBRANCH   1   3
BRANCH   1  15
HETATM   15  C9  UNL     1      26.725   2.848  50.263  1.00  0.00     0.012 C 
HETATM   16  C10 UNL     1      26.734   2.092  51.203  1.00  0.00    -0.070 C 
BRANCH  16  17
HETATM   17  C11 UNL     1      26.769   1.176  52.362  1.00  0.00     0.124 C 
BRANCH  17  18
HETATM   18  C12 UNL     1      27.498   1.832  53.453  1.00  0.00     0.006 C 
HETATM   19  C13 UNL     1      28.779   1.575  53.655  1.00  0.00     0.051 C 
BRANCH  19  20
HETATM   20  N3  UNL     1      29.423   2.243  54.726  1.00  0.00    -0.312 NA
HETATM   21  H14 UNL     1      29.917   2.445  55.607  1.00  0.00     0.123 HD
HETATM   22  H15 UNL     1      29.857   1.888  55.609  1.00  0.00     0.123 HD
ENDBRANCH  19  20
ENDBRANCH  17  18
BRANCH  17  23
HETATM   23  C14 UNL     1      25.393   0.838  52.803  1.00  0.00    -0.021 A 
HETATM   24  C15 UNL     1      24.253   1.572  52.502  1.00  0.00     0.011 A 
HETATM   25  C16 UNL     1      23.001   1.213  52.939  1.00  0.00     0.020 A 
HETATM   26  C17 UNL     1      22.819   0.085  53.710  1.00  0.00     0.116 A 
HETATM   27  N4  UNL     1      23.906  -0.640  54.013  1.00  0.00    -0.273 NA
HETATM   28  C18 UNL     1      25.132  -0.288  53.586  1.00  0.00     0.124 A 
ENDBRANCH  17  23
ENDBRANCH  16  17
ENDBRANCH   1  15
TORSDOF 7
ENDMDL
MODEL 9
REMARK VINA RESULT:      -7.2      5.609      9.378
REMARK  7 active torsions:
REMARK  status: ('A' for Active; 'I' for Inactive)
REMARK       I    between atoms: C2_2  and  N1_4 
REMARK    1  A    between atoms: N1_4  and  C3_5 
REMARK    2  A    between atoms: C8_10  and  N2_11 
REMARK    3  A    between atoms: N2_11  and  C9_12 
REMARK    4  A    between atoms: C10_13  and  C11_14 
REMARK    5  A    between atoms: C11_14  and  C12_15 
REMARK    6  A    between atoms: C11_14  and  C14_18 
REMARK    7  A    between atoms: C13_16  and  N3_17 
ROOT
HETATM    1  N2  UNL     1      20.845  -0.405  53.282  1.00  0.00    -0.315 N 
HETATM    2  H10 UNL     1      20.998  -1.137  54.027  1.00  0.00     0.176 HD
ENDROOT
BRANCH   1   3
HETATM    3  C8  UNL     1      19.576  -0.234  52.728  1.00  0.00     0.048 A 
HETATM    4  C6  UNL     1      18.485  -1.044  52.948  1.00  0.00    -0.035 A 
HETATM    5  C5  UNL     1      17.261  -0.761  52.327  1.00  0.00     0.011 A 
HETATM    6  C7  UNL     1      18.622  -2.198  53.835  1.00  0.00     0.050 C 
HETATM    7  C4  UNL     1      17.054   0.306  51.481  1.00  0.00     0.030 A 
HETATM    8  C3  UNL     1      18.165   1.094  51.283  1.00  0.00     0.036 A 
HETATM    9  C19 UNL     1      19.367   0.835  51.880  1.00  0.00     0.060 A 
BRANCH   8  10
HETATM   10  N1  UNL     1      17.999   2.226  50.404  1.00  0.00    -0.327 N 
HETATM   11  C2  UNL     1      17.686   3.551  50.803  1.00  0.00     0.218 C 
HETATM   12  C1  UNL     1      17.549   4.608  49.757  1.00  0.00     0.117 C 
HETATM   13  O1  UNL     1      17.513   3.886  52.001  1.00  0.00    -0.274 OA
HETATM   14  H4  UNL     1      18.145   1.940  49.395  1.00  0.00     0.169 HD
ENDBRANCH   8  10
ENDBRANCH   1   3
BRANCH   1  15
HETATM   15  C9  UNL     1      22.020   0.289  52.987  1.00  0.00     0.012 C 
HETATM   16  C10 UNL     1      23.023   0.904  52.727  1.00  0.00    -0.070 C 
BRANCH  16  17
HETATM   17  C11 UNL     1      24.249   1.675  52.429  1.00  0.00     0.124 C 
BRANCH  17  18
HETATM   18  C12 UNL     1      24.114   3.011  53.017  1.00  0.00     0.006 C 
HETATM   19  C13 UNL     1      23.808   4.051  52.259  1.00  0.00     0.051 C 
BRANCH  19  20
HETATM   20  N3  UNL     1      23.693   5.314  52.890  1.00  0.00    -0.312 NA
HETATM   21  H14 UNL     1      23.773   6.092  53.560  1.00  0.00     0.123 HD
HETATM   22  H15 UNL     1      24.052   5.673  53.805  1.00  0.00     0.123 HD
ENDBRANCH  19  20
ENDBRANCH  17  18
BRANCH  17  23
HETATM   23  C14 UNL     1      25.443   0.994  52.988  1.00  0.00    -0.021 A 
HETATM   24  C15 UNL     1      25.960  -0.214  52.538  1.00  0.00     0.011 A 
HETATM   25  C16 UNL     1      27.071  -0.801  53.095  1.00  0.00     0.020 A 
HETATM   26  C17 UNL     1      27.733  -0.204  54.146  1.00  0.00     0.116 A 
HETATM   27  N4  UNL     1      27.252   0.964  54.598  1.00  0.00    -0.273 NA
HETATM   28  C18 UNL     1      26.164   1.539  54.052  1.00  0.00     0.124 A 
ENDBRANCH  17  23
ENDBRANCH  16  17
ENDBRANCH   1  15
TORSDOF 7
ENDMDL
