MODEL 1
REMARK VINA RESULT:      -9.4      0.000      0.000
REMARK  1 active torsions:
REMARK  status: ('A' for Active; 'I' for Inactive)
REMARK    1  A    between atoms: C3_4  and  C4_5 
ROOT
HETATM    1  N1  UNL     1      26.373   5.943  49.296  1.00  0.00    -0.096 N 
HETATM    2  C1  UNL     1      25.673   5.107  49.816  1.00  0.00     0.018 C 
HETATM    3  C2  UNL     1      24.832   4.064  50.451  1.00  0.00     0.039 C 
HETATM    4  C3  UNL     1      23.493   4.297  50.486  1.00  0.00    -0.007 C 
HETATM    5  C10 UNL     1      22.187   3.798  50.953  1.00  0.00     0.211 C 
HETATM    6  O1  UNL     1      22.274   2.638  51.662  1.00  0.00    -0.362 OA
HETATM    7  C11 UNL     1      20.943   2.214  52.086  1.00  0.00     0.339 C 
HETATM    8  O2  UNL     1      21.040   1.176  52.800  1.00  0.00    -0.356 OA
HETATM    9  C12 UNL     1      20.435   0.240  53.512  1.00  0.00     0.258 C 
HETATM   10  C13 UNL     1      21.519  -0.429  54.272  1.00  0.00    -0.089 C 
HETATM   11  C14 UNL     1      22.363  -0.923  54.854  1.00  0.00     0.166 A 
HETATM   12  C15 UNL     1      23.499  -1.555  55.619  1.00  0.00     0.167 A 
HETATM   13  O3  UNL     1      22.329  -1.666  55.629  1.00  0.00    -0.283 OA
HETATM   14  N2  UNL     1      24.975  -1.280  55.455  1.00  0.00    -0.261 NA
HETATM   15  C16 UNL     1      25.431  -0.336  54.384  1.00  0.00     0.086 A 
HETATM   16  C17 UNL     1      26.193  -0.894  53.433  1.00  0.00    -0.008 C 
HETATM   17  C18 UNL     1      26.482   0.077  52.512  1.00  0.00     0.008 C 
HETATM   18  C19 UNL     1      26.823   0.895  51.583  1.00  0.00     0.049 C 
HETATM   19  N3  UNL     1      26.783   2.227  50.987  1.00  0.00    -0.309 NA
HETATM   20  C20 UNL     1      25.607   2.850  50.883  1.00  0.00     0.278 C 
HETATM   21  H11 UNL     1      24.384  -0.803  54.813  1.00  0.00     0.155 HD
ENDROOT
BRANCH   4  22
HETATM   22  C4  UNL     1      23.251   5.581  49.852  1.00  0.00    -0.025 A 
HETATM   23  C5  UNL     1      23.239   6.676  50.678  1.00  0.00     0.012 A 
HETATM   24  C6  UNL     1      23.059   7.997  50.263  1.00  0.00     0.002 A 
HETATM   25  C7  UNL     1      22.894   7.997  48.851  1.00  0.00     0.019 A 
HETATM   26  C8  UNL     1      22.885   6.990  47.912  1.00  0.00     0.011 A 
HETATM   27 BR1  UNL     1      22.702   7.408  46.113  1.00  0.00    -0.051 Br
HETATM   28  C9  UNL     1      23.071   5.729  48.463  1.00  0.00     0.031 A 
ENDBRANCH   4  22
TORSDOF 1
ENDMDL
MODEL 2
REMARK VINA RESULT:      -8.8      4.001      7.014
REMARK  1 active torsions:
REMARK  status: ('A' for Active; 'I' for Inactive)
REMARK    1  A    between atoms: C3_4  and  C4_5 
ROOT
HETATM    1  N1  UNL     1      26.794   2.487  51.217  1.00  0.00    -0.096 N 
HETATM    2  C1  UNL     1      25.691   2.092  51.515  1.00  0.00     0.018 C 
HETATM    3  C2  UNL     1      24.329   1.629  51.871  1.00  0.00     0.039 C 
HETATM    4  C3  UNL     1      24.242   0.666  52.826  1.00  0.00    -0.007 C 
HETATM    5  C10 UNL     1      23.333  -0.224  53.571  1.00  0.00     0.211 C 
HETATM    6  O1  UNL     1      22.029  -0.103  53.196  1.00  0.00    -0.362 OA
HETATM    7  C11 UNL     1      21.200  -1.015  53.978  1.00  0.00     0.339 C 
HETATM    8  O2  UNL     1      20.004  -0.945  53.577  1.00  0.00    -0.356 OA
HETATM    9  C12 UNL     1      18.753  -1.358  53.692  1.00  0.00     0.258 C 
HETATM   10  C13 UNL     1      18.069  -0.866  52.471  1.00  0.00    -0.089 C 
HETATM   11  C14 UNL     1      17.565  -0.489  51.523  1.00  0.00     0.166 A 
HETATM   12  C15 UNL     1      16.923   0.015  50.254  1.00  0.00     0.167 A 
HETATM   13  O3  UNL     1      16.577  -0.673  51.143  1.00  0.00    -0.283 OA
HETATM   14  N2  UNL     1      17.542   0.918  49.214  1.00  0.00    -0.261 NA
HETATM   15  C16 UNL     1      18.919   1.464  49.441  1.00  0.00     0.086 A 
HETATM   16  C17 UNL     1      18.982   2.799  49.554  1.00  0.00    -0.008 C 
HETATM   17  C18 UNL     1      20.285   3.132  49.807  1.00  0.00     0.008 C 
HETATM   18  C19 UNL     1      21.467   3.571  50.046  1.00  0.00     0.049 C 
HETATM   19  N3  UNL     1      22.886   3.330  50.291  1.00  0.00    -0.309 NA
HETATM   20  C20 UNL     1      23.236   2.382  51.164  1.00  0.00     0.278 C 
HETATM   21  H11 UNL     1      18.109   0.745  50.013  1.00  0.00     0.155 HD
ENDROOT
BRANCH   4  22
HETATM   22  C4  UNL     1      25.592   0.344  53.254  1.00  0.00    -0.025 A 
HETATM   23  C5  UNL     1      26.146   1.170  54.197  1.00  0.00     0.012 A 
HETATM   24  C6  UNL     1      27.413   1.013  54.763  1.00  0.00     0.002 A 
HETATM   25  C7  UNL     1      28.011  -0.143  54.189  1.00  0.00     0.019 A 
HETATM   26  C8  UNL     1      27.577  -1.049  53.249  1.00  0.00     0.011 A 
HETATM   27 BR1  UNL     1      28.648  -2.497  52.799  1.00  0.00    -0.051 Br
HETATM   28  C9  UNL     1      26.304  -0.771  52.770  1.00  0.00     0.031 A 
ENDBRANCH   4  22
TORSDOF 1
ENDMDL
MODEL 3
REMARK VINA RESULT:      -8.7      3.898      7.077
REMARK  1 active torsions:
REMARK  status: ('A' for Active; 'I' for Inactive)
REMARK    1  A    between atoms: C3_4  and  C4_5 
ROOT
HETATM    1  N1  UNL     1      17.305  -1.892  53.154  1.00  0.00    -0.096 N 
HETATM    2  C1  UNL     1      18.261  -1.184  52.942  1.00  0.00     0.018 C 
HETATM    3  C2  UNL     1      19.442  -0.321  52.704  1.00  0.00     0.039 C 
HETATM    4  C3  UNL     1      19.293   0.683  51.800  1.00  0.00    -0.007 C 
HETATM    5  C10 UNL     1      19.969   1.781  51.085  1.00  0.00     0.211 C 
HETATM    6  O1  UNL     1      21.292   1.891  51.389  1.00  0.00    -0.362 OA
HETATM    7  C11 UNL     1      21.883   2.998  50.642  1.00  0.00     0.339 C 
HETATM    8  O2  UNL     1      23.123   3.049  50.878  1.00  0.00    -0.356 OA
HETATM    9  C12 UNL     1      24.286   3.643  50.665  1.00  0.00     0.258 C 
HETATM   10  C13 UNL     1      25.302   2.712  51.211  1.00  0.00    -0.089 C 
HETATM   11  C14 UNL     1      26.068   1.979  51.626  1.00  0.00     0.166 A 
HETATM   12  C15 UNL     1      27.063   0.988  52.176  1.00  0.00     0.167 A 
HETATM   13  O3  UNL     1      27.141   1.998  51.581  1.00  0.00    -0.283 OA
HETATM   14  N2  UNL     1      26.761  -0.282  52.937  1.00  0.00    -0.261 NA
HETATM   15  C16 UNL     1      25.340  -0.615  53.276  1.00  0.00     0.086 A 
HETATM   16  C17 UNL     1      25.070  -0.651  54.589  1.00  0.00    -0.008 C 
HETATM   17  C18 UNL     1      23.734  -0.915  54.729  1.00  0.00     0.008 C 
HETATM   18  C19 UNL     1      22.501  -1.158  54.992  1.00  0.00     0.049 C 
HETATM   19  N3  UNL     1      21.136  -1.420  54.546  1.00  0.00    -0.309 NA
HETATM   20  C20 UNL     1      20.613  -0.651  53.588  1.00  0.00     0.278 C 
HETATM   21  H11 UNL     1      25.966   0.272  52.709  1.00  0.00     0.155 HD
ENDROOT
BRANCH   4  22
HETATM   22  C4  UNL     1      17.934   0.622  51.292  1.00  0.00    -0.025 A 
HETATM   23  C5  UNL     1      17.023   1.456  51.888  1.00  0.00     0.012 A 
HETATM   24  C6  UNL     1      15.680   1.574  51.525  1.00  0.00     0.002 A 
HETATM   25  C7  UNL     1      15.437   0.686  50.441  1.00  0.00     0.019 A 
HETATM   26  C8  UNL     1      16.244  -0.193  49.756  1.00  0.00     0.011 A 
HETATM   27 BR1  UNL     1      15.556  -1.152  48.323  1.00  0.00    -0.051 Br
HETATM   28  C9  UNL     1      17.551  -0.211  50.223  1.00  0.00     0.031 A 
ENDBRANCH   4  22
TORSDOF 1
ENDMDL
MODEL 4
REMARK VINA RESULT:      -8.6      4.053      7.749
REMARK  1 active torsions:
REMARK  status: ('A' for Active; 'I' for Inactive)
REMARK    1  A    between atoms: C3_4  and  C4_5 
ROOT
HETATM    1  N1  UNL     1      25.659  -0.701  55.258  1.00  0.00    -0.096 N 
HETATM    2  C1  UNL     1      25.198  -0.084  54.328  1.00  0.00     0.018 C 
HETATM    3  C2  UNL     1      24.611   0.660  53.188  1.00  0.00     0.039 C 
HETATM    4  C3  UNL     1      25.483   1.284  52.352  1.00  0.00    -0.007 C 
HETATM    5  C10 UNL     1      25.617   2.160  51.174  1.00  0.00     0.211 C 
HETATM    6  O1  UNL     1      24.421   2.567  50.664  1.00  0.00    -0.362 OA
HETATM    7  C11 UNL     1      24.643   3.428  49.505  1.00  0.00     0.339 C 
HETATM    8  O2  UNL     1      23.532   3.855  49.081  1.00  0.00    -0.356 OA
HETATM    9  C12 UNL     1      22.870   4.588  48.201  1.00  0.00     0.258 C 
HETATM   10  C13 UNL     1      21.498   4.709  48.751  1.00  0.00    -0.089 C 
HETATM   11  C14 UNL     1      20.454   4.798  49.194  1.00  0.00     0.166 A 
HETATM   12  C15 UNL     1      19.081   4.908  49.807  1.00  0.00     0.167 A 
HETATM   13  O3  UNL     1      19.612   5.384  48.873  1.00  0.00    -0.283 OA
HETATM   14  N2  UNL     1      18.570   4.196  51.038  1.00  0.00    -0.261 NA
HETATM   15  C16 UNL     1      19.454   3.205  51.732  1.00  0.00     0.086 A 
HETATM   16  C17 UNL     1      18.994   1.945  51.728  1.00  0.00    -0.008 C 
HETATM   17  C18 UNL     1      19.929   1.162  52.349  1.00  0.00     0.008 C 
HETATM   18  C19 UNL     1      20.725   0.325  52.910  1.00  0.00     0.049 C 
HETATM   19  N3  UNL     1      21.982   0.028  53.590  1.00  0.00    -0.309 NA
HETATM   20  C20 UNL     1      23.116   0.525  53.090  1.00  0.00     0.278 C 
HETATM   21  H11 UNL     1      19.491   3.945  50.757  1.00  0.00     0.155 HD
ENDROOT
BRANCH   4  22
HETATM   22  C4  UNL     1      26.825   1.029  52.844  1.00  0.00    -0.025 A 
HETATM   23  C5  UNL     1      27.463   2.082  53.447  1.00  0.00     0.012 A 
HETATM   24  C6  UNL     1      28.738   2.035  54.015  1.00  0.00     0.002 A 
HETATM   25  C7  UNL     1      29.243   0.715  53.853  1.00  0.00     0.019 A 
HETATM   26  C8  UNL     1      28.721  -0.420  53.277  1.00  0.00     0.011 A 
HETATM   27 BR1  UNL     1      29.684  -2.006  53.324  1.00  0.00    -0.051 Br
HETATM   28  C9  UNL     1      27.450  -0.230  52.751  1.00  0.00     0.031 A 
ENDBRANCH   4  22
TORSDOF 1
ENDMDL
MODEL 5
REMARK VINA RESULT:      -8.1      4.646      8.935
REMARK  1 active torsions:
REMARK  status: ('A' for Active; 'I' for Inactive)
REMARK    1  A    between atoms: C3_4  and  C4_5 
ROOT
HETATM    1  N1  UNL     1      20.446   4.769  50.505  1.00  0.00    -0.096 N 
HETATM    2  C1  UNL     1      21.580   4.988  50.151  1.00  0.00     0.018 C 
HETATM    3  C2  UNL     1      22.964   5.277  49.706  1.00  0.00     0.039 C 
HETATM    4  C3  UNL     1      23.816   4.220  49.633  1.00  0.00    -0.007 C 
HETATM    5  C10 UNL     1      25.201   3.795  49.357  1.00  0.00     0.211 C 
HETATM    6  O1  UNL     1      26.035   4.830  49.063  1.00  0.00    -0.362 OA
HETATM    7  C11 UNL     1      27.381   4.325  48.806  1.00  0.00     0.339 C 
HETATM    8  O2  UNL     1      28.162   5.297  48.601  1.00  0.00    -0.356 OA
HETATM    9  C12 UNL     1      29.387   5.719  48.330  1.00  0.00     0.258 C 
HETATM   10  C13 UNL     1      29.364   7.176  48.604  1.00  0.00    -0.089 C 
HETATM   11  C14 UNL     1      29.329   8.291  48.830  1.00  0.00     0.166 A 
HETATM   12  C15 UNL     1      29.258   9.764  49.143  1.00  0.00     0.167 A 
HETATM   13  O3  UNL     1      30.118   9.020  48.847  1.00  0.00    -0.283 OA
HETATM   14  N2  UNL     1      28.028  10.563  49.507  1.00  0.00    -0.261 NA
HETATM   15  C16 UNL     1      26.690   9.890  49.506  1.00  0.00     0.086 A 
HETATM   16  C17 UNL     1      25.820  10.373  48.606  1.00  0.00    -0.008 C 
HETATM   17  C18 UNL     1      24.676   9.627  48.695  1.00  0.00     0.008 C 
HETATM   18  C19 UNL     1      23.553   9.005  48.683  1.00  0.00     0.049 C 
HETATM   19  N3  UNL     1      22.683   7.945  49.185  1.00  0.00    -0.309 NA
HETATM   20  C20 UNL     1      23.181   6.713  49.316  1.00  0.00     0.278 C 
HETATM   21  H11 UNL     1      27.859   9.610  49.276  1.00  0.00     0.155 HD
ENDROOT
BRANCH   4  22
HETATM   22  C4  UNL     1      23.083   3.033  50.035  1.00  0.00    -0.025 A 
HETATM   23  C5  UNL     1      22.395   2.377  49.047  1.00  0.00     0.012 A 
HETATM   24  C6  UNL     1      21.660   1.202  49.219  1.00  0.00     0.002 A 
HETATM   25  C7  UNL     1      21.755   0.819  50.585  1.00  0.00     0.019 A 
HETATM   26  C8  UNL     1      22.400   1.374  51.667  1.00  0.00     0.011 A 
HETATM   27 BR1  UNL     1      22.339   0.521  53.314  1.00  0.00    -0.051 Br
HETATM   28  C9  UNL     1      23.088   2.538  51.354  1.00  0.00     0.031 A 
ENDBRANCH   4  22
TORSDOF 1
ENDMDL
MODEL 6
REMARK VINA RESULT:      -7.9      3.025      4.822
REMARK  1 active torsions:
REMARK  status: ('A' for Active; 'I' for Inactive)
REMARK    1  A    between atoms: C3_4  and  C4_5 
ROOT
HETATM    1  N1  UNL     1      26.427   2.554  52.724  1.00  0.00    -0.096 N 
HETATM    2  C1  UNL     1      25.338   2.225  52.319  1.00  0.00     0.018 C 
HETATM    3  C2  UNL     1      24.003   1.800  51.834  1.00  0.00     0.039 C 
HETATM    4  C3  UNL     1      23.508   2.459  50.753  1.00  0.00    -0.007 C 
HETATM    5  C10 UNL     1      22.354   2.608  49.848  1.00  0.00     0.211 C 
HETATM    6  O1  UNL     1      21.307   1.799  50.169  1.00  0.00    -0.362 OA
HETATM    7  C11 UNL     1      20.210   2.009  49.228  1.00  0.00     0.339 C 
HETATM    8  O2  UNL     1      19.219   1.305  49.573  1.00  0.00    -0.356 OA
HETATM    9  C12 UNL     1      17.975   0.922  49.339  1.00  0.00     0.258 C 
HETATM   10  C13 UNL     1      17.543   0.232  50.579  1.00  0.00    -0.089 C 
HETATM   11  C14 UNL     1      17.226  -0.284  51.542  1.00  0.00     0.166 A 
HETATM   12  C15 UNL     1      16.829  -0.956  52.833  1.00  0.00     0.167 A 
HETATM   13  O3  UNL     1      16.267  -0.664  51.843  1.00  0.00    -0.283 OA
HETATM   14  N2  UNL     1      17.717  -1.256  54.017  1.00  0.00    -0.261 NA
HETATM   15  C16 UNL     1      19.180  -0.939  53.937  1.00  0.00     0.086 A 
HETATM   16  C17 UNL     1      19.989  -2.005  54.011  1.00  0.00    -0.008 C 
HETATM   17  C18 UNL     1      21.275  -1.558  53.873  1.00  0.00     0.008 C 
HETATM   18  C19 UNL     1      22.520  -1.265  53.757  1.00  0.00     0.049 C 
HETATM   19  N3  UNL     1      23.579  -0.281  53.555  1.00  0.00    -0.309 NA
HETATM   20  C20 UNL     1      23.441   0.621  52.580  1.00  0.00     0.278 C 
HETATM   21  H11 UNL     1      18.182  -0.859  53.232  1.00  0.00     0.155 HD
ENDROOT
BRANCH   4  22
HETATM   22  C4  UNL     1      24.488   3.455  50.355  1.00  0.00    -0.025 A 
HETATM   23  C5  UNL     1      25.546   3.004  49.609  1.00  0.00     0.012 A 
HETATM   24  C6  UNL     1      26.572   3.803  49.100  1.00  0.00     0.002 A 
HETATM   25  C7  UNL     1      26.320   5.147  49.493  1.00  0.00     0.019 A 
HETATM   26  C8  UNL     1      25.315   5.731  50.229  1.00  0.00     0.011 A 
HETATM   27 BR1  UNL     1      25.301   7.571  50.475  1.00  0.00    -0.051 Br
HETATM   28  C9  UNL     1      24.365   4.821  50.674  1.00  0.00     0.031 A 
ENDBRANCH   4  22
TORSDOF 1
ENDMDL
MODEL 7
REMARK VINA RESULT:      -7.9      4.097      8.631
REMARK  1 active torsions:
REMARK  status: ('A' for Active; 'I' for Inactive)
REMARK    1  A    between atoms: C3_4  and  C4_5 
ROOT
HETATM    1  N1  UNL     1      24.013   0.306  53.851  1.00  0.00    -0.096 N 
HETATM    2  C1  UNL     1      24.177   1.163  53.016  1.00  0.00     0.018 C 
HETATM    3  C2  UNL     1      24.356   2.213  51.985  1.00  0.00     0.039 C 
HETATM    4  C3  UNL     1      25.622   2.419  51.536  1.00  0.00    -0.007 C 
HETATM    5  C10 UNL     1      26.480   3.238  50.660  1.00  0.00     0.211 C 
HETATM    6  O1  UNL     1      25.803   4.225  50.009  1.00  0.00    -0.362 OA
HETATM    7  C11 UNL     1      26.722   4.986  49.167  1.00  0.00     0.339 C 
HETATM    8  O2  UNL     1      26.099   5.940  48.621  1.00  0.00    -0.356 OA
HETATM    9  C12 UNL     1      26.129   6.989  47.816  1.00  0.00     0.258 C 
HETATM   10  C13 UNL     1      24.851   7.701  48.060  1.00  0.00    -0.089 C 
HETATM   11  C14 UNL     1      23.870   8.239  48.269  1.00  0.00     0.166 A 
HETATM   12  C15 UNL     1      22.567   8.936  48.570  1.00  0.00     0.167 A 
HETATM   13  O3  UNL     1      23.512   9.189  47.917  1.00  0.00    -0.283 OA
HETATM   14  N2  UNL     1      21.446   8.437  49.451  1.00  0.00    -0.261 NA
HETATM   15  C16 UNL     1      21.549   7.075  50.068  1.00  0.00     0.086 A 
HETATM   16  C17 UNL     1      20.613   6.204  49.663  1.00  0.00    -0.008 C 
HETATM   17  C18 UNL     1      20.872   5.006  50.271  1.00  0.00     0.008 C 
HETATM   18  C19 UNL     1      21.008   3.835  50.780  1.00  0.00     0.049 C 
HETATM   19  N3  UNL     1      21.733   2.897  51.631  1.00  0.00    -0.309 NA
HETATM   20  C20 UNL     1      23.063   2.831  51.528  1.00  0.00     0.278 C 
HETATM   21  H11 UNL     1      22.202   7.801  49.330  1.00  0.00     0.155 HD
ENDROOT
BRANCH   4  22
HETATM   22  C4  UNL     1      26.496   1.496  52.238  1.00  0.00    -0.025 A 
HETATM   23  C5  UNL     1      27.250   2.024  53.255  1.00  0.00     0.012 A 
HETATM   24  C6  UNL     1      28.122   1.301  54.071  1.00  0.00     0.002 A 
HETATM   25  C7  UNL     1      28.084  -0.060  53.660  1.00  0.00     0.019 A 
HETATM   26  C8  UNL     1      27.386  -0.718  52.673  1.00  0.00     0.011 A 
HETATM   27 BR1  UNL     1      27.561  -2.556  52.487  1.00  0.00    -0.051 Br
HETATM   28  C9  UNL     1      26.560   0.121  51.937  1.00  0.00     0.031 A 
ENDBRANCH   4  22
TORSDOF 1
ENDMDL
MODEL 8
REMARK VINA RESULT:      -7.8      5.080      9.544
REMARK  1 active torsions:
REMARK  status: ('A' for Active; 'I' for Inactive)
REMARK    1  A    between atoms: C3_4  and  C4_5 
ROOT
HETATM    1  N1  UNL     1      21.961   5.840  50.534  1.00  0.00    -0.096 N 
HETATM    2  C1  UNL     1      23.072   6.031  50.100  1.00  0.00     0.018 C 
HETATM    3  C2  UNL     1      24.428   6.286  49.558  1.00  0.00     0.039 C 
HETATM    4  C3  UNL     1      25.241   5.206  49.413  1.00  0.00    -0.007 C 
HETATM    5  C10 UNL     1      26.589   4.745  49.033  1.00  0.00     0.211 C 
HETATM    6  O1  UNL     1      27.430   5.760  48.689  1.00  0.00    -0.362 OA
HETATM    7  C11 UNL     1      28.738   5.220  48.329  1.00  0.00     0.339 C 
HETATM    8  O2  UNL     1      29.530   6.171  48.077  1.00  0.00    -0.356 OA
HETATM    9  C12 UNL     1      30.743   6.561  47.721  1.00  0.00     0.258 C 
HETATM   10  C13 UNL     1      30.783   8.015  48.009  1.00  0.00    -0.089 C 
HETATM   11  C14 UNL     1      30.797   9.128  48.247  1.00  0.00     0.166 A 
HETATM   12  C15 UNL     1      30.792  10.599  48.579  1.00  0.00     0.167 A 
HETATM   13  O3  UNL     1      31.606   9.834  48.213  1.00  0.00    -0.283 OA
HETATM   14  N2  UNL     1      29.615  11.428  49.038  1.00  0.00    -0.261 NA
HETATM   15  C16 UNL     1      28.261  10.794  49.129  1.00  0.00     0.086 A 
HETATM   16  C17 UNL     1      27.343  11.311  48.299  1.00  0.00    -0.008 C 
HETATM   17  C18 UNL     1      26.187  10.597  48.465  1.00  0.00     0.008 C 
HETATM   18  C19 UNL     1      25.048  10.007  48.529  1.00  0.00     0.049 C 
HETATM   19  N3  UNL     1      24.187   8.967  49.083  1.00  0.00    -0.309 NA
HETATM   20  C20 UNL     1      24.657   7.720  49.166  1.00  0.00     0.278 C 
HETATM   21  H11 UNL     1      29.402  10.483  48.812  1.00  0.00     0.155 HD
ENDROOT
BRANCH   4  22
HETATM   22  C4  UNL     1      24.504   4.036  49.857  1.00  0.00    -0.025 A 
HETATM   23  C5  UNL     1      24.738   3.620  51.142  1.00  0.00     0.012 A 
HETATM   24  C6  UNL     1      24.109   2.543  51.769  1.00  0.00     0.002 A 
HETATM   25  C7  UNL     1      23.196   1.967  50.842  1.00  0.00     0.019 A 
HETATM   26  C8  UNL     1      22.866   2.276  49.543  1.00  0.00     0.011 A 
HETATM   27 BR1  UNL     1      21.547   1.304  48.670  1.00  0.00    -0.051 Br
HETATM   28  C9  UNL     1      23.568   3.365  49.045  1.00  0.00     0.031 A 
ENDBRANCH   4  22
TORSDOF 1
ENDMDL
MODEL 9
REMARK VINA RESULT:      -7.6      3.859      6.187
REMARK  1 active torsions:
REMARK  status: ('A' for Active; 'I' for Inactive)
REMARK    1  A    between atoms: C3_4  and  C4_5 
ROOT
HETATM    1  N1  UNL     1      18.436   3.834  48.637  1.00  0.00    -0.096 N 
HETATM    2  C1  UNL     1      19.298   3.212  49.212  1.00  0.00     0.018 C 
HETATM    3  C2  UNL     1      20.371   2.456  49.900  1.00  0.00     0.039 C 
HETATM    4  C3  UNL     1      19.976   1.512  50.795  1.00  0.00    -0.007 C 
HETATM    5  C10 UNL     1      20.425   0.519  51.788  1.00  0.00     0.211 C 
HETATM    6  O1  UNL     1      21.777   0.482  51.941  1.00  0.00    -0.362 OA
HETATM    7  C11 UNL     1      22.137  -0.522  52.939  1.00  0.00     0.339 C 
HETATM    8  O2  UNL     1      23.386  -0.503  53.124  1.00  0.00    -0.356 OA
HETATM    9  C12 UNL     1      24.438  -0.996  53.758  1.00  0.00     0.258 C 
HETATM   10  C13 UNL     1      25.536  -0.037  53.488  1.00  0.00    -0.089 C 
HETATM   11  C14 UNL     1      26.364   0.716  53.279  1.00  0.00     0.166 A 
HETATM   12  C15 UNL     1      27.440   1.733  52.993  1.00  0.00     0.167 A 
HETATM   13  O3  UNL     1      27.362   0.777  53.672  1.00  0.00    -0.283 OA
HETATM   14  N2  UNL     1      27.352   2.919  52.062  1.00  0.00    -0.261 NA
HETATM   15  C16 UNL     1      26.109   3.125  51.251  1.00  0.00     0.086 A 
HETATM   16  C17 UNL     1      26.286   3.047  49.924  1.00  0.00    -0.008 C 
HETATM   17  C18 UNL     1      25.061   3.204  49.334  1.00  0.00     0.008 C 
HETATM   18  C19 UNL     1      23.974   3.339  48.663  1.00  0.00     0.049 C 
HETATM   19  N3  UNL     1      22.528   3.535  48.615  1.00  0.00    -0.309 NA
HETATM   20  C20 UNL     1      21.753   2.803  49.417  1.00  0.00     0.278 C 
HETATM   21  H11 UNL     1      26.551   2.329  52.069  1.00  0.00     0.155 HD
ENDROOT
BRANCH   4  22
HETATM   22  C4  UNL     1      18.524   1.513  50.826  1.00  0.00    -0.025 A 
HETATM   23  C5  UNL     1      17.899   0.524  50.111  1.00  0.00     0.012 A 
HETATM   24  C6  UNL     1      16.518   0.329  50.041  1.00  0.00     0.002 A 
HETATM   25  C7  UNL     1      15.891   1.330  50.833  1.00  0.00     0.019 A 
HETATM   26  C8  UNL     1      16.387   2.366  51.591  1.00  0.00     0.011 A 
HETATM   27 BR1  UNL     1      15.223   3.443  52.557  1.00  0.00    -0.051 Br
HETATM   28  C9  UNL     1      17.773   2.444  51.569  1.00  0.00     0.031 A 
ENDBRANCH   4  22
TORSDOF 1
ENDMDL
