MODEL 1
REMARK VINA RESULT:      -8.6      0.000      0.000
REMARK  1 active torsions:
REMARK  status: ('A' for Active; 'I' for Inactive)
REMARK    1  A    between atoms: N1_2  and  C2_3 
ROOT
HETATM    1  C2  UNL     1      27.025   2.197  52.159  1.00  0.00     0.333 A 
HETATM    2  C3  UNL     1      26.524   1.283  52.931  1.00  0.00     0.044 C 
HETATM    3  C4  UNL     1      25.307   0.588  53.244  1.00  0.00     0.001 C 
HETATM    4  C5  UNL     1      24.401  -0.199  53.756  1.00  0.00     0.002 C 
HETATM    5  C6  UNL     1      23.054  -0.655  53.775  1.00  0.00     0.027 C 
HETATM    6  C7  UNL     1      21.861  -0.549  53.250  1.00  0.00     0.072 C 
HETATM    7 CL1  UNL     1      20.882  -1.728  54.184  1.00  0.00    -0.081 Cl
HETATM    8  C8  UNL     1      21.132   0.115  52.164  1.00  0.00     0.138 C 
HETATM    9  F1  UNL     1      19.802  -0.271  52.304  1.00  0.00    -0.204 F 
HETATM   10  C9  UNL     1      21.061   0.906  51.109  1.00  0.00     0.044 C 
HETATM   11  C10 UNL     1      21.958   1.749  50.265  1.00  0.00    -0.001 C 
HETATM   12  C11 UNL     1      23.136   2.304  49.867  1.00  0.00    -0.027 C 
HETATM   13  C12 UNL     1      23.243   3.226  48.711  1.00  0.00     0.027 C 
HETATM   14  C13 UNL     1      23.807   4.549  49.114  1.00  0.00     0.010 C 
HETATM   15  C14 UNL     1      25.250   4.494  49.459  1.00  0.00     0.070 C 
HETATM   16  C15 UNL     1      25.586   3.537  50.518  1.00  0.00     0.180 A 
HETATM   17  O1  UNL     1      25.709   2.699  51.412  1.00  0.00     0.000 OA
HETATM   18  N2  UNL     1      26.807   3.154  51.144  1.00  0.00     0.157 N 
HETATM   19  H16 UNL     1      27.672   3.675  50.777  1.00  0.00     0.327 HD
ENDROOT
BRANCH   1  20
HETATM   20  N1  UNL     1      28.403   2.177  52.627  1.00  0.00    -0.263 NA
HETATM   21  C1  UNL     1      28.747   2.487  53.807  1.00  0.00     0.146 C 
ENDBRANCH   1  20
TORSDOF 1
ENDMDL
MODEL 2
REMARK VINA RESULT:      -8.3      3.060      5.135
REMARK  1 active torsions:
REMARK  status: ('A' for Active; 'I' for Inactive)
REMARK    1  A    between atoms: N1_2  and  C2_3 
ROOT
HETATM    1  C2  UNL     1      26.629   0.004  54.434  1.00  0.00     0.333 A 
HETATM    2  C3  UNL     1      26.927   0.852  53.499  1.00  0.00     0.044 C 
HETATM    3  C4  UNL     1      26.359   1.633  52.437  1.00  0.00     0.001 C 
HETATM    4  C5  UNL     1      26.166   2.441  51.430  1.00  0.00     0.002 C 
HETATM    5  C6  UNL     1      25.267   3.045  50.508  1.00  0.00     0.027 C 
HETATM    6  C7  UNL     1      24.026   3.156  50.112  1.00  0.00     0.072 C 
HETATM    7 CL1  UNL     1      24.125   4.297  48.730  1.00  0.00    -0.081 Cl
HETATM    8  C8  UNL     1      22.661   2.744  50.458  1.00  0.00     0.138 C 
HETATM    9  F1  UNL     1      21.841   3.261  49.459  1.00  0.00    -0.204 F 
HETATM   10  C9  UNL     1      21.779   2.126  51.221  1.00  0.00     0.044 C 
HETATM   11  C10 UNL     1      21.740   1.312  52.472  1.00  0.00    -0.001 C 
HETATM   12  C11 UNL     1      22.250   0.684  53.568  1.00  0.00    -0.027 C 
HETATM   13  C12 UNL     1      21.410  -0.070  54.529  1.00  0.00     0.027 C 
HETATM   14  C13 UNL     1      21.846  -1.493  54.640  1.00  0.00     0.010 C 
HETATM   15  C14 UNL     1      23.145  -1.659  55.339  1.00  0.00     0.070 C 
HETATM   16  C15 UNL     1      24.256  -0.909  54.743  1.00  0.00     0.180 A 
HETATM   17  O1  UNL     1      25.081  -0.228  54.133  1.00  0.00     0.000 OA
HETATM   18  N2  UNL     1      25.634  -0.766  55.076  1.00  0.00     0.157 N 
HETATM   19  H16 UNL     1      25.939  -1.327  55.939  1.00  0.00     0.327 HD
ENDROOT
BRANCH   1  20
HETATM   20  N1  UNL     1      27.954  -0.205  55.000  1.00  0.00    -0.263 NA
HETATM   21  C1  UNL     1      29.017  -0.221  54.308  1.00  0.00     0.146 C 
ENDBRANCH   1  20
TORSDOF 1
ENDMDL
MODEL 3
REMARK VINA RESULT:      -8.1      3.631      6.102
REMARK  1 active torsions:
REMARK  status: ('A' for Active; 'I' for Inactive)
REMARK    1  A    between atoms: N1_2  and  C2_3 
ROOT
HETATM    1  C2  UNL     1      23.050  -0.768  53.848  1.00  0.00     0.333 A 
HETATM    2  C3  UNL     1      22.334  -0.216  52.918  1.00  0.00     0.044 C 
HETATM    3  C4  UNL     1      22.385   0.739  51.847  1.00  0.00     0.001 C 
HETATM    4  C5  UNL     1      22.104   1.520  50.840  1.00  0.00     0.002 C 
HETATM    5  C6  UNL     1      22.535   2.493  49.896  1.00  0.00     0.027 C 
HETATM    6  C7  UNL     1      23.531   3.215  49.454  1.00  0.00     0.072 C 
HETATM    7 CL1  UNL     1      22.804   4.165  48.116  1.00  0.00    -0.081 Cl
HETATM    8  C8  UNL     1      24.973   3.426  49.631  1.00  0.00     0.138 C 
HETATM    9  F1  UNL     1      25.315   4.467  48.773  1.00  0.00    -0.204 F 
HETATM   10  C9  UNL     1      26.140   3.155  50.186  1.00  0.00     0.044 C 
HETATM   11  C10 UNL     1      26.722   2.225  51.197  1.00  0.00    -0.001 C 
HETATM   12  C11 UNL     1      26.717   1.219  52.115  1.00  0.00    -0.027 C 
HETATM   13  C12 UNL     1      27.932   0.788  52.847  1.00  0.00     0.027 C 
HETATM   14  C13 UNL     1      27.754   0.907  54.324  1.00  0.00     0.010 C 
HETATM   15  C14 UNL     1      26.816  -0.096  54.888  1.00  0.00     0.070 C 
HETATM   16  C15 UNL     1      25.479  -0.083  54.287  1.00  0.00     0.180 A 
HETATM   17  O1  UNL     1      24.411   0.049  53.689  1.00  0.00     0.000 OA
HETATM   18  N2  UNL     1      24.299  -0.853  54.501  1.00  0.00     0.157 N 
HETATM   19  H16 UNL     1      24.393  -1.598  55.268  1.00  0.00     0.327 HD
ENDROOT
BRANCH   1  20
HETATM   20  N1  UNL     1      22.048  -1.646  54.434  1.00  0.00    -0.263 NA
HETATM   21  C1  UNL     1      20.801  -1.511  54.244  1.00  0.00     0.146 C 
ENDBRANCH   1  20
TORSDOF 1
ENDMDL
MODEL 4
REMARK VINA RESULT:      -8.1      1.605      4.357
REMARK  1 active torsions:
REMARK  status: ('A' for Active; 'I' for Inactive)
REMARK    1  A    between atoms: N1_2  and  C2_3 
ROOT
HETATM    1  C2  UNL     1      25.751   3.186  51.031  1.00  0.00     0.333 A 
HETATM    2  C3  UNL     1      24.472   2.984  50.955  1.00  0.00     0.044 C 
HETATM    3  C4  UNL     1      23.410   2.162  51.463  1.00  0.00     0.001 C 
HETATM    4  C5  UNL     1      22.256   1.608  51.716  1.00  0.00     0.002 C 
HETATM    5  C6  UNL     1      21.505   0.631  52.426  1.00  0.00     0.027 C 
HETATM    6  C7  UNL     1      21.531  -0.340  53.302  1.00  0.00     0.072 C 
HETATM    7 CL1  UNL     1      19.822  -0.877  53.391  1.00  0.00    -0.081 Cl
HETATM    8  C8  UNL     1      22.431  -1.030  54.234  1.00  0.00     0.138 C 
HETATM    9  F1  UNL     1      21.676  -2.048  54.810  1.00  0.00    -0.204 F 
HETATM   10  C9  UNL     1      23.598  -1.209  54.823  1.00  0.00     0.044 C 
HETATM   11  C10 UNL     1      24.967  -0.614  54.825  1.00  0.00    -0.001 C 
HETATM   12  C11 UNL     1      25.950   0.254  54.459  1.00  0.00    -0.027 C 
HETATM   13  C12 UNL     1      27.326   0.194  55.008  1.00  0.00     0.027 C 
HETATM   14  C13 UNL     1      28.341   0.014  53.927  1.00  0.00     0.010 C 
HETATM   15  C14 UNL     1      28.517   1.219  53.079  1.00  0.00     0.070 C 
HETATM   16  C15 UNL     1      27.287   1.702  52.443  1.00  0.00     0.180 A 
HETATM   17  O1  UNL     1      26.180   1.983  51.984  1.00  0.00     0.000 OA
HETATM   18  N2  UNL     1      26.992   2.797  51.582  1.00  0.00     0.157 N 
HETATM   19  H16 UNL     1      27.843   3.401  51.329  1.00  0.00     0.327 HD
ENDROOT
BRANCH   1  20
HETATM   20  N1  UNL     1      25.875   4.293  50.093  1.00  0.00    -0.263 NA
HETATM   21  C1  UNL     1      26.793   4.375  49.223  1.00  0.00     0.146 C 
ENDBRANCH   1  20
TORSDOF 1
ENDMDL
MODEL 5
REMARK VINA RESULT:      -7.9      1.816      2.376
REMARK  1 active torsions:
REMARK  status: ('A' for Active; 'I' for Inactive)
REMARK    1  A    between atoms: N1_2  and  C2_3 
ROOT
HETATM    1  C2  UNL     1      25.423   0.109  53.693  1.00  0.00     0.333 A 
HETATM    2  C3  UNL     1      24.458  -0.582  54.214  1.00  0.00     0.044 C 
HETATM    3  C4  UNL     1      23.044  -0.822  54.129  1.00  0.00     0.001 C 
HETATM    4  C5  UNL     1      21.826  -1.255  54.307  1.00  0.00     0.002 C 
HETATM    5  C6  UNL     1      20.455  -1.223  53.929  1.00  0.00     0.027 C 
HETATM    6  C7  UNL     1      19.559  -0.715  53.125  1.00  0.00     0.072 C 
HETATM    7 CL1  UNL     1      18.029  -1.493  53.650  1.00  0.00    -0.081 Cl
HETATM    8  C8  UNL     1      19.420   0.162  51.957  1.00  0.00     0.138 C 
HETATM    9  F1  UNL     1      18.053   0.252  51.707  1.00  0.00    -0.204 F 
HETATM   10  C9  UNL     1      19.907   0.934  51.003  1.00  0.00     0.044 C 
HETATM   11  C10 UNL     1      21.228   1.423  50.509  1.00  0.00    -0.001 C 
HETATM   12  C11 UNL     1      22.584   1.545  50.488  1.00  0.00    -0.027 C 
HETATM   13  C12 UNL     1      23.305   2.379  49.496  1.00  0.00     0.027 C 
HETATM   14  C13 UNL     1      24.133   3.428  50.161  1.00  0.00     0.010 C 
HETATM   15  C14 UNL     1      25.322   2.883  50.863  1.00  0.00     0.070 C 
HETATM   16  C15 UNL     1      25.018   1.866  51.874  1.00  0.00     0.180 A 
HETATM   17  O1  UNL     1      24.607   1.033  52.682  1.00  0.00     0.000 OA
HETATM   18  N2  UNL     1      25.822   1.087  52.755  1.00  0.00     0.157 N 
HETATM   19  H16 UNL     1      26.875   1.282  52.680  1.00  0.00     0.327 HD
ENDROOT
BRANCH   1  20
HETATM   20  N1  UNL     1      26.532  -0.382  54.499  1.00  0.00    -0.263 NA
HETATM   21  C1  UNL     1      27.667   0.182  54.547  1.00  0.00     0.146 C 
ENDBRANCH   1  20
TORSDOF 1
ENDMDL
MODEL 6
REMARK VINA RESULT:      -7.7      3.740      5.583
REMARK  1 active torsions:
REMARK  status: ('A' for Active; 'I' for Inactive)
REMARK    1  A    between atoms: N1_2  and  C2_3 
ROOT
HETATM    1  C2  UNL     1      21.230   0.124  52.578  1.00  0.00     0.333 A 
HETATM    2  C3  UNL     1      22.071  -0.291  53.473  1.00  0.00     0.044 C 
HETATM    3  C4  UNL     1      23.459  -0.261  53.843  1.00  0.00     0.001 C 
HETATM    4  C5  UNL     1      24.608  -0.425  54.439  1.00  0.00     0.002 C 
HETATM    5  C6  UNL     1      26.007  -0.173  54.475  1.00  0.00     0.027 C 
HETATM    6  C7  UNL     1      27.023   0.416  53.901  1.00  0.00     0.072 C 
HETATM    7 CL1  UNL     1      28.415  -0.027  54.944  1.00  0.00    -0.081 Cl
HETATM    8  C8  UNL     1      27.358   1.328  52.801  1.00  0.00     0.138 C 
HETATM    9  F1  UNL     1      28.746   1.443  52.810  1.00  0.00    -0.204 F 
HETATM   10  C9  UNL     1      27.042   2.106  51.782  1.00  0.00     0.044 C 
HETATM   11  C10 UNL     1      25.828   2.570  51.049  1.00  0.00    -0.001 C 
HETATM   12  C11 UNL     1      24.498   2.666  50.775  1.00  0.00    -0.027 C 
HETATM   13  C12 UNL     1      23.960   3.484  49.661  1.00  0.00     0.027 C 
HETATM   14  C13 UNL     1      23.167   2.656  48.705  1.00  0.00     0.010 C 
HETATM   15  C14 UNL     1      21.868   2.198  49.260  1.00  0.00     0.070 C 
HETATM   16  C15 UNL     1      21.975   1.437  50.509  1.00  0.00     0.180 A 
HETATM   17  O1  UNL     1      22.225   0.820  51.545  1.00  0.00     0.000 OA
HETATM   18  N2  UNL     1      21.019   0.831  51.374  1.00  0.00     0.157 N 
HETATM   19  H16 UNL     1      20.001   0.939  51.050  1.00  0.00     0.327 HD
ENDROOT
BRANCH   1  20
HETATM   20  N1  UNL     1      20.006  -0.454  53.113  1.00  0.00    -0.263 NA
HETATM   21  C1  UNL     1      18.892  -0.419  52.508  1.00  0.00     0.146 C 
ENDBRANCH   1  20
TORSDOF 1
ENDMDL
MODEL 7
REMARK VINA RESULT:      -7.6      3.962      6.087
REMARK  1 active torsions:
REMARK  status: ('A' for Active; 'I' for Inactive)
REMARK    1  A    between atoms: N1_2  and  C2_3 
ROOT
HETATM    1  C2  UNL     1      18.432   0.814  50.329  1.00  0.00     0.333 A 
HETATM    2  C3  UNL     1      18.585   0.215  51.469  1.00  0.00     0.044 C 
HETATM    3  C4  UNL     1      19.572  -0.172  52.437  1.00  0.00     0.001 C 
HETATM    4  C5  UNL     1      20.197  -0.652  53.477  1.00  0.00     0.002 C 
HETATM    5  C6  UNL     1      21.418  -0.854  54.178  1.00  0.00     0.027 C 
HETATM    6  C7  UNL     1      22.711  -0.657  54.193  1.00  0.00     0.072 C 
HETATM    7 CL1  UNL     1      23.242  -1.447  55.714  1.00  0.00    -0.081 Cl
HETATM    8  C8  UNL     1      23.783   0.027  53.461  1.00  0.00     0.138 C 
HETATM    9  F1  UNL     1      24.965  -0.303  54.118  1.00  0.00    -0.204 F 
HETATM   10  C9  UNL     1      24.236   0.795  52.488  1.00  0.00     0.044 C 
HETATM   11  C10 UNL     1      23.714   1.571  51.324  1.00  0.00    -0.001 C 
HETATM   12  C11 UNL     1      22.769   2.065  50.478  1.00  0.00    -0.027 C 
HETATM   13  C12 UNL     1      23.095   2.935  49.322  1.00  0.00     0.027 C 
HETATM   14  C13 UNL     1      22.625   2.339  48.037  1.00  0.00     0.010 C 
HETATM   15  C14 UNL     1      21.149   2.354  47.886  1.00  0.00     0.070 C 
HETATM   16  C15 UNL     1      20.420   1.683  48.967  1.00  0.00     0.180 A 
HETATM   17  O1  UNL     1      19.954   1.089  49.940  1.00  0.00     0.000 OA
HETATM   18  N2  UNL     1      19.037   1.470  49.234  1.00  0.00     0.157 N 
HETATM   19  H16 UNL     1      18.377   1.873  48.489  1.00  0.00     0.327 HD
ENDROOT
BRANCH   1  20
HETATM   20  N1  UNL     1      16.989   0.690  50.184  1.00  0.00    -0.263 NA
HETATM   21  C1  UNL     1      16.174   0.827  51.145  1.00  0.00     0.146 C 
ENDBRANCH   1  20
TORSDOF 1
ENDMDL
MODEL 8
REMARK VINA RESULT:      -7.6      1.780      4.325
REMARK  1 active torsions:
REMARK  status: ('A' for Active; 'I' for Inactive)
REMARK    1  A    between atoms: N1_2  and  C2_3 
ROOT
HETATM    1  C2  UNL     1      26.066   3.218  50.049  1.00  0.00     0.333 A 
HETATM    2  C3  UNL     1      24.908   3.450  49.514  1.00  0.00     0.044 C 
HETATM    3  C4  UNL     1      23.533   3.036  49.532  1.00  0.00     0.001 C 
HETATM    4  C5  UNL     1      22.255   2.900  49.309  1.00  0.00     0.002 C 
HETATM    5  C6  UNL     1      21.030   2.241  49.607  1.00  0.00     0.027 C 
HETATM    6  C7  UNL     1      20.431   1.332  50.331  1.00  0.00     0.072 C 
HETATM    7 CL1  UNL     1      18.729   1.394  49.763  1.00  0.00    -0.081 Cl
HETATM    8  C8  UNL     1      20.664   0.399  51.439  1.00  0.00     0.138 C 
HETATM    9  F1  UNL     1      19.473  -0.301  51.607  1.00  0.00    -0.204 F 
HETATM   10  C9  UNL     1      21.418  -0.148  52.375  1.00  0.00     0.044 C 
HETATM   11  C10 UNL     1      22.805  -0.041  52.914  1.00  0.00    -0.001 C 
HETATM   12  C11 UNL     1      24.074   0.445  53.005  1.00  0.00    -0.027 C 
HETATM   13  C12 UNL     1      25.063  -0.058  53.988  1.00  0.00     0.027 C 
HETATM   14  C13 UNL     1      26.288  -0.583  53.315  1.00  0.00     0.010 C 
HETATM   15  C14 UNL     1      27.130   0.480  52.712  1.00  0.00     0.070 C 
HETATM   16  C15 UNL     1      26.434   1.332  51.743  1.00  0.00     0.180 A 
HETATM   17  O1  UNL     1      25.718   1.956  50.960  1.00  0.00     0.000 OA
HETATM   18  N2  UNL     1      26.832   2.448  50.953  1.00  0.00     0.157 N 
HETATM   19  H16 UNL     1      27.860   2.731  51.076  1.00  0.00     0.327 HD
ENDROOT
BRANCH   1  20
HETATM   20  N1  UNL     1      26.864   4.204  49.335  1.00  0.00    -0.263 NA
HETATM   21  C1  UNL     1      26.435   5.355  49.019  1.00  0.00     0.146 C 
ENDBRANCH   1  20
TORSDOF 1
ENDMDL
MODEL 9
REMARK VINA RESULT:      -7.5      4.185      7.161
REMARK  1 active torsions:
REMARK  status: ('A' for Active; 'I' for Inactive)
REMARK    1  A    between atoms: N1_2  and  C2_3 
ROOT
HETATM    1  C2  UNL     1      19.807   0.946  50.560  1.00  0.00     0.333 A 
HETATM    2  C3  UNL     1      20.554   1.663  49.780  1.00  0.00     0.044 C 
HETATM    3  C4  UNL     1      21.878   2.200  49.636  1.00  0.00     0.001 C 
HETATM    4  C5  UNL     1      22.951   2.816  49.218  1.00  0.00     0.002 C 
HETATM    5  C6  UNL     1      24.317   3.155  49.422  1.00  0.00     0.027 C 
HETATM    6  C7  UNL     1      25.366   3.034  50.192  1.00  0.00     0.072 C 
HETATM    7 CL1  UNL     1      26.623   4.001  49.351  1.00  0.00    -0.081 Cl
HETATM    8  C8  UNL     1      25.841   2.343  51.397  1.00  0.00     0.138 C 
HETATM    9  F1  UNL     1      27.137   2.803  51.615  1.00  0.00    -0.204 F 
HETATM   10  C9  UNL     1      25.690   1.509  52.408  1.00  0.00     0.044 C 
HETATM   11  C10 UNL     1      24.656   0.593  52.974  1.00  0.00    -0.001 C 
HETATM   12  C11 UNL     1      23.450  -0.035  53.042  1.00  0.00    -0.027 C 
HETATM   13  C12 UNL     1      23.099  -0.996  54.115  1.00  0.00     0.027 C 
HETATM   14  C13 UNL     1      21.887  -0.559  54.869  1.00  0.00     0.010 C 
HETATM   15  C14 UNL     1      20.633  -0.672  54.084  1.00  0.00     0.070 C 
HETATM   16  C15 UNL     1      20.642   0.060  52.813  1.00  0.00     0.180 A 
HETATM   17  O1  UNL     1      20.801   0.721  51.786  1.00  0.00     0.000 OA
HETATM   18  N2  UNL     1      19.690   0.220  51.765  1.00  0.00     0.157 N 
HETATM   19  H16 UNL     1      18.761  -0.292  51.932  1.00  0.00     0.327 HD
ENDROOT
BRANCH   1  20
HETATM   20  N1  UNL     1      18.568   0.973  49.797  1.00  0.00    -0.263 NA
HETATM   21  C1  UNL     1      17.567   0.239  50.060  1.00  0.00     0.146 C 
ENDBRANCH   1  20
TORSDOF 1
ENDMDL
