MODEL 1
REMARK VINA RESULT:      -8.6      0.000      0.000
REMARK  7 active torsions:
REMARK  status: ('A' for Active; 'I' for Inactive)
REMARK    1  A    between atoms: N1_8  and  C7_9 
REMARK    2  A    between atoms: C10_12  and  O1_13 
REMARK    3  A    between atoms: O1_13  and  C11_14 
REMARK    4  A    between atoms: C11_14  and  C12_15 
REMARK    5  A    between atoms: C12_15  and  C13_16 
REMARK    6  A    between atoms: C13_16  and  N2_17 
REMARK    7  A    between atoms: C18_23  and  O3_24 
ROOT
HETATM    1  C7  UNL     1      26.488   1.531  52.803  1.00  0.00     0.135 C 
HETATM    2  C8  UNL     1      26.638   2.334  51.695  1.00  0.00     0.054 C 
HETATM    3  C9  UNL     1      26.635   2.836  50.410  1.00  0.00     0.043 C 
HETATM    4  C10 UNL     1      25.534   3.476  49.882  1.00  0.00     0.102 C 
HETATM    5  C18 UNL     1      24.198   3.286  50.052  1.00  0.00     0.102 C 
HETATM    6  C20 UNL     1      23.384   3.402  51.185  1.00  0.00     0.059 C 
HETATM    7  C21 UNL     1      23.296   2.813  52.429  1.00  0.00     0.121 C 
HETATM    8  N3  UNL     1      23.183   1.583  52.959  1.00  0.00    -0.254 NA
HETATM    9  C22 UNL     1      24.265   0.830  53.283  1.00  0.00     0.234 C 
HETATM   10  N4  UNL     1      25.382   1.535  53.548  1.00  0.00    -0.224 NA
ENDROOT
BRANCH   4  11
HETATM   11  O1  UNL     1      25.741   4.515  49.008  1.00  0.00    -0.348 OA
BRANCH  11  12
HETATM   12  C11 UNL     1      26.047   5.849  49.366  1.00  0.00     0.177 C 
BRANCH  12  13
HETATM   13  C12 UNL     1      27.072   6.314  48.355  1.00  0.00     0.046 C 
BRANCH  13  14
HETATM   14  C13 UNL     1      28.327   5.457  48.396  1.00  0.00     0.119 C 
BRANCH  14  15
HETATM   15  N2  UNL     1      29.437   6.333  48.236  1.00  0.00    -0.408 N 
HETATM   16  C14 UNL     1      30.722   5.808  48.530  1.00  0.00     0.143 C 
HETATM   17  C15 UNL     1      31.591   6.628  49.419  1.00  0.00     0.187 C 
HETATM   18  O2  UNL     1      31.496   7.983  49.297  1.00  0.00    -0.388 OA
HETATM   19  C16 UNL     1      30.545   8.459  48.434  1.00  0.00     0.187 C 
HETATM   20  C17 UNL     1      29.223   7.707  48.545  1.00  0.00     0.143 C 
ENDBRANCH  14  15
ENDBRANCH  13  14
ENDBRANCH  12  13
ENDBRANCH  11  12
ENDBRANCH   4  11
BRANCH   5  21
HETATM   21  O3  UNL     1      23.489   2.911  48.946  1.00  0.00    -0.353 OA
HETATM   22  C19 UNL     1      22.315   2.141  48.923  1.00  0.00     0.210 C 
ENDBRANCH   5  21
BRANCH   1  23
HETATM   23  N1  UNL     1      27.600   0.686  53.110  1.00  0.00    -0.308 N 
HETATM   24  C2  UNL     1      27.619  -0.713  52.844  1.00  0.00     0.057 A 
HETATM   25  C1  UNL     1      26.505  -1.178  52.284  1.00  0.00     0.067 C 
HETATM   26  C3  UNL     1      28.750  -1.575  53.152  1.00  0.00     0.139 A 
HETATM   27  F1  UNL     1      28.612  -2.870  52.843  1.00  0.00    -0.204 F 
HETATM   28  C4  UNL     1      29.814  -0.997  53.714  1.00  0.00     0.046 A 
HETATM   29  C5  UNL     1      29.819   0.434  53.994  1.00  0.00     0.021 A 
HETATM   30  C6  UNL     1      28.785   1.230  53.715  1.00  0.00     0.099 A 
ENDBRANCH   1  23
TORSDOF 7
ENDMDL
MODEL 2
REMARK VINA RESULT:      -8.5      1.253      1.756
REMARK  7 active torsions:
REMARK  status: ('A' for Active; 'I' for Inactive)
REMARK    1  A    between atoms: N1_8  and  C7_9 
REMARK    2  A    between atoms: C10_12  and  O1_13 
REMARK    3  A    between atoms: O1_13  and  C11_14 
REMARK    4  A    between atoms: C11_14  and  C12_15 
REMARK    5  A    between atoms: C12_15  and  C13_16 
REMARK    6  A    between atoms: C13_16  and  N2_17 
REMARK    7  A    between atoms: C18_23  and  O3_24 
ROOT
HETATM    1  C7  UNL     1      26.095   2.058  52.401  1.00  0.00     0.135 C 
HETATM    2  C8  UNL     1      26.455   2.794  51.295  1.00  0.00     0.054 C 
HETATM    3  C9  UNL     1      26.576   3.293  50.014  1.00  0.00     0.043 C 
HETATM    4  C10 UNL     1      25.705   4.238  49.516  1.00  0.00     0.102 C 
HETATM    5  C18 UNL     1      24.376   4.451  49.716  1.00  0.00     0.102 C 
HETATM    6  C20 UNL     1      23.657   4.789  50.869  1.00  0.00     0.059 C 
HETATM    7  C21 UNL     1      23.423   4.236  52.110  1.00  0.00     0.121 C 
HETATM    8  N3  UNL     1      22.959   3.088  52.634  1.00  0.00    -0.254 NA
HETATM    9  C22 UNL     1      23.775   2.043  52.928  1.00  0.00     0.234 C 
HETATM   10  N4  UNL     1      25.056   2.380  53.171  1.00  0.00    -0.224 NA
ENDROOT
BRANCH   4  11
HETATM   11  O1  UNL     1      26.194   5.180  48.646  1.00  0.00    -0.348 OA
BRANCH  11  12
HETATM   12  C11 UNL     1      26.368   6.556  48.927  1.00  0.00     0.177 C 
BRANCH  12  13
HETATM   13  C12 UNL     1      27.564   6.988  48.106  1.00  0.00     0.046 C 
BRANCH  13  14
HETATM   14  C13 UNL     1      28.672   5.947  48.141  1.00  0.00     0.119 C 
BRANCH  14  15
HETATM   15  N2  UNL     1      29.904   6.651  48.233  1.00  0.00    -0.408 N 
HETATM   16  C14 UNL     1      31.056   5.896  48.574  1.00  0.00     0.143 C 
HETATM   17  C15 UNL     1      31.912   6.439  49.664  1.00  0.00     0.187 C 
HETATM   18  O2  UNL     1      32.024   7.796  49.744  1.00  0.00    -0.388 OA
HETATM   19  C16 UNL     1      31.266   8.529  48.871  1.00  0.00     0.187 C 
HETATM   20  C17 UNL     1      29.848   7.987  48.727  1.00  0.00     0.143 C 
ENDBRANCH  14  15
ENDBRANCH  13  14
ENDBRANCH  12  13
ENDBRANCH  11  12
ENDBRANCH   4  11
BRANCH   5  21
HETATM   21  O3  UNL     1      23.566   4.320  48.625  1.00  0.00    -0.353 OA
HETATM   22  C19 UNL     1      22.734   5.308  48.074  1.00  0.00     0.210 C 
ENDBRANCH   5  21
BRANCH   1  23
HETATM   23  N1  UNL     1      26.911   0.916  52.676  1.00  0.00    -0.308 N 
HETATM   24  C2  UNL     1      28.196   0.998  53.285  1.00  0.00     0.057 A 
HETATM   25  C1  UNL     1      28.583   2.237  53.579  1.00  0.00     0.067 C 
HETATM   26  C3  UNL     1      29.028  -0.162  53.567  1.00  0.00     0.139 A 
HETATM   27  F1  UNL     1      30.212   0.081  54.142  1.00  0.00    -0.204 F 
HETATM   28  C4  UNL     1      28.535  -1.356  53.228  1.00  0.00     0.046 A 
HETATM   29  C5  UNL     1      27.221  -1.465  52.605  1.00  0.00     0.021 A 
HETATM   30  C6  UNL     1      26.453  -0.406  52.342  1.00  0.00     0.099 A 
ENDBRANCH   1  23
TORSDOF 7
ENDMDL
MODEL 3
REMARK VINA RESULT:      -8.4      3.903      7.127
REMARK  7 active torsions:
REMARK  status: ('A' for Active; 'I' for Inactive)
REMARK    1  A    between atoms: N1_8  and  C7_9 
REMARK    2  A    between atoms: C10_12  and  O1_13 
REMARK    3  A    between atoms: O1_13  and  C11_14 
REMARK    4  A    between atoms: C11_14  and  C12_15 
REMARK    5  A    between atoms: C12_15  and  C13_16 
REMARK    6  A    between atoms: C13_16  and  N2_17 
REMARK    7  A    between atoms: C18_23  and  O3_24 
ROOT
HETATM    1  C7  UNL     1      23.891   3.651  49.877  1.00  0.00     0.135 C 
HETATM    2  C8  UNL     1      24.022   2.959  51.060  1.00  0.00     0.054 C 
HETATM    3  C9  UNL     1      23.844   2.467  52.337  1.00  0.00     0.043 C 
HETATM    4  C10 UNL     1      23.002   1.408  52.599  1.00  0.00     0.102 C 
HETATM    5  C18 UNL     1      21.823   1.019  52.043  1.00  0.00     0.102 C 
HETATM    6  C20 UNL     1      21.507   0.599  50.745  1.00  0.00     0.059 C 
HETATM    7  C21 UNL     1      21.558   1.128  49.473  1.00  0.00     0.121 C 
HETATM    8  N3  UNL     1      21.112   2.209  48.808  1.00  0.00    -0.254 NA
HETATM    9  C22 UNL     1      21.830   3.357  48.725  1.00  0.00     0.234 C 
HETATM   10  N4  UNL     1      23.161   3.199  48.858  1.00  0.00    -0.224 NA
ENDROOT
BRANCH   4  11
HETATM   11  O1  UNL     1      23.348   0.532  53.597  1.00  0.00    -0.348 OA
BRANCH  11  12
HETATM   12  C11 UNL     1      23.935  -0.743  53.414  1.00  0.00     0.177 C 
BRANCH  12  13
HETATM   13  C12 UNL     1      25.399  -0.566  53.755  1.00  0.00     0.046 C 
BRANCH  13  14
HETATM   14  C13 UNL     1      26.257  -0.463  52.504  1.00  0.00     0.119 C 
BRANCH  14  15
HETATM   15  N2  UNL     1      27.403   0.306  52.846  1.00  0.00    -0.408 N 
HETATM   16  C14 UNL     1      28.392  -0.326  53.642  1.00  0.00     0.143 C 
HETATM   17  C15 UNL     1      28.874   0.429  54.832  1.00  0.00     0.187 C 
HETATM   18  O2  UNL     1      28.960   1.785  54.711  1.00  0.00    -0.388 OA
HETATM   19  C16 UNL     1      28.509   2.328  53.538  1.00  0.00     0.187 C 
HETATM   20  C17 UNL     1      27.202   1.700  53.065  1.00  0.00     0.143 C 
ENDBRANCH  14  15
ENDBRANCH  13  14
ENDBRANCH  12  13
ENDBRANCH  11  12
ENDBRANCH   4  11
BRANCH   5  21
HETATM   21  O3  UNL     1      20.729   1.028  52.861  1.00  0.00    -0.353 OA
HETATM   22  C19 UNL     1      19.931  -0.074  53.206  1.00  0.00     0.210 C 
ENDBRANCH   5  21
BRANCH   1  23
HETATM   23  N1  UNL     1      24.592   4.895  49.809  1.00  0.00    -0.308 N 
HETATM   24  C2  UNL     1      24.101   6.105  50.380  1.00  0.00     0.057 A 
HETATM   25  C1  UNL     1      22.923   5.984  50.987  1.00  0.00     0.067 C 
HETATM   26  C3  UNL     1      24.814   7.372  50.315  1.00  0.00     0.139 A 
HETATM   27  F1  UNL     1      24.219   8.419  50.899  1.00  0.00    -0.204 F 
HETATM   28  C4  UNL     1      25.989   7.372  49.680  1.00  0.00     0.046 A 
HETATM   29  C5  UNL     1      26.513   6.146  49.089  1.00  0.00     0.021 A 
HETATM   30  C6  UNL     1      25.864   4.981  49.145  1.00  0.00     0.099 A 
ENDBRANCH   1  23
TORSDOF 7
ENDMDL
MODEL 4
REMARK VINA RESULT:      -8.1      2.550      4.110
REMARK  7 active torsions:
REMARK  status: ('A' for Active; 'I' for Inactive)
REMARK    1  A    between atoms: N1_8  and  C7_9 
REMARK    2  A    between atoms: C10_12  and  O1_13 
REMARK    3  A    between atoms: O1_13  and  C11_14 
REMARK    4  A    between atoms: C11_14  and  C12_15 
REMARK    5  A    between atoms: C12_15  and  C13_16 
REMARK    6  A    between atoms: C13_16  and  N2_17 
REMARK    7  A    between atoms: C18_23  and  O3_24 
ROOT
HETATM    1  C7  UNL     1      26.412   1.523  52.802  1.00  0.00     0.135 C 
HETATM    2  C8  UNL     1      26.548   2.325  51.692  1.00  0.00     0.054 C 
HETATM    3  C9  UNL     1      26.537   2.825  50.405  1.00  0.00     0.043 C 
HETATM    4  C10 UNL     1      25.424   3.438  49.873  1.00  0.00     0.102 C 
HETATM    5  C18 UNL     1      24.091   3.219  50.040  1.00  0.00     0.102 C 
HETATM    6  C20 UNL     1      23.272   3.320  51.170  1.00  0.00     0.059 C 
HETATM    7  C21 UNL     1      23.194   2.732  52.416  1.00  0.00     0.121 C 
HETATM    8  N3  UNL     1      23.107   1.501  52.948  1.00  0.00    -0.254 NA
HETATM    9  C22 UNL     1      24.205   0.773  53.277  1.00  0.00     0.234 C 
HETATM   10  N4  UNL     1      25.305   1.503  53.543  1.00  0.00    -0.224 NA
ENDROOT
BRANCH   4  11
HETATM   11  O1  UNL     1      25.609   4.479  48.997  1.00  0.00    -0.348 OA
BRANCH  11  12
HETATM   12  C11 UNL     1      26.174   5.737  49.315  1.00  0.00     0.177 C 
BRANCH  12  13
HETATM   13  C12 UNL     1      25.023   6.719  49.275  1.00  0.00     0.046 C 
BRANCH  13  14
HETATM   14  C13 UNL     1      24.459   6.976  50.663  1.00  0.00     0.119 C 
BRANCH  14  15
HETATM   15  N2  UNL     1      23.190   7.595  50.491  1.00  0.00    -0.408 N 
HETATM   16  C14 UNL     1      22.045   6.828  50.827  1.00  0.00     0.143 C 
HETATM   17  C15 UNL     1      20.949   6.787  49.821  1.00  0.00     0.187 C 
HETATM   18  O2  UNL     1      20.734   7.922  49.095  1.00  0.00    -0.388 OA
HETATM   19  C16 UNL     1      21.606   8.958  49.299  1.00  0.00     0.187 C 
HETATM   20  C17 UNL     1      23.056   8.495  49.394  1.00  0.00     0.143 C 
ENDBRANCH  14  15
ENDBRANCH  13  14
ENDBRANCH  12  13
ENDBRANCH  11  12
ENDBRANCH   4  11
BRANCH   5  21
HETATM   21  O3  UNL     1      23.394   2.826  48.933  1.00  0.00    -0.353 OA
HETATM   22  C19 UNL     1      22.279   3.470  48.371  1.00  0.00     0.210 C 
ENDBRANCH   5  21
BRANCH   1  23
HETATM   23  N1  UNL     1      27.542   0.704  53.113  1.00  0.00    -0.308 N 
HETATM   24  C2  UNL     1      27.595  -0.695  52.848  1.00  0.00     0.057 A 
HETATM   25  C1  UNL     1      26.495  -1.185  52.282  1.00  0.00     0.067 C 
HETATM   26  C3  UNL     1      28.744  -1.531  53.161  1.00  0.00     0.139 A 
HETATM   27  F1  UNL     1      28.638  -2.828  52.851  1.00  0.00    -0.204 F 
HETATM   28  C4  UNL     1      29.792  -0.928  53.728  1.00  0.00     0.046 A 
HETATM   29  C5  UNL     1      29.763   0.502  54.008  1.00  0.00     0.021 A 
HETATM   30  C6  UNL     1      28.712   1.275  53.724  1.00  0.00     0.099 A 
ENDBRANCH   1  23
TORSDOF 7
ENDMDL
MODEL 5
REMARK VINA RESULT:      -7.9      3.909      8.338
REMARK  7 active torsions:
REMARK  status: ('A' for Active; 'I' for Inactive)
REMARK    1  A    between atoms: N1_8  and  C7_9 
REMARK    2  A    between atoms: C10_12  and  O1_13 
REMARK    3  A    between atoms: O1_13  and  C11_14 
REMARK    4  A    between atoms: C11_14  and  C12_15 
REMARK    5  A    between atoms: C12_15  and  C13_16 
REMARK    6  A    between atoms: C13_16  and  N2_17 
REMARK    7  A    between atoms: C18_23  and  O3_24 
ROOT
HETATM    1  C7  UNL     1      26.143   1.625  51.825  1.00  0.00     0.135 C 
HETATM    2  C8  UNL     1      24.908   1.354  52.369  1.00  0.00     0.054 C 
HETATM    3  C9  UNL     1      23.710   1.436  53.049  1.00  0.00     0.043 C 
HETATM    4  C10 UNL     1      22.582   1.978  52.472  1.00  0.00     0.102 C 
HETATM    5  C18 UNL     1      22.407   2.995  51.585  1.00  0.00     0.102 C 
HETATM    6  C20 UNL     1      22.830   3.148  50.259  1.00  0.00     0.059 C 
HETATM    7  C21 UNL     1      24.030   3.197  49.582  1.00  0.00     0.121 C 
HETATM    8  N3  UNL     1      25.181   3.891  49.615  1.00  0.00    -0.254 NA
HETATM    9  C22 UNL     1      26.245   3.498  50.362  1.00  0.00     0.234 C 
HETATM   10  N4  UNL     1      26.292   2.177  50.621  1.00  0.00    -0.224 NA
ENDROOT
BRANCH   4  11
HETATM   11  O1  UNL     1      21.361   1.445  52.803  1.00  0.00    -0.348 OA
BRANCH  11  12
HETATM   12  C11 UNL     1      21.126   0.472  53.803  1.00  0.00     0.177 C 
BRANCH  12  13
HETATM   13  C12 UNL     1      19.881  -0.269  53.362  1.00  0.00     0.046 C 
BRANCH  13  14
HETATM   14  C13 UNL     1      19.471   0.118  51.950  1.00  0.00     0.119 C 
BRANCH  14  15
HETATM   15  N2  UNL     1      18.123  -0.299  51.777  1.00  0.00    -0.408 N 
HETATM   16  C14 UNL     1      17.205   0.666  51.288  1.00  0.00     0.143 C 
HETATM   17  C15 UNL     1      15.925   0.809  52.034  1.00  0.00     0.187 C 
HETATM   18  O2  UNL     1      15.391  -0.327  52.569  1.00  0.00    -0.388 OA
HETATM   19  C16 UNL     1      16.131  -1.472  52.446  1.00  0.00     0.187 C 
HETATM   20  C17 UNL     1      17.615  -1.244  52.715  1.00  0.00     0.143 C 
ENDBRANCH  14  15
ENDBRANCH  13  14
ENDBRANCH  12  13
ENDBRANCH  11  12
ENDBRANCH   4  11
BRANCH   5  21
HETATM   21  O3  UNL     1      21.702   4.077  52.028  1.00  0.00    -0.353 OA
HETATM   22  C19 UNL     1      21.247   5.157  51.254  1.00  0.00     0.210 C 
ENDBRANCH   5  21
BRANCH   1  23
HETATM   23  N1  UNL     1      27.266   1.274  52.637  1.00  0.00    -0.308 N 
HETATM   24  C2  UNL     1      27.700  -0.068  52.840  1.00  0.00     0.057 A 
HETATM   25  C1  UNL     1      26.966  -0.980  52.208  1.00  0.00     0.067 C 
HETATM   26  C3  UNL     1      28.843  -0.428  53.664  1.00  0.00     0.139 A 
HETATM   27  F1  UNL     1      29.122  -1.734  53.757  1.00  0.00    -0.204 F 
HETATM   28  C4  UNL     1      29.505   0.573  54.250  1.00  0.00     0.046 A 
HETATM   29  C5  UNL     1      29.082   1.955  54.055  1.00  0.00     0.021 A 
HETATM   30  C6  UNL     1      28.033   2.292  53.302  1.00  0.00     0.099 A 
ENDBRANCH   1  23
TORSDOF 7
ENDMDL
MODEL 6
REMARK VINA RESULT:      -7.7      1.945      2.701
REMARK  7 active torsions:
REMARK  status: ('A' for Active; 'I' for Inactive)
REMARK    1  A    between atoms: N1_8  and  C7_9 
REMARK    2  A    between atoms: C10_12  and  O1_13 
REMARK    3  A    between atoms: O1_13  and  C11_14 
REMARK    4  A    between atoms: C11_14  and  C12_15 
REMARK    5  A    between atoms: C12_15  and  C13_16 
REMARK    6  A    between atoms: C13_16  and  N2_17 
REMARK    7  A    between atoms: C18_23  and  O3_24 
ROOT
HETATM    1  C7  UNL     1      26.303   1.186  52.506  1.00  0.00     0.135 C 
HETATM    2  C8  UNL     1      26.625   1.954  51.410  1.00  0.00     0.054 C 
HETATM    3  C9  UNL     1      26.695   2.495  50.142  1.00  0.00     0.043 C 
HETATM    4  C10 UNL     1      25.820   3.472  49.719  1.00  0.00     0.102 C 
HETATM    5  C18 UNL     1      24.506   3.702  49.989  1.00  0.00     0.102 C 
HETATM    6  C20 UNL     1      23.849   4.012  51.185  1.00  0.00     0.059 C 
HETATM    7  C21 UNL     1      23.663   3.420  52.417  1.00  0.00     0.121 C 
HETATM    8  N3  UNL     1      23.202   2.263  52.923  1.00  0.00    -0.254 NA
HETATM    9  C22 UNL     1      24.011   1.194  53.142  1.00  0.00     0.234 C 
HETATM   10  N4  UNL     1      25.308   1.500  53.335  1.00  0.00    -0.224 NA
ENDROOT
BRANCH   4  11
HETATM   11  O1  UNL     1      26.285   4.435  48.858  1.00  0.00    -0.348 OA
BRANCH  11  12
HETATM   12  C11 UNL     1      26.292   5.829  49.102  1.00  0.00     0.177 C 
BRANCH  12  13
HETATM   13  C12 UNL     1      27.549   6.349  48.438  1.00  0.00     0.046 C 
BRANCH  13  14
HETATM   14  C13 UNL     1      27.744   7.835  48.695  1.00  0.00     0.119 C 
BRANCH  14  15
HETATM   15  N2  UNL     1      27.796   8.476  47.426  1.00  0.00    -0.408 N 
HETATM   16  C14 UNL     1      26.589   9.037  46.934  1.00  0.00     0.143 C 
HETATM   17  C15 UNL     1      26.216   8.696  45.534  1.00  0.00     0.187 C 
HETATM   18  O2  UNL     1      27.236   8.557  44.639  1.00  0.00    -0.388 OA
HETATM   19  C16 UNL     1      28.508   8.655  45.135  1.00  0.00     0.187 C 
HETATM   20  C17 UNL     1      28.681   7.917  46.458  1.00  0.00     0.143 C 
ENDBRANCH  14  15
ENDBRANCH  13  14
ENDBRANCH  12  13
ENDBRANCH  11  12
ENDBRANCH   4  11
BRANCH   5  21
HETATM   21  O3  UNL     1      23.643   3.623  48.934  1.00  0.00    -0.353 OA
HETATM   22  C19 UNL     1      22.621   4.533  48.616  1.00  0.00     0.210 C 
ENDBRANCH   5  21
BRANCH   1  23
HETATM   23  N1  UNL     1      27.109   0.022  52.702  1.00  0.00    -0.308 N 
HETATM   24  C2  UNL     1      28.420   0.058  53.260  1.00  0.00     0.057 A 
HETATM   25  C1  UNL     1      28.840   1.278  53.585  1.00  0.00     0.067 C 
HETATM   26  C3  UNL     1      29.241  -1.125  53.463  1.00  0.00     0.139 A 
HETATM   27  F1  UNL     1      30.452  -0.924  53.997  1.00  0.00    -0.204 F 
HETATM   28  C4  UNL     1      28.714  -2.297  53.098  1.00  0.00     0.046 A 
HETATM   29  C5  UNL     1      27.373  -2.360  52.526  1.00  0.00     0.021 A 
HETATM   30  C6  UNL     1      26.615  -1.278  52.337  1.00  0.00     0.099 A 
ENDBRANCH   1  23
TORSDOF 7
ENDMDL
MODEL 7
REMARK VINA RESULT:      -7.5      3.529      5.278
REMARK  7 active torsions:
REMARK  status: ('A' for Active; 'I' for Inactive)
REMARK    1  A    between atoms: N1_8  and  C7_9 
REMARK    2  A    between atoms: C10_12  and  O1_13 
REMARK    3  A    between atoms: O1_13  and  C11_14 
REMARK    4  A    between atoms: C11_14  and  C12_15 
REMARK    5  A    between atoms: C12_15  and  C13_16 
REMARK    6  A    between atoms: C13_16  and  N2_17 
REMARK    7  A    between atoms: C18_23  and  O3_24 
ROOT
HETATM    1  C7  UNL     1      24.288   4.460  50.996  1.00  0.00     0.135 C 
HETATM    2  C8  UNL     1      25.407   4.380  50.199  1.00  0.00     0.054 C 
HETATM    3  C9  UNL     1      26.277   4.387  49.127  1.00  0.00     0.043 C 
HETATM    4  C10 UNL     1      26.876   5.546  48.684  1.00  0.00     0.102 C 
HETATM    5  C18 UNL     1      26.445   6.835  48.630  1.00  0.00     0.102 C 
HETATM    6  C20 UNL     1      26.081   7.731  49.642  1.00  0.00     0.059 C 
HETATM    7  C21 UNL     1      25.129   7.796  50.638  1.00  0.00     0.121 C 
HETATM    8  N3  UNL     1      23.793   7.723  50.766  1.00  0.00    -0.254 NA
HETATM    9  C22 UNL     1      23.148   6.548  50.981  1.00  0.00     0.234 C 
HETATM   10  N4  UNL     1      23.895   5.596  51.571  1.00  0.00    -0.224 NA
ENDROOT
BRANCH   4  11
HETATM   11  O1  UNL     1      28.153   5.470  48.185  1.00  0.00    -0.348 OA
BRANCH  11  12
HETATM   12  C11 UNL     1      29.227   6.326  48.527  1.00  0.00     0.177 C 
BRANCH  12  13
HETATM   13  C12 UNL     1      30.443   5.744  47.837  1.00  0.00     0.046 C 
BRANCH  13  14
HETATM   14  C13 UNL     1      31.678   5.821  48.720  1.00  0.00     0.119 C 
BRANCH  14  15
HETATM   15  N2  UNL     1      32.723   5.141  48.038  1.00  0.00    -0.408 N 
HETATM   16  C14 UNL     1      32.419   3.865  47.496  1.00  0.00     0.143 C 
HETATM   17  C15 UNL     1      33.374   2.764  47.802  1.00  0.00     0.187 C 
HETATM   18  O2  UNL     1      34.695   3.096  47.882  1.00  0.00    -0.388 OA
HETATM   19  C16 UNL     1      35.004   4.425  47.764  1.00  0.00     0.187 C 
HETATM   20  C17 UNL     1      34.045   5.322  48.538  1.00  0.00     0.143 C 
ENDBRANCH  14  15
ENDBRANCH  13  14
ENDBRANCH  12  13
ENDBRANCH  11  12
ENDBRANCH   4  11
BRANCH   5  21
HETATM   21  O3  UNL     1      26.330   7.389  47.387  1.00  0.00    -0.353 OA
HETATM   22  C19 UNL     1      25.187   7.996  46.841  1.00  0.00     0.210 C 
ENDBRANCH   5  21
BRANCH   1  23
HETATM   23  N1  UNL     1      23.566   3.238  51.170  1.00  0.00    -0.308 N 
HETATM   24  C2  UNL     1      23.670   2.424  52.335  1.00  0.00     0.057 A 
HETATM   25  C1  UNL     1      24.504   2.896  53.258  1.00  0.00     0.067 C 
HETATM   26  C3  UNL     1      22.935   1.182  52.516  1.00  0.00     0.139 A 
HETATM   27  F1  UNL     1      23.143   0.530  53.667  1.00  0.00    -0.204 F 
HETATM   28  C4  UNL     1      22.126   0.807  51.522  1.00  0.00     0.046 A 
HETATM   29  C5  UNL     1      22.001   1.625  50.320  1.00  0.00     0.021 A 
HETATM   30  C6  UNL     1      22.673   2.765  50.147  1.00  0.00     0.099 A 
ENDBRANCH   1  23
TORSDOF 7
ENDMDL
MODEL 8
REMARK VINA RESULT:      -7.4      3.979      5.931
REMARK  7 active torsions:
REMARK  status: ('A' for Active; 'I' for Inactive)
REMARK    1  A    between atoms: N1_8  and  C7_9 
REMARK    2  A    between atoms: C10_12  and  O1_13 
REMARK    3  A    between atoms: O1_13  and  C11_14 
REMARK    4  A    between atoms: C11_14  and  C12_15 
REMARK    5  A    between atoms: C12_15  and  C13_16 
REMARK    6  A    between atoms: C13_16  and  N2_17 
REMARK    7  A    between atoms: C18_23  and  O3_24 
ROOT
HETATM    1  C7  UNL     1      24.938   4.698  50.445  1.00  0.00     0.135 C 
HETATM    2  C8  UNL     1      26.145   4.488  49.816  1.00  0.00     0.054 C 
HETATM    3  C9  UNL     1      27.150   4.372  48.879  1.00  0.00     0.043 C 
HETATM    4  C10 UNL     1      27.905   5.454  48.482  1.00  0.00     0.102 C 
HETATM    5  C18 UNL     1      27.600   6.771  48.322  1.00  0.00     0.102 C 
HETATM    6  C20 UNL     1      27.182   7.741  49.240  1.00  0.00     0.059 C 
HETATM    7  C21 UNL     1      26.113   7.932  50.090  1.00  0.00     0.121 C 
HETATM    8  N3  UNL     1      24.770   7.976  50.030  1.00  0.00    -0.254 NA
HETATM    9  C22 UNL     1      24.000   6.870  50.194  1.00  0.00     0.234 C 
HETATM   10  N4  UNL     1      24.572   5.889  50.918  1.00  0.00    -0.224 NA
ENDROOT
BRANCH   4  11
HETATM   11  O1  UNL     1      29.226   5.250  48.172  1.00  0.00    -0.348 OA
BRANCH  11  12
HETATM   12  C11 UNL     1      30.324   5.955  48.719  1.00  0.00     0.177 C 
BRANCH  12  13
HETATM   13  C12 UNL     1      31.420   5.868  47.677  1.00  0.00     0.046 C 
BRANCH  13  14
HETATM   14  C13 UNL     1      32.324   4.670  47.915  1.00  0.00     0.119 C 
BRANCH  14  15
HETATM   15  N2  UNL     1      32.810   4.254  46.645  1.00  0.00    -0.408 N 
HETATM   16  C14 UNL     1      33.856   3.294  46.635  1.00  0.00     0.143 C 
HETATM   17  C15 UNL     1      35.032   3.598  45.775  1.00  0.00     0.187 C 
HETATM   18  O2  UNL     1      34.788   4.250  44.602  1.00  0.00    -0.388 OA
HETATM   19  C16 UNL     1      33.497   4.642  44.372  1.00  0.00     0.187 C 
HETATM   20  C17 UNL     1      32.835   5.234  45.612  1.00  0.00     0.143 C 
ENDBRANCH  14  15
ENDBRANCH  13  14
ENDBRANCH  12  13
ENDBRANCH  11  12
ENDBRANCH   4  11
BRANCH   5  21
HETATM   21  O3  UNL     1      27.707   7.273  47.056  1.00  0.00    -0.353 OA
HETATM   22  C19 UNL     1      27.010   8.372  46.528  1.00  0.00     0.210 C 
ENDBRANCH   5  21
BRANCH   1  23
HETATM   23  N1  UNL     1      24.094   3.550  50.559  1.00  0.00    -0.308 N 
HETATM   24  C2  UNL     1      23.206   3.122  49.531  1.00  0.00     0.057 A 
HETATM   25  C1  UNL     1      23.223   3.887  48.442  1.00  0.00     0.067 C 
HETATM   26  C3  UNL     1      22.348   1.953  49.643  1.00  0.00     0.139 A 
HETATM   27  F1  UNL     1      21.568   1.683  48.589  1.00  0.00    -0.204 F 
HETATM   28  C4  UNL     1      22.416   1.260  50.783  1.00  0.00     0.046 A 
HETATM   29  C5  UNL     1      23.318   1.678  51.850  1.00  0.00     0.021 A 
HETATM   30  C6  UNL     1      24.108   2.750  51.754  1.00  0.00     0.099 A 
ENDBRANCH   1  23
TORSDOF 7
ENDMDL
MODEL 9
REMARK VINA RESULT:      -7.4      3.545      8.442
REMARK  7 active torsions:
REMARK  status: ('A' for Active; 'I' for Inactive)
REMARK    1  A    between atoms: N1_8  and  C7_9 
REMARK    2  A    between atoms: C10_12  and  O1_13 
REMARK    3  A    between atoms: O1_13  and  C11_14 
REMARK    4  A    between atoms: C11_14  and  C12_15 
REMARK    5  A    between atoms: C12_15  and  C13_16 
REMARK    6  A    between atoms: C13_16  and  N2_17 
REMARK    7  A    between atoms: C18_23  and  O3_24 
ROOT
HETATM    1  C7  UNL     1      27.579   7.834  47.434  1.00  0.00     0.135 C 
HETATM    2  C8  UNL     1      27.351   6.630  48.061  1.00  0.00     0.054 C 
HETATM    3  C9  UNL     1      27.016   5.652  48.976  1.00  0.00     0.043 C 
HETATM    4  C10 UNL     1      25.724   5.192  49.110  1.00  0.00     0.102 C 
HETATM    5  C18 UNL     1      24.518   5.810  48.990  1.00  0.00     0.102 C 
HETATM    6  C20 UNL     1      23.898   6.424  47.896  1.00  0.00     0.059 C 
HETATM    7  C21 UNL     1      24.159   7.484  47.053  1.00  0.00     0.121 C 
HETATM    8  N3  UNL     1      24.428   8.799  47.136  1.00  0.00    -0.254 NA
HETATM    9  C22 UNL     1      25.696   9.275  47.235  1.00  0.00     0.234 C 
HETATM   10  N4  UNL     1      26.642   8.463  46.725  1.00  0.00    -0.224 NA
ENDROOT
BRANCH   4  11
HETATM   11  O1  UNL     1      25.532   3.870  49.423  1.00  0.00    -0.348 OA
BRANCH  11  12
HETATM   12  C11 UNL     1      26.506   2.997  49.964  1.00  0.00     0.177 C 
BRANCH  12  13
HETATM   13  C12 UNL     1      25.821   2.291  51.114  1.00  0.00     0.046 C 
BRANCH  13  14
HETATM   14  C13 UNL     1      26.681   2.299  52.368  1.00  0.00     0.119 C 
BRANCH  14  15
HETATM   15  N2  UNL     1      27.357   1.049  52.420  1.00  0.00    -0.408 N 
HETATM   16  C14 UNL     1      26.627  -0.098  52.012  1.00  0.00     0.143 C 
HETATM   17  C15 UNL     1      26.661  -1.272  52.928  1.00  0.00     0.187 C 
HETATM   18  O2  UNL     1      27.825  -1.495  53.604  1.00  0.00    -0.388 OA
HETATM   19  C16 UNL     1      28.818  -0.566  53.444  1.00  0.00     0.187 C 
HETATM   20  C17 UNL     1      28.293   0.866  53.479  1.00  0.00     0.143 C 
ENDBRANCH  14  15
ENDBRANCH  13  14
ENDBRANCH  12  13
ENDBRANCH  11  12
ENDBRANCH   4  11
BRANCH   5  21
HETATM   21  O3  UNL     1      23.745   5.863  50.115  1.00  0.00    -0.353 OA
HETATM   22  C19 UNL     1      24.051   6.529  51.312  1.00  0.00     0.210 C 
ENDBRANCH   5  21
BRANCH   1  23
HETATM   23  N1  UNL     1      28.894   8.372  47.591  1.00  0.00    -0.308 N 
HETATM   24  C2  UNL     1      29.304   9.124  48.730  1.00  0.00     0.057 A 
HETATM   25  C1  UNL     1      28.353   9.290  49.645  1.00  0.00     0.067 C 
HETATM   26  C3  UNL     1      30.642   9.671  48.894  1.00  0.00     0.139 A 
HETATM   27  F1  UNL     1      30.870  10.357  50.021  1.00  0.00    -0.204 F 
HETATM   28  C4  UNL     1      31.514   9.441  47.909  1.00  0.00     0.046 A 
HETATM   29  C5  UNL     1      31.119   8.673  46.734  1.00  0.00     0.021 A 
HETATM   30  C6  UNL     1      29.893   8.169  46.577  1.00  0.00     0.099 A 
ENDBRANCH   1  23
TORSDOF 7
ENDMDL
