MODEL 1
REMARK VINA RESULT:      -7.4      0.000      0.000
REMARK  6 active torsions:
REMARK  status: ('A' for Active; 'I' for Inactive)
REMARK    1  A    between atoms: C4_4  and  C5_5 
REMARK    2  A    between atoms: C6_6  and  C7_7 
REMARK    3  A    between atoms: C7_7  and  N1_8 
REMARK    4  A    between atoms: N1_8  and  C8_9 
REMARK    5  A    between atoms: C13_16  and  N4_17 
REMARK    6  A    between atoms: N4_17  and  C14_18 
ROOT
HETATM    1  C1  UNL     1      25.733   7.506  47.771  1.00  0.00     0.017 C 
HETATM    2  C2  UNL     1      26.020   6.511  48.350  1.00  0.00    -0.089 C 
HETATM    3  C3  UNL     1      26.365   5.303  49.046  1.00  0.00     0.063 C 
HETATM    4  C4  UNL     1      25.418   4.489  49.476  1.00  0.00     0.009 C 
ENDROOT
BRANCH   4   5
HETATM    5  C5  UNL     1      25.535   3.240  50.188  1.00  0.00    -0.002 C 
HETATM    6  C6  UNL     1      26.574   2.781  50.896  1.00  0.00    -0.007 C 
BRANCH   6   7
HETATM    7  C7  UNL     1      26.488   1.453  51.558  1.00  0.00     0.147 C 
BRANCH   7   8
HETATM    8  N1  UNL     1      25.800   1.477  52.824  1.00  0.00    -0.386 N 
HETATM    9  H8  UNL     1      26.271   1.973  53.618  1.00  0.00     0.160 HD
BRANCH   8  10
HETATM   10  C8  UNL     1      24.535   0.879  53.071  1.00  0.00     0.029 A 
HETATM   11  C9  UNL     1      24.424  -0.298  53.790  1.00  0.00     0.031 A 
HETATM   12  C10 UNL     1      23.205  -0.882  54.037  1.00  0.00     0.035 A 
HETATM   13  C11 UNL     1      22.089  -0.260  53.546  1.00  0.00     0.072 A 
HETATM   14  N2  UNL     1      20.878  -0.797  53.764  1.00  0.00    -0.241 NA
HETATM   15  C20 UNL     1      22.125   0.918  52.818  1.00  0.00     0.041 A 
HETATM   16  C12 UNL     1      19.780  -0.181  53.277  1.00  0.00     0.235 A 
HETATM   17  N3  UNL     1      19.792   0.959  52.570  1.00  0.00    -0.224 NA
HETATM   18  C13 UNL     1      20.979   1.544  52.322  1.00  0.00     0.139 A 
HETATM   19  C21 UNL     1      23.369   1.452  52.605  1.00  0.00     0.046 A 
BRANCH  18  20
HETATM   20  N4  UNL     1      21.024   2.745  51.573  1.00  0.00    -0.344 N 
HETATM   21  H12 UNL     1      21.388   3.639  51.971  1.00  0.00     0.164 HD
BRANCH  20  22
HETATM   22  C14 UNL     1      20.551   2.751  50.215  1.00  0.00     0.247 C 
HETATM   23  C15 UNL     1      21.036   4.042  49.602  1.00  0.00     0.045 C 
HETATM   24  C16 UNL     1      21.789   4.347  48.534  1.00  0.00     0.011 C 
HETATM   25 BR1  UNL     1      22.148   6.174  48.142  1.00  0.00    -0.051 Br
HETATM   26  C17 UNL     1      22.344   3.312  47.658  1.00  0.00     0.017 C 
HETATM   27  C18 UNL     1      22.307   1.992  47.772  1.00  0.00     0.000 C 
HETATM   28  C19 UNL     1      21.677   1.171  48.844  1.00  0.00     0.198 C 
HETATM   29  O1  UNL     1      20.615   1.667  49.469  1.00  0.00    -0.360 OA
ENDBRANCH  20  22
ENDBRANCH  18  20
ENDBRANCH   8  10
ENDBRANCH   7   8
ENDBRANCH   6   7
ENDBRANCH   4   5
TORSDOF 6
ENDMDL
MODEL 2
REMARK VINA RESULT:      -7.4      2.445      3.928
REMARK  6 active torsions:
REMARK  status: ('A' for Active; 'I' for Inactive)
REMARK    1  A    between atoms: C4_4  and  C5_5 
REMARK    2  A    between atoms: C6_6  and  C7_7 
REMARK    3  A    between atoms: C7_7  and  N1_8 
REMARK    4  A    between atoms: N1_8  and  C8_9 
REMARK    5  A    between atoms: C13_16  and  N4_17 
REMARK    6  A    between atoms: N4_17  and  C14_18 
ROOT
HETATM    1  C1  UNL     1      27.921   9.602  47.069  1.00  0.00     0.017 C 
HETATM    2  C2  UNL     1      27.948   8.624  47.741  1.00  0.00    -0.089 C 
HETATM    3  C3  UNL     1      27.985   7.438  48.549  1.00  0.00     0.063 C 
HETATM    4  C4  UNL     1      27.328   6.355  48.174  1.00  0.00     0.009 C 
ENDROOT
BRANCH   4   5
HETATM    5  C5  UNL     1      27.227   5.071  48.823  1.00  0.00    -0.002 C 
HETATM    6  C6  UNL     1      26.136   4.474  49.316  1.00  0.00    -0.007 C 
BRANCH   6   7
HETATM    7  C7  UNL     1      26.252   3.136  49.954  1.00  0.00     0.147 C 
BRANCH   7   8
HETATM    8  N1  UNL     1      26.904   3.159  51.239  1.00  0.00    -0.386 N 
HETATM    9  H8  UNL     1      27.595   3.928  51.415  1.00  0.00     0.160 HD
BRANCH   8  10
HETATM   10  C8  UNL     1      26.678   2.217  52.278  1.00  0.00     0.029 A 
HETATM   11  C9  UNL     1      27.642   1.957  53.236  1.00  0.00     0.031 A 
HETATM   12  C10 UNL     1      27.431   1.051  54.248  1.00  0.00     0.035 A 
HETATM   13  C11 UNL     1      26.225   0.405  54.283  1.00  0.00     0.072 A 
HETATM   14  N2  UNL     1      25.977  -0.489  55.254  1.00  0.00    -0.241 NA
HETATM   15  C20 UNL     1      25.214   0.615  53.359  1.00  0.00     0.041 A 
HETATM   16  C12 UNL     1      24.787  -1.125  55.285  1.00  0.00     0.235 A 
HETATM   17  N3  UNL     1      23.796  -0.936  54.401  1.00  0.00    -0.224 NA
HETATM   18  C13 UNL     1      23.987  -0.050  53.405  1.00  0.00     0.139 A 
HETATM   19  C21 UNL     1      25.484   1.530  52.375  1.00  0.00     0.046 A 
BRANCH  18  20
HETATM   20  N4  UNL     1      22.961   0.165  52.453  1.00  0.00    -0.344 N 
HETATM   21  H12 UNL     1      23.024  -0.190  51.473  1.00  0.00     0.164 HD
BRANCH  20  22
HETATM   22  C14 UNL     1      21.785   0.899  52.834  1.00  0.00     0.247 C 
HETATM   23  C15 UNL     1      21.262   1.545  51.574  1.00  0.00     0.045 C 
HETATM   24  C16 UNL     1      20.092   1.505  50.918  1.00  0.00     0.011 C 
HETATM   25 BR1  UNL     1      19.890   2.516  49.319  1.00  0.00    -0.051 Br
HETATM   26  C17 UNL     1      18.963   0.704  51.397  1.00  0.00     0.017 C 
HETATM   27  C18 UNL     1      18.891  -0.138  52.418  1.00  0.00     0.000 C 
HETATM   28  C19 UNL     1      19.958  -0.514  53.388  1.00  0.00     0.198 C 
HETATM   29  O1  UNL     1      20.899   0.383  53.661  1.00  0.00    -0.360 OA
ENDBRANCH  20  22
ENDBRANCH  18  20
ENDBRANCH   8  10
ENDBRANCH   7   8
ENDBRANCH   6   7
ENDBRANCH   4   5
TORSDOF 6
ENDMDL
MODEL 3
REMARK VINA RESULT:      -7.3      2.014      5.072
REMARK  6 active torsions:
REMARK  status: ('A' for Active; 'I' for Inactive)
REMARK    1  A    between atoms: C4_4  and  C5_5 
REMARK    2  A    between atoms: C6_6  and  C7_7 
REMARK    3  A    between atoms: C7_7  and  N1_8 
REMARK    4  A    between atoms: N1_8  and  C8_9 
REMARK    5  A    between atoms: C13_16  and  N4_17 
REMARK    6  A    between atoms: N4_17  and  C14_18 
ROOT
HETATM    1  C1  UNL     1      21.901   3.979  45.305  1.00  0.00     0.017 C 
HETATM    2  C2  UNL     1      22.005   3.608  46.427  1.00  0.00    -0.089 C 
HETATM    3  C3  UNL     1      22.132   3.152  47.783  1.00  0.00     0.063 C 
HETATM    4  C4  UNL     1      21.143   2.492  48.359  1.00  0.00     0.009 C 
ENDROOT
BRANCH   4   5
HETATM    5  C5  UNL     1      21.056   1.950  49.693  1.00  0.00    -0.002 C 
HETATM    6  C6  UNL     1      21.455   0.751  50.130  1.00  0.00    -0.007 C 
BRANCH   6   7
HETATM    7  C7  UNL     1      21.269   0.386  51.559  1.00  0.00     0.147 C 
BRANCH   7   8
HETATM    8  N1  UNL     1      22.160   1.076  52.457  1.00  0.00    -0.386 N 
HETATM    9  H8  UNL     1      21.804   1.954  52.907  1.00  0.00     0.160 HD
BRANCH   8  10
HETATM   10  C8  UNL     1      23.479   0.654  52.773  1.00  0.00     0.029 A 
HETATM   11  C9  UNL     1      23.715  -0.553  53.406  1.00  0.00     0.031 A 
HETATM   12  C10 UNL     1      24.988  -0.973  53.713  1.00  0.00     0.035 A 
HETATM   13  C11 UNL     1      26.028  -0.153  53.370  1.00  0.00     0.072 A 
HETATM   14  N2  UNL     1      27.288  -0.523  53.652  1.00  0.00    -0.241 NA
HETATM   15  C20 UNL     1      25.867   1.068  52.736  1.00  0.00     0.041 A 
HETATM   16  C12 UNL     1      28.312   0.288  53.314  1.00  0.00     0.235 A 
HETATM   17  N3  UNL     1      28.178   1.473  52.700  1.00  0.00    -0.224 NA
HETATM   18  C13 UNL     1      26.937   1.897  52.392  1.00  0.00     0.139 A 
HETATM   19  C21 UNL     1      24.575   1.431  52.457  1.00  0.00     0.046 A 
BRANCH  18  20
HETATM   20  N4  UNL     1      26.764   3.147  51.749  1.00  0.00    -0.344 N 
HETATM   21  H12 UNL     1      27.010   4.051  52.210  1.00  0.00     0.164 HD
BRANCH  20  22
HETATM   22  C14 UNL     1      26.228   3.189  50.415  1.00  0.00     0.247 C 
HETATM   23  C15 UNL     1      24.940   3.971  50.501  1.00  0.00     0.045 C 
HETATM   24  C16 UNL     1      24.475   5.078  49.901  1.00  0.00     0.011 C 
HETATM   25 BR1  UNL     1      22.736   5.711  50.341  1.00  0.00    -0.051 Br
HETATM   26  C17 UNL     1      25.269   5.815  48.914  1.00  0.00     0.017 C 
HETATM   27  C18 UNL     1      26.518   5.624  48.515  1.00  0.00     0.000 C 
HETATM   28  C19 UNL     1      27.487   4.585  48.963  1.00  0.00     0.198 C 
HETATM   29  O1  UNL     1      27.006   3.419  49.377  1.00  0.00    -0.360 OA
ENDBRANCH  20  22
ENDBRANCH  18  20
ENDBRANCH   8  10
ENDBRANCH   7   8
ENDBRANCH   6   7
ENDBRANCH   4   5
TORSDOF 6
ENDMDL
MODEL 4
REMARK VINA RESULT:      -7.3      2.108      2.699
REMARK  6 active torsions:
REMARK  status: ('A' for Active; 'I' for Inactive)
REMARK    1  A    between atoms: C4_4  and  C5_5 
REMARK    2  A    between atoms: C6_6  and  C7_7 
REMARK    3  A    between atoms: C7_7  and  N1_8 
REMARK    4  A    between atoms: N1_8  and  C8_9 
REMARK    5  A    between atoms: C13_16  and  N4_17 
REMARK    6  A    between atoms: N4_17  and  C14_18 
ROOT
HETATM    1  C1  UNL     1      29.635   7.776  46.320  1.00  0.00     0.017 C 
HETATM    2  C2  UNL     1      28.847   7.376  47.113  1.00  0.00    -0.089 C 
HETATM    3  C3  UNL     1      27.900   6.891  48.076  1.00  0.00     0.063 C 
HETATM    4  C4  UNL     1      27.818   5.600  48.338  1.00  0.00     0.009 C 
ENDROOT
BRANCH   4   5
HETATM    5  C5  UNL     1      26.950   4.902  49.256  1.00  0.00    -0.002 C 
HETATM    6  C6  UNL     1      26.792   3.582  49.409  1.00  0.00    -0.007 C 
BRANCH   6   7
HETATM    7  C7  UNL     1      25.835   3.066  50.422  1.00  0.00     0.147 C 
BRANCH   7   8
HETATM    8  N1  UNL     1      26.345   1.962  51.195  1.00  0.00    -0.386 N 
HETATM    9  H8  UNL     1      27.360   1.723  51.082  1.00  0.00     0.160 HD
BRANCH   8  10
HETATM   10  C8  UNL     1      25.574   1.179  52.095  1.00  0.00     0.029 A 
HETATM   11  C9  UNL     1      26.176   0.333  53.010  1.00  0.00     0.031 A 
HETATM   12  C10 UNL     1      25.439  -0.425  53.889  1.00  0.00     0.035 A 
HETATM   13  C11 UNL     1      24.075  -0.319  53.833  1.00  0.00     0.072 A 
HETATM   14  N2  UNL     1      23.317  -1.043  54.671  1.00  0.00    -0.241 NA
HETATM   15  C20 UNL     1      23.406   0.506  52.944  1.00  0.00     0.041 A 
HETATM   16  C12 UNL     1      21.973  -0.936  54.613  1.00  0.00     0.235 A 
HETATM   17  N3  UNL     1      21.305  -0.145  53.761  1.00  0.00    -0.224 NA
HETATM   18  C13 UNL     1      22.013   0.605  52.896  1.00  0.00     0.139 A 
HETATM   19  C21 UNL     1      24.195   1.237  52.094  1.00  0.00     0.046 A 
BRANCH  18  20
HETATM   20  N4  UNL     1      21.335   1.446  51.980  1.00  0.00    -0.344 N 
HETATM   21  H12 UNL     1      21.189   1.181  50.980  1.00  0.00     0.164 HD
BRANCH  20  22
HETATM   22  C14 UNL     1      20.826   2.715  52.426  1.00  0.00     0.247 C 
HETATM   23  C15 UNL     1      21.808   3.757  51.948  1.00  0.00     0.045 C 
HETATM   24  C16 UNL     1      21.710   4.853  51.179  1.00  0.00     0.011 C 
HETATM   25 BR1  UNL     1      23.267   5.890  50.839  1.00  0.00    -0.051 Br
HETATM   26  C17 UNL     1      20.435   5.275  50.592  1.00  0.00     0.017 C 
HETATM   27  C18 UNL     1      19.252   4.678  50.613  1.00  0.00     0.000 C 
HETATM   28  C19 UNL     1      18.874   3.386  51.252  1.00  0.00     0.198 C 
HETATM   29  O1  UNL     1      19.544   3.004  52.332  1.00  0.00    -0.360 OA
ENDBRANCH  20  22
ENDBRANCH  18  20
ENDBRANCH   8  10
ENDBRANCH   7   8
ENDBRANCH   6   7
ENDBRANCH   4   5
TORSDOF 6
ENDMDL
MODEL 5
REMARK VINA RESULT:      -7.2      1.315      2.081
REMARK  6 active torsions:
REMARK  status: ('A' for Active; 'I' for Inactive)
REMARK    1  A    between atoms: C4_4  and  C5_5 
REMARK    2  A    between atoms: C6_6  and  C7_7 
REMARK    3  A    between atoms: C7_7  and  N1_8 
REMARK    4  A    between atoms: N1_8  and  C8_9 
REMARK    5  A    between atoms: C13_16  and  N4_17 
REMARK    6  A    between atoms: N4_17  and  C14_18 
ROOT
HETATM    1  C1  UNL     1      26.375   5.045  49.192  1.00  0.00     0.017 C 
HETATM    2  C2  UNL     1      26.398   4.047  49.835  1.00  0.00    -0.089 C 
HETATM    3  C3  UNL     1      26.423   2.837  50.606  1.00  0.00     0.063 C 
HETATM    4  C4  UNL     1      25.296   2.294  51.032  1.00  0.00     0.009 C 
ENDROOT
BRANCH   4   5
HETATM    5  C5  UNL     1      25.089   1.098  51.811  1.00  0.00    -0.002 C 
HETATM    6  C6  UNL     1      25.612   0.782  53.001  1.00  0.00    -0.007 C 
BRANCH   6   7
HETATM    7  C7  UNL     1      25.266  -0.516  53.638  1.00  0.00     0.147 C 
BRANCH   7   8
HETATM    8  N1  UNL     1      24.165  -0.435  54.564  1.00  0.00    -0.386 N 
HETATM    9  H8  UNL     1      24.396  -0.251  55.570  1.00  0.00     0.160 HD
BRANCH   8  10
HETATM   10  C8  UNL     1      22.797  -0.586  54.212  1.00  0.00     0.029 A 
HETATM   11  C9  UNL     1      22.059  -1.673  54.644  1.00  0.00     0.031 A 
HETATM   12  C10 UNL     1      20.734  -1.827  54.312  1.00  0.00     0.035 A 
HETATM   13  C11 UNL     1      20.157  -0.861  53.532  1.00  0.00     0.072 A 
HETATM   14  N2  UNL     1      18.865  -0.971  53.183  1.00  0.00    -0.241 NA
HETATM   15  C20 UNL     1      20.834   0.253  53.064  1.00  0.00     0.041 A 
HETATM   16  C12 UNL     1      18.300  -0.018  52.413  1.00  0.00     0.235 A 
HETATM   17  N3  UNL     1      18.937   1.068  51.949  1.00  0.00    -0.224 NA
HETATM   18  C13 UNL     1      20.235   1.232  52.268  1.00  0.00     0.139 A 
HETATM   19  C21 UNL     1      22.152   0.350  53.428  1.00  0.00     0.046 A 
BRANCH  18  20
HETATM   20  N4  UNL     1      20.935   2.365  51.787  1.00  0.00    -0.344 N 
HETATM   21  H12 UNL     1      21.624   2.887  52.374  1.00  0.00     0.164 HD
BRANCH  20  22
HETATM   22  C14 UNL     1      20.697   2.828  50.447  1.00  0.00     0.247 C 
HETATM   23  C15 UNL     1      21.392   4.163  50.330  1.00  0.00     0.045 C 
HETATM   24  C16 UNL     1      22.336   4.659  49.515  1.00  0.00     0.011 C 
HETATM   25 BR1  UNL     1      22.919   6.454  49.754  1.00  0.00    -0.051 Br
HETATM   26  C17 UNL     1      22.934   3.857  48.444  1.00  0.00     0.017 C 
HETATM   27  C18 UNL     1      22.758   2.578  48.142  1.00  0.00     0.000 C 
HETATM   28  C19 UNL     1      21.888   1.576  48.817  1.00  0.00     0.198 C 
HETATM   29  O1  UNL     1      20.786   2.009  49.419  1.00  0.00    -0.360 OA
ENDBRANCH  20  22
ENDBRANCH  18  20
ENDBRANCH   8  10
ENDBRANCH   7   8
ENDBRANCH   6   7
ENDBRANCH   4   5
TORSDOF 6
ENDMDL
MODEL 6
REMARK VINA RESULT:      -7.1      7.540     10.963
REMARK  6 active torsions:
REMARK  status: ('A' for Active; 'I' for Inactive)
REMARK    1  A    between atoms: C4_4  and  C5_5 
REMARK    2  A    between atoms: C6_6  and  C7_7 
REMARK    3  A    between atoms: C7_7  and  N1_8 
REMARK    4  A    between atoms: N1_8  and  C8_9 
REMARK    5  A    between atoms: C13_16  and  N4_17 
REMARK    6  A    between atoms: N4_17  and  C14_18 
ROOT
HETATM    1  C1  UNL     1      33.266   4.528  40.797  1.00  0.00     0.017 C 
HETATM    2  C2  UNL     1      33.448   4.665  41.961  1.00  0.00    -0.089 C 
HETATM    3  C3  UNL     1      33.674   4.833  43.369  1.00  0.00     0.063 C 
HETATM    4  C4  UNL     1      34.514   4.040  44.009  1.00  0.00     0.009 C 
ENDROOT
BRANCH   4   5
HETATM    5  C5  UNL     1      34.888   4.029  45.402  1.00  0.00    -0.002 C 
HETATM    6  C6  UNL     1      34.246   3.461  46.430  1.00  0.00    -0.007 C 
BRANCH   6   7
HETATM    7  C7  UNL     1      34.807   3.571  47.801  1.00  0.00     0.147 C 
BRANCH   7   8
HETATM    8  N1  UNL     1      34.025   4.396  48.686  1.00  0.00    -0.386 N 
HETATM    9  H8  UNL     1      33.693   3.962  49.581  1.00  0.00     0.160 HD
BRANCH   8  10
HETATM   10  C8  UNL     1      33.673   5.749  48.433  1.00  0.00     0.029 A 
HETATM   11  C9  UNL     1      34.616   6.671  48.015  1.00  0.00     0.031 A 
HETATM   12  C10 UNL     1      34.286   7.982  47.764  1.00  0.00     0.035 A 
HETATM   13  C11 UNL     1      32.980   8.354  47.939  1.00  0.00     0.072 A 
HETATM   14  N2  UNL     1      32.614   9.624  47.705  1.00  0.00    -0.241 NA
HETATM   15  C20 UNL     1      31.984   7.486  48.354  1.00  0.00     0.041 A 
HETATM   16  C12 UNL     1      31.326   9.988  47.880  1.00  0.00     0.235 A 
HETATM   17  N3  UNL     1      30.346   9.165  48.281  1.00  0.00    -0.224 NA
HETATM   18  C13 UNL     1      30.655   7.877  48.530  1.00  0.00     0.139 A 
HETATM   19  C21 UNL     1      32.376   6.193  48.589  1.00  0.00     0.046 A 
BRANCH  18  20
HETATM   20  N4  UNL     1      29.643   6.986  48.961  1.00  0.00    -0.344 N 
HETATM   21  H12 UNL     1      29.562   6.669  49.953  1.00  0.00     0.164 HD
BRANCH  20  22
HETATM   22  C14 UNL     1      28.686   6.488  48.010  1.00  0.00     0.247 C 
HETATM   23  C15 UNL     1      28.049   5.275  48.645  1.00  0.00     0.045 C 
HETATM   24  C16 UNL     1      26.787   4.929  48.943  1.00  0.00     0.011 C 
HETATM   25 BR1  UNL     1      26.456   3.246  49.765  1.00  0.00    -0.051 Br
HETATM   26  C17 UNL     1      25.653   5.811  48.652  1.00  0.00     0.017 C 
HETATM   27  C18 UNL     1      25.639   7.046  48.172  1.00  0.00     0.000 C 
HETATM   28  C19 UNL     1      26.793   7.904  47.783  1.00  0.00     0.198 C 
HETATM   29  O1  UNL     1      27.896   7.308  47.347  1.00  0.00    -0.360 OA
ENDBRANCH  20  22
ENDBRANCH  18  20
ENDBRANCH   8  10
ENDBRANCH   7   8
ENDBRANCH   6   7
ENDBRANCH   4   5
TORSDOF 6
ENDMDL
MODEL 7
REMARK VINA RESULT:      -7.0      2.996      6.434
REMARK  6 active torsions:
REMARK  status: ('A' for Active; 'I' for Inactive)
REMARK    1  A    between atoms: C4_4  and  C5_5 
REMARK    2  A    between atoms: C6_6  and  C7_7 
REMARK    3  A    between atoms: C7_7  and  N1_8 
REMARK    4  A    between atoms: N1_8  and  C8_9 
REMARK    5  A    between atoms: C13_16  and  N4_17 
REMARK    6  A    between atoms: N4_17  and  C14_18 
ROOT
HETATM    1  C1  UNL     1      15.166  -1.374  47.047  1.00  0.00     0.017 C 
HETATM    2  C2  UNL     1      15.563  -1.215  48.155  1.00  0.00    -0.089 C 
HETATM    3  C3  UNL     1      16.041  -1.016  49.494  1.00  0.00     0.063 C 
HETATM    4  C4  UNL     1      17.109  -0.271  49.717  1.00  0.00     0.009 C 
ENDROOT
BRANCH   4   5
HETATM    5  C5  UNL     1      17.755   0.058  50.964  1.00  0.00    -0.002 C 
HETATM    6  C6  UNL     1      19.044   0.342  51.181  1.00  0.00    -0.007 C 
BRANCH   6   7
HETATM    7  C7  UNL     1      19.508   0.656  52.558  1.00  0.00     0.147 C 
BRANCH   7   8
HETATM    8  N1  UNL     1      20.093  -0.468  53.245  1.00  0.00    -0.386 N 
HETATM    9  H8  UNL     1      19.470  -1.286  53.449  1.00  0.00     0.160 HD
BRANCH   8  10
HETATM   10  C8  UNL     1      21.449  -0.545  53.662  1.00  0.00     0.029 A 
HETATM   11  C9  UNL     1      21.820  -1.290  54.768  1.00  0.00     0.031 A 
HETATM   12  C10 UNL     1      23.129  -1.375  55.178  1.00  0.00     0.035 A 
HETATM   13  C11 UNL     1      24.069  -0.693  54.452  1.00  0.00     0.072 A 
HETATM   14  N2  UNL     1      25.360  -0.747  54.819  1.00  0.00    -0.241 NA
HETATM   15  C20 UNL     1      23.771   0.072  53.337  1.00  0.00     0.041 A 
HETATM   16  C12 UNL     1      26.283  -0.073  54.102  1.00  0.00     0.235 A 
HETATM   17  N3  UNL     1      26.016   0.673  53.019  1.00  0.00    -0.224 NA
HETATM   18  C13 UNL     1      24.738   0.764  52.605  1.00  0.00     0.139 A 
HETATM   19  C21 UNL     1      22.448   0.117  52.978  1.00  0.00     0.046 A 
BRANCH  18  20
HETATM   20  N4  UNL     1      24.425   1.549  51.468  1.00  0.00    -0.344 N 
HETATM   21  H12 UNL     1      24.191   1.124  50.543  1.00  0.00     0.164 HD
BRANCH  20  22
HETATM   22  C14 UNL     1      24.430   2.983  51.576  1.00  0.00     0.247 C 
HETATM   23  C15 UNL     1      25.565   3.469  50.708  1.00  0.00     0.045 C 
HETATM   24  C16 UNL     1      25.652   4.312  49.666  1.00  0.00     0.011 C 
HETATM   25 BR1  UNL     1      27.349   4.626  48.867  1.00  0.00    -0.051 Br
HETATM   26  C17 UNL     1      24.476   4.999  49.125  1.00  0.00     0.017 C 
HETATM   27  C18 UNL     1      23.197   4.877  49.451  1.00  0.00     0.000 C 
HETATM   28  C19 UNL     1      22.581   3.991  50.478  1.00  0.00     0.198 C 
HETATM   29  O1  UNL     1      23.306   3.670  51.542  1.00  0.00    -0.360 OA
ENDBRANCH  20  22
ENDBRANCH  18  20
ENDBRANCH   8  10
ENDBRANCH   7   8
ENDBRANCH   6   7
ENDBRANCH   4   5
TORSDOF 6
ENDMDL
MODEL 8
REMARK VINA RESULT:      -6.9      4.303      6.944
REMARK  6 active torsions:
REMARK  status: ('A' for Active; 'I' for Inactive)
REMARK    1  A    between atoms: C4_4  and  C5_5 
REMARK    2  A    between atoms: C6_6  and  C7_7 
REMARK    3  A    between atoms: C7_7  and  N1_8 
REMARK    4  A    between atoms: N1_8  and  C8_9 
REMARK    5  A    between atoms: C13_16  and  N4_17 
REMARK    6  A    between atoms: N4_17  and  C14_18 
ROOT
HETATM    1  C1  UNL     1      34.793   3.773  45.356  1.00  0.00     0.017 C 
HETATM    2  C2  UNL     1      33.762   3.920  45.925  1.00  0.00    -0.089 C 
HETATM    3  C3  UNL     1      32.513   4.101  46.609  1.00  0.00     0.063 C 
HETATM    4  C4  UNL     1      32.189   5.283  47.103  1.00  0.00     0.009 C 
ENDROOT
BRANCH   4   5
HETATM    5  C5  UNL     1      31.003   5.685  47.818  1.00  0.00    -0.002 C 
HETATM    6  C6  UNL     1      30.021   6.496  47.408  1.00  0.00    -0.007 C 
BRANCH   6   7
HETATM    7  C7  UNL     1      28.876   6.785  48.310  1.00  0.00     0.147 C 
BRANCH   7   8
HETATM    8  N1  UNL     1      28.106   5.619  48.665  1.00  0.00    -0.386 N 
HETATM    9  H8  UNL     1      28.617   4.705  48.726  1.00  0.00     0.160 HD
BRANCH   8  10
HETATM   10  C8  UNL     1      26.712   5.621  48.937  1.00  0.00     0.029 A 
HETATM   11  C9  UNL     1      25.847   6.455  48.250  1.00  0.00     0.031 A 
HETATM   12  C10 UNL     1      24.495   6.462  48.502  1.00  0.00     0.035 A 
HETATM   13  C11 UNL     1      24.023   5.609  49.464  1.00  0.00     0.072 A 
HETATM   14  N2  UNL     1      22.710   5.584  49.743  1.00  0.00    -0.241 NA
HETATM   15  C20 UNL     1      24.829   4.749  50.190  1.00  0.00     0.041 A 
HETATM   16  C12 UNL     1      22.247   4.744  50.692  1.00  0.00     0.235 A 
HETATM   17  N3  UNL     1      23.010   3.903  51.407  1.00  0.00    -0.224 NA
HETATM   18  C13 UNL     1      24.336   3.884  51.169  1.00  0.00     0.139 A 
HETATM   19  C21 UNL     1      26.167   4.788  49.893  1.00  0.00     0.046 A 
BRANCH  18  20
HETATM   20  N4  UNL     1      25.167   3.011  51.912  1.00  0.00    -0.344 N 
HETATM   21  H12 UNL     1      25.842   3.358  52.630  1.00  0.00     0.164 HD
BRANCH  20  22
HETATM   22  C14 UNL     1      25.094   1.594  51.679  1.00  0.00     0.247 C 
HETATM   23  C15 UNL     1      26.375   1.008  52.221  1.00  0.00     0.045 C 
HETATM   24  C16 UNL     1      26.662   0.069  53.136  1.00  0.00     0.011 C 
HETATM   25 BR1  UNL     1      28.482  -0.348  53.499  1.00  0.00    -0.051 Br
HETATM   26  C17 UNL     1      25.612  -0.648  53.865  1.00  0.00     0.017 C 
HETATM   27  C18 UNL     1      24.298  -0.475  53.849  1.00  0.00     0.000 C 
HETATM   28  C19 UNL     1      23.501   0.515  53.071  1.00  0.00     0.198 C 
HETATM   29  O1  UNL     1      23.982   0.925  51.903  1.00  0.00    -0.360 OA
ENDBRANCH  20  22
ENDBRANCH  18  20
ENDBRANCH   8  10
ENDBRANCH   7   8
ENDBRANCH   6   7
ENDBRANCH   4   5
TORSDOF 6
ENDMDL
MODEL 9
REMARK VINA RESULT:      -6.7      2.217      5.597
REMARK  6 active torsions:
REMARK  status: ('A' for Active; 'I' for Inactive)
REMARK    1  A    between atoms: C4_4  and  C5_5 
REMARK    2  A    between atoms: C6_6  and  C7_7 
REMARK    3  A    between atoms: C7_7  and  N1_8 
REMARK    4  A    between atoms: N1_8  and  C8_9 
REMARK    5  A    between atoms: C13_16  and  N4_17 
REMARK    6  A    between atoms: N4_17  and  C14_18 
ROOT
HETATM    1  C1  UNL     1      17.190   3.902  48.915  1.00  0.00     0.017 C 
HETATM    2  C2  UNL     1      17.815   3.065  49.478  1.00  0.00    -0.089 C 
HETATM    3  C3  UNL     1      18.568   2.054  50.166  1.00  0.00     0.063 C 
HETATM    4  C4  UNL     1      19.329   2.375  51.197  1.00  0.00     0.009 C 
ENDROOT
BRANCH   4   5
HETATM    5  C5  UNL     1      20.159   1.532  52.023  1.00  0.00    -0.002 C 
HETATM    6  C6  UNL     1      20.174   0.197  52.097  1.00  0.00    -0.007 C 
BRANCH   6   7
HETATM    7  C7  UNL     1      21.117  -0.480  53.024  1.00  0.00     0.147 C 
BRANCH   7   8
HETATM    8  N1  UNL     1      22.007   0.422  53.711  1.00  0.00    -0.386 N 
HETATM    9  H8  UNL     1      21.571   1.183  54.286  1.00  0.00     0.160 HD
BRANCH   8  10
HETATM   10  C8  UNL     1      23.425   0.353  53.664  1.00  0.00     0.029 A 
HETATM   11  C9  UNL     1      24.113  -0.704  54.232  1.00  0.00     0.031 A 
HETATM   12  C10 UNL     1      25.485  -0.783  54.189  1.00  0.00     0.035 A 
HETATM   13  C11 UNL     1      26.160   0.228  53.558  1.00  0.00     0.072 A 
HETATM   14  N2  UNL     1      27.501   0.192  53.494  1.00  0.00    -0.241 NA
HETATM   15  C20 UNL     1      25.538   1.316  52.969  1.00  0.00     0.041 A 
HETATM   16  C12 UNL     1      28.164   1.190  52.873  1.00  0.00     0.235 A 
HETATM   17  N3  UNL     1      27.581   2.252  52.296  1.00  0.00    -0.224 NA
HETATM   18  C13 UNL     1      26.238   2.341  52.329  1.00  0.00     0.139 A 
HETATM   19  C21 UNL     1      24.170   1.337  53.045  1.00  0.00     0.046 A 
BRANCH  18  20
HETATM   20  N4  UNL     1      25.596   3.454  51.733  1.00  0.00    -0.344 N 
HETATM   21  H12 UNL     1      25.050   4.149  52.291  1.00  0.00     0.164 HD
BRANCH  20  22
HETATM   22  C14 UNL     1      25.686   3.646  50.311  1.00  0.00     0.247 C 
HETATM   23  C15 UNL     1      24.452   3.009  49.719  1.00  0.00     0.045 C 
HETATM   24  C16 UNL     1      23.449   3.453  48.944  1.00  0.00     0.011 C 
HETATM   25 BR1  UNL     1      22.069   2.248  48.433  1.00  0.00    -0.051 Br
HETATM   26  C17 UNL     1      23.387   4.841  48.479  1.00  0.00     0.017 C 
HETATM   27  C18 UNL     1      24.170   5.870  48.770  1.00  0.00     0.000 C 
HETATM   28  C19 UNL     1      25.359   5.908  49.667  1.00  0.00     0.198 C 
HETATM   29  O1  UNL     1      26.074   4.798  49.804  1.00  0.00    -0.360 OA
ENDBRANCH  20  22
ENDBRANCH  18  20
ENDBRANCH   8  10
ENDBRANCH   7   8
ENDBRANCH   6   7
ENDBRANCH   4   5
TORSDOF 6
ENDMDL
