MODEL 1
REMARK VINA RESULT:      -7.5      0.000      0.000
REMARK  3 active torsions:
REMARK  status: ('A' for Active; 'I' for Inactive)
REMARK    1  A    between atoms: O1_2  and  C2_3 
REMARK    2  A    between atoms: C3_4  and  O2_5 
REMARK    3  A    between atoms: N2_13  and  C10_14 
ROOT
HETATM    1  C2  UNL     1      24.006   4.943  50.283  1.00  0.00     0.080 C 
HETATM    2  C3  UNL     1      23.832   3.719  50.988  1.00  0.00     0.106 C 
HETATM    3  C5  UNL     1      23.349   2.414  49.984  1.00  0.00     0.121 A 
HETATM    4  C6  UNL     1      23.407   3.110  48.767  1.00  0.00     0.066 A 
HETATM    5  C7  UNL     1      22.344   3.359  49.644  1.00  0.00     0.095 A 
HETATM    6  N1  UNL     1      21.678   3.099  50.773  1.00  0.00    -0.290 NA
HETATM    7  C8  UNL     1      21.655   1.480  50.858  1.00  0.00     0.202 C 
HETATM    8  C9  UNL     1      21.300   1.029  49.530  1.00  0.00     0.057 C 
HETATM    9  N2  UNL     1      23.164   1.442  51.093  1.00  0.00    -0.324 N 
HETATM   10  C19 UNL     1      22.528   4.879  49.582  1.00  0.00     0.103 C 
ENDROOT
BRANCH   9  11
HETATM   11  C10 UNL     1      24.151   0.926  51.957  1.00  0.00     0.139 A 
HETATM   12  N3  UNL     1      25.451   1.129  51.709  1.00  0.00    -0.242 NA
HETATM   13  C11 UNL     1      26.386   0.650  52.507  1.00  0.00     0.120 A 
HETATM   14  C12 UNL     1      25.984  -0.067  53.607  1.00  0.00     0.031 A 
HETATM   15  C13 UNL     1      24.659  -0.298  53.899  1.00  0.00    -0.021 A 
HETATM   16  C14 UNL     1      24.388  -1.033  55.035  1.00  0.00     0.012 A 
HETATM   17  C18 UNL     1      23.727   0.224  53.036  1.00  0.00     0.020 A 
HETATM   18  C15 UNL     1      23.043  -1.270  55.333  1.00  0.00     0.001 A 
HETATM   19  C16 UNL     1      22.056  -0.772  54.505  1.00  0.00     0.001 A 
HETATM   20  C17 UNL     1      22.406  -0.045  53.386  1.00  0.00     0.016 A 
ENDBRANCH   9  11
BRANCH   2  21
HETATM   21  O2  UNL     1      24.135   3.813  52.457  1.00  0.00    -0.355 OA
HETATM   22  C4  UNL     1      23.420   4.835  53.126  1.00  0.00     0.209 C 
ENDBRANCH   2  21
BRANCH   1  23
HETATM   23  O1  UNL     1      25.200   5.594  50.466  1.00  0.00    -0.358 OA
HETATM   24  C1  UNL     1      25.163   7.008  50.434  1.00  0.00     0.209 C 
ENDBRANCH   1  23
TORSDOF 3
ENDMDL
MODEL 2
REMARK VINA RESULT:      -7.3      2.411      4.470
REMARK  3 active torsions:
REMARK  status: ('A' for Active; 'I' for Inactive)
REMARK    1  A    between atoms: O1_2  and  C2_3 
REMARK    2  A    between atoms: C3_4  and  O2_5 
REMARK    3  A    between atoms: N2_13  and  C10_14 
ROOT
HETATM    1  C2  UNL     1      19.346   1.954  50.005  1.00  0.00     0.080 C 
HETATM    2  C3  UNL     1      20.620   1.891  50.636  1.00  0.00     0.106 C 
HETATM    3  C5  UNL     1      20.858   3.109  51.823  1.00  0.00     0.121 A 
HETATM    4  C6  UNL     1      19.571   3.665  51.749  1.00  0.00     0.066 A 
HETATM    5  C7  UNL     1      20.484   3.922  50.719  1.00  0.00     0.095 A 
HETATM    6  N1  UNL     1      21.707   3.813  50.189  1.00  0.00    -0.290 NA
HETATM    7  C8  UNL     1      22.707   4.076  51.437  1.00  0.00     0.202 C 
HETATM    8  C9  UNL     1      22.172   5.231  52.124  1.00  0.00     0.057 C 
HETATM    9  N2  UNL     1      22.278   2.766  52.095  1.00  0.00    -0.324 N 
HETATM   10  C19 UNL     1      19.491   3.538  49.618  1.00  0.00     0.103 C 
ENDROOT
BRANCH   9  11
HETATM   11  C10 UNL     1      22.783   1.574  52.652  1.00  0.00     0.139 A 
HETATM   12  N3  UNL     1      22.000   0.780  53.394  1.00  0.00    -0.242 NA
HETATM   13  C11 UNL     1      22.459  -0.337  53.923  1.00  0.00     0.120 A 
HETATM   14  C12 UNL     1      23.772  -0.665  53.691  1.00  0.00     0.031 A 
HETATM   15  C13 UNL     1      24.610   0.121  52.934  1.00  0.00    -0.021 A 
HETATM   16  C14 UNL     1      25.909  -0.320  52.776  1.00  0.00     0.012 A 
HETATM   17  C18 UNL     1      24.081   1.273  52.406  1.00  0.00     0.020 A 
HETATM   18  C15 UNL     1      26.762   0.479  52.009  1.00  0.00     0.001 A 
HETATM   19  C16 UNL     1      26.292   1.651  51.449  1.00  0.00     0.001 A 
HETATM   20  C17 UNL     1      24.979   2.026  51.652  1.00  0.00     0.016 A 
ENDBRANCH   9  11
BRANCH   2  21
HETATM   21  O2  UNL     1      21.483   0.758  50.157  1.00  0.00    -0.355 OA
HETATM   22  C4  UNL     1      21.771   0.803  48.771  1.00  0.00     0.209 C 
ENDBRANCH   2  21
BRANCH   1  23
HETATM   23  O1  UNL     1      18.613   0.795  49.985  1.00  0.00    -0.358 OA
HETATM   24  C1  UNL     1      18.254   0.250  51.241  1.00  0.00     0.209 C 
ENDBRANCH   1  23
TORSDOF 3
ENDMDL
MODEL 3
REMARK VINA RESULT:      -7.0      2.169      4.115
REMARK  3 active torsions:
REMARK  status: ('A' for Active; 'I' for Inactive)
REMARK    1  A    between atoms: O1_2  and  C2_3 
REMARK    2  A    between atoms: C3_4  and  O2_5 
REMARK    3  A    between atoms: N2_13  and  C10_14 
ROOT
HETATM    1  C2  UNL     1      20.452   3.633  49.034  1.00  0.00     0.080 C 
HETATM    2  C3  UNL     1      21.540   3.210  49.848  1.00  0.00     0.106 C 
HETATM    3  C5  UNL     1      21.970   4.345  51.062  1.00  0.00     0.121 A 
HETATM    4  C6  UNL     1      20.943   5.265  50.799  1.00  0.00     0.066 A 
HETATM    5  C7  UNL     1      22.029   5.186  49.919  1.00  0.00     0.095 A 
HETATM    6  N1  UNL     1      23.220   4.685  49.577  1.00  0.00    -0.290 NA
HETATM    7  C8  UNL     1      24.063   4.681  50.961  1.00  0.00     0.202 C 
HETATM    8  C9  UNL     1      23.819   5.973  51.566  1.00  0.00     0.057 C 
HETATM    9  N2  UNL     1      23.160   3.595  51.542  1.00  0.00    -0.324 N 
HETATM   10  C19 UNL     1      21.134   5.078  48.679  1.00  0.00     0.103 C 
ENDROOT
BRANCH   9  11
HETATM   11  C10 UNL     1      23.185   2.330  52.163  1.00  0.00     0.139 A 
HETATM   12  N3  UNL     1      22.088   1.832  52.747  1.00  0.00    -0.242 NA
HETATM   13  C11 UNL     1      22.097   0.651  53.334  1.00  0.00     0.120 A 
HETATM   14  C12 UNL     1      23.273  -0.058  53.329  1.00  0.00     0.031 A 
HETATM   15  C13 UNL     1      24.423   0.416  52.741  1.00  0.00    -0.021 A 
HETATM   16  C14 UNL     1      25.539  -0.394  52.805  1.00  0.00     0.012 A 
HETATM   17  C18 UNL     1      24.358   1.651  52.143  1.00  0.00     0.020 A 
HETATM   18  C15 UNL     1      26.708   0.087  52.209  1.00  0.00     0.001 A 
HETATM   19  C16 UNL     1      26.709   1.322  51.590  1.00  0.00     0.001 A 
HETATM   20  C17 UNL     1      25.553   2.075  51.567  1.00  0.00     0.016 A 
ENDBRANCH   9  11
BRANCH   2  21
HETATM   21  O2  UNL     1      22.069   1.847  49.498  1.00  0.00    -0.355 OA
HETATM   22  C4  UNL     1      22.250   1.642  48.109  1.00  0.00     0.209 C 
ENDBRANCH   2  21
BRANCH   1  23
HETATM   23  O1  UNL     1      19.407   2.755  48.899  1.00  0.00    -0.358 OA
HETATM   24  C1  UNL     1      18.228   3.057  49.623  1.00  0.00     0.209 C 
ENDBRANCH   1  23
TORSDOF 3
ENDMDL
MODEL 4
REMARK VINA RESULT:      -6.9      8.944     11.627
REMARK  3 active torsions:
REMARK  status: ('A' for Active; 'I' for Inactive)
REMARK    1  A    between atoms: O1_2  and  C2_3 
REMARK    2  A    between atoms: C3_4  and  O2_5 
REMARK    3  A    between atoms: N2_13  and  C10_14 
ROOT
HETATM    1  C2  UNL     1      31.917   9.870  47.916  1.00  0.00     0.080 C 
HETATM    2  C3  UNL     1      32.132   8.532  47.482  1.00  0.00     0.106 C 
HETATM    3  C5  UNL     1      30.680   7.685  47.130  1.00  0.00     0.121 A 
HETATM    4  C6  UNL     1      29.805   8.761  47.346  1.00  0.00     0.066 A 
HETATM    5  C7  UNL     1      30.385   8.124  48.449  1.00  0.00     0.095 A 
HETATM    6  N1  UNL     1      31.148   7.158  48.971  1.00  0.00    -0.290 NA
HETATM    7  C8  UNL     1      30.718   5.826  48.153  1.00  0.00     0.202 C 
HETATM    8  C9  UNL     1      29.273   5.848  48.112  1.00  0.00     0.057 C 
HETATM    9  N2  UNL     1      31.339   6.378  46.871  1.00  0.00    -0.324 N 
HETATM   10  C19 UNL     1      30.850   9.441  49.081  1.00  0.00     0.103 C 
ENDROOT
BRANCH   9  11
HETATM   11  C10 UNL     1      32.238   6.060  45.834  1.00  0.00     0.139 A 
HETATM   12  N3  UNL     1      32.147   6.661  44.640  1.00  0.00    -0.242 NA
HETATM   13  C11 UNL     1      32.979   6.372  43.660  1.00  0.00     0.120 A 
HETATM   14  C12 UNL     1      33.949   5.430  43.899  1.00  0.00     0.031 A 
HETATM   15  C13 UNL     1      34.079   4.789  45.110  1.00  0.00    -0.021 A 
HETATM   16  C14 UNL     1      35.095   3.862  45.222  1.00  0.00     0.012 A 
HETATM   17  C18 UNL     1      33.186   5.128  46.097  1.00  0.00     0.020 A 
HETATM   18  C15 UNL     1      35.227   3.209  46.451  1.00  0.00     0.001 A 
HETATM   19  C16 UNL     1      34.361   3.505  47.485  1.00  0.00     0.001 A 
HETATM   20  C17 UNL     1      33.368   4.445  47.297  1.00  0.00     0.016 A 
ENDBRANCH   9  11
BRANCH   2  21
HETATM   21  O2  UNL     1      33.581   8.145  47.393  1.00  0.00    -0.355 OA
HETATM   22  C4  UNL     1      34.193   7.920  48.650  1.00  0.00     0.209 C 
ENDBRANCH   2  21
BRANCH   1  23
HETATM   23  O1  UNL     1      32.615  10.850  47.256  1.00  0.00    -0.358 OA
HETATM   24  C1  UNL     1      32.213  11.128  45.928  1.00  0.00     0.209 C 
ENDBRANCH   1  23
TORSDOF 3
ENDMDL
MODEL 5
REMARK VINA RESULT:      -6.8      1.923      3.288
REMARK  3 active torsions:
REMARK  status: ('A' for Active; 'I' for Inactive)
REMARK    1  A    between atoms: O1_2  and  C2_3 
REMARK    2  A    between atoms: C3_4  and  O2_5 
REMARK    3  A    between atoms: N2_13  and  C10_14 
ROOT
HETATM    1  C2  UNL     1      22.197   4.777  51.142  1.00  0.00     0.080 C 
HETATM    2  C3  UNL     1      21.527   3.523  51.080  1.00  0.00     0.106 C 
HETATM    3  C5  UNL     1      22.345   2.355  50.125  1.00  0.00     0.121 A 
HETATM    4  C6  UNL     1      23.475   3.137  49.838  1.00  0.00     0.066 A 
HETATM    5  C7  UNL     1      22.269   3.418  49.185  1.00  0.00     0.095 A 
HETATM    6  N1  UNL     1      20.988   3.135  48.928  1.00  0.00    -0.290 NA
HETATM    7  C8  UNL     1      20.964   1.526  48.743  1.00  0.00     0.202 C 
HETATM    8  C9  UNL     1      22.096   1.217  47.896  1.00  0.00     0.057 C 
HETATM    9  N2  UNL     1      21.281   1.322  50.223  1.00  0.00    -0.324 N 
HETATM   10  C19 UNL     1      22.331   4.913  49.516  1.00  0.00     0.103 C 
ENDROOT
BRANCH   9  11
HETATM   11  C10 UNL     1      20.844   0.645  51.380  1.00  0.00     0.139 A 
HETATM   12  N3  UNL     1      19.542   0.411  51.585  1.00  0.00    -0.242 NA
HETATM   13  C11 UNL     1      19.118  -0.218  52.663  1.00  0.00     0.120 A 
HETATM   14  C12 UNL     1      20.057  -0.631  53.575  1.00  0.00     0.031 A 
HETATM   15  C13 UNL     1      21.405  -0.412  53.404  1.00  0.00    -0.021 A 
HETATM   16  C14 UNL     1      22.246  -0.876  54.395  1.00  0.00     0.012 A 
HETATM   17  C18 UNL     1      21.792   0.248  52.263  1.00  0.00     0.020 A 
HETATM   18  C15 UNL     1      23.615  -0.653  54.223  1.00  0.00     0.001 A 
HETATM   19  C16 UNL     1      24.070   0.005  53.096  1.00  0.00     0.001 A 
HETATM   20  C17 UNL     1      23.167   0.439  52.148  1.00  0.00     0.016 A 
ENDBRANCH   9  11
BRANCH   2  21
HETATM   21  O2  UNL     1      20.258   3.471  51.884  1.00  0.00    -0.355 OA
HETATM   22  C4  UNL     1      19.154   4.095  51.255  1.00  0.00     0.209 C 
ENDBRANCH   2  21
BRANCH   1  23
HETATM   23  O1  UNL     1      22.425   5.291  52.394  1.00  0.00    -0.358 OA
HETATM   24  C1  UNL     1      23.525   4.757  53.108  1.00  0.00     0.209 C 
ENDBRANCH   1  23
TORSDOF 3
ENDMDL
MODEL 6
REMARK VINA RESULT:      -6.8      1.756      2.965
REMARK  3 active torsions:
REMARK  status: ('A' for Active; 'I' for Inactive)
REMARK    1  A    between atoms: O1_2  and  C2_3 
REMARK    2  A    between atoms: C3_4  and  O2_5 
REMARK    3  A    between atoms: N2_13  and  C10_14 
ROOT
HETATM    1  C2  UNL     1      22.358   5.745  50.375  1.00  0.00     0.080 C 
HETATM    2  C3  UNL     1      22.351   4.342  50.609  1.00  0.00     0.106 C 
HETATM    3  C5  UNL     1      23.130   3.437  49.376  1.00  0.00     0.121 A 
HETATM    4  C6  UNL     1      23.571   4.533  48.619  1.00  0.00     0.066 A 
HETATM    5  C7  UNL     1      22.216   4.181  48.583  1.00  0.00     0.095 A 
HETATM    6  N1  UNL     1      21.213   3.368  48.927  1.00  0.00    -0.290 NA
HETATM    7  C8  UNL     1      21.829   1.879  48.756  1.00  0.00     0.202 C 
HETATM    8  C9  UNL     1      22.524   1.892  47.488  1.00  0.00     0.057 C 
HETATM    9  N2  UNL     1      22.777   2.105  49.933  1.00  0.00    -0.324 N 
HETATM   10  C19 UNL     1      21.741   5.610  48.865  1.00  0.00     0.103 C 
ENDROOT
BRANCH   9  11
HETATM   11  C10 UNL     1      23.199   1.545  51.155  1.00  0.00     0.139 A 
HETATM   12  N3  UNL     1      22.345   0.858  51.924  1.00  0.00    -0.242 NA
HETATM   13  C11 UNL     1      22.724   0.330  53.072  1.00  0.00     0.120 A 
HETATM   14  C12 UNL     1      24.030   0.506  53.457  1.00  0.00     0.031 A 
HETATM   15  C13 UNL     1      24.941   1.204  52.698  1.00  0.00    -0.021 A 
HETATM   16  C14 UNL     1      26.223   1.310  53.197  1.00  0.00     0.012 A 
HETATM   17  C18 UNL     1      24.493   1.732  51.511  1.00  0.00     0.020 A 
HETATM   18  C15 UNL     1      27.149   2.020  52.427  1.00  0.00     0.001 A 
HETATM   19  C16 UNL     1      26.762   2.576  51.224  1.00  0.00     0.001 A 
HETATM   20  C17 UNL     1      25.460   2.428  50.790  1.00  0.00     0.016 A 
ENDBRANCH   9  11
BRANCH   2  21
HETATM   21  O2  UNL     1      21.689   3.943  51.898  1.00  0.00    -0.355 OA
HETATM   22  C4  UNL     1      20.274   3.962  51.847  1.00  0.00     0.209 C 
ENDBRANCH   2  21
BRANCH   1  23
HETATM   23  O1  UNL     1      22.824   6.536  51.395  1.00  0.00    -0.358 OA
HETATM   24  C1  UNL     1      24.003   7.276  51.135  1.00  0.00     0.209 C 
ENDBRANCH   1  23
TORSDOF 3
ENDMDL
MODEL 7
REMARK VINA RESULT:      -6.8      1.869      2.867
REMARK  3 active torsions:
REMARK  status: ('A' for Active; 'I' for Inactive)
REMARK    1  A    between atoms: O1_2  and  C2_3 
REMARK    2  A    between atoms: C3_4  and  O2_5 
REMARK    3  A    between atoms: N2_13  and  C10_14 
ROOT
HETATM    1  C2  UNL     1      22.907   4.976  50.964  1.00  0.00     0.080 C 
HETATM    2  C3  UNL     1      22.391   3.655  51.083  1.00  0.00     0.106 C 
HETATM    3  C5  UNL     1      23.034   2.562  49.926  1.00  0.00     0.121 A 
HETATM    4  C6  UNL     1      23.942   3.457  49.339  1.00  0.00     0.066 A 
HETATM    5  C7  UNL     1      22.578   3.588  49.055  1.00  0.00     0.095 A 
HETATM    6  N1  UNL     1      21.316   3.160  49.167  1.00  0.00    -0.290 NA
HETATM    7  C8  UNL     1      21.423   1.553  48.982  1.00  0.00     0.202 C 
HETATM    8  C9  UNL     1      22.298   1.352  47.848  1.00  0.00     0.057 C 
HETATM    9  N2  UNL     1      22.164   1.420  50.311  1.00  0.00    -0.324 N 
HETATM   10  C19 UNL     1      22.562   5.088  49.368  1.00  0.00     0.103 C 
ENDROOT
BRANCH   9  11
HETATM   11  C10 UNL     1      22.149   0.727  51.538  1.00  0.00     0.139 A 
HETATM   12  N3  UNL     1      23.276   0.556  52.241  1.00  0.00    -0.242 NA
HETATM   13  C11 UNL     1      23.279  -0.093  53.389  1.00  0.00     0.120 A 
HETATM   14  C12 UNL     1      22.084  -0.592  53.846  1.00  0.00     0.031 A 
HETATM   15  C13 UNL     1      20.903  -0.439  53.156  1.00  0.00    -0.021 A 
HETATM   16  C14 UNL     1      19.771  -0.988  53.722  1.00  0.00     0.012 A 
HETATM   17  C18 UNL     1      20.957   0.246  51.966  1.00  0.00     0.020 A 
HETATM   18  C15 UNL     1      18.571  -0.835  53.022  1.00  0.00     0.001 A 
HETATM   19  C16 UNL     1      18.557  -0.156  51.819  1.00  0.00     0.001 A 
HETATM   20  C17 UNL     1      19.731   0.365  51.316  1.00  0.00     0.016 A 
ENDBRANCH   9  11
BRANCH   2  21
HETATM   21  O2  UNL     1      21.414   3.481  52.212  1.00  0.00    -0.355 OA
HETATM   22  C4  UNL     1      20.119   3.980  51.931  1.00  0.00     0.209 C 
ENDBRANCH   2  21
BRANCH   1  23
HETATM   23  O1  UNL     1      23.418   5.541  52.105  1.00  0.00    -0.358 OA
HETATM   24  C1  UNL     1      23.914   4.650  53.087  1.00  0.00     0.209 C 
ENDBRANCH   1  23
TORSDOF 3
ENDMDL
MODEL 8
REMARK VINA RESULT:      -6.8      4.036      6.705
REMARK  3 active torsions:
REMARK  status: ('A' for Active; 'I' for Inactive)
REMARK    1  A    between atoms: O1_2  and  C2_3 
REMARK    2  A    between atoms: C3_4  and  O2_5 
REMARK    3  A    between atoms: N2_13  and  C10_14 
ROOT
HETATM    1  C2  UNL     1      21.664   3.606  46.545  1.00  0.00     0.080 C 
HETATM    2  C3  UNL     1      22.245   4.592  47.391  1.00  0.00     0.106 C 
HETATM    3  C5  UNL     1      22.985   3.939  48.796  1.00  0.00     0.121 A 
HETATM    4  C6  UNL     1      22.780   2.587  48.479  1.00  0.00     0.066 A 
HETATM    5  C7  UNL     1      21.694   3.357  48.915  1.00  0.00     0.095 A 
HETATM    6  N1  UNL     1      21.189   4.504  49.378  1.00  0.00    -0.290 NA
HETATM    7  C8  UNL     1      22.261   4.992  50.491  1.00  0.00     0.202 C 
HETATM    8  C9  UNL     1      22.569   3.814  51.273  1.00  0.00     0.057 C 
HETATM    9  N2  UNL     1      23.308   5.254  49.409  1.00  0.00    -0.324 N 
HETATM   10  C19 UNL     1      20.798   2.919  47.752  1.00  0.00     0.103 C 
ENDROOT
BRANCH   9  11
HETATM   11  C10 UNL     1      24.193   6.236  48.921  1.00  0.00     0.139 A 
HETATM   12  N3  UNL     1      23.750   7.457  48.598  1.00  0.00    -0.242 NA
HETATM   13  C11 UNL     1      24.566   8.385  48.138  1.00  0.00     0.120 A 
HETATM   14  C12 UNL     1      25.893   8.061  47.999  1.00  0.00     0.031 A 
HETATM   15  C13 UNL     1      26.390   6.818  48.320  1.00  0.00    -0.021 A 
HETATM   16  C14 UNL     1      27.744   6.619  48.135  1.00  0.00     0.012 A 
HETATM   17  C18 UNL     1      25.497   5.889  48.795  1.00  0.00     0.020 A 
HETATM   18  C15 UNL     1      28.250   5.357  48.458  1.00  0.00     0.001 A 
HETATM   19  C16 UNL     1      27.404   4.378  48.942  1.00  0.00     0.001 A 
HETATM   20  C17 UNL     1      26.062   4.653  49.100  1.00  0.00     0.016 A 
ENDBRANCH   9  11
BRANCH   2  21
HETATM   21  O2  UNL     1      22.117   5.995  46.868  1.00  0.00    -0.355 OA
HETATM   22  C4  UNL     1      20.785   6.473  46.828  1.00  0.00     0.209 C 
ENDBRANCH   2  21
BRANCH   1  23
HETATM   23  O1  UNL     1      22.029   3.639  45.223  1.00  0.00    -0.358 OA
HETATM   24  C1  UNL     1      20.996   3.882  44.286  1.00  0.00     0.209 C 
ENDBRANCH   1  23
TORSDOF 3
ENDMDL
MODEL 9
REMARK VINA RESULT:      -6.8      2.711      4.426
REMARK  3 active torsions:
REMARK  status: ('A' for Active; 'I' for Inactive)
REMARK    1  A    between atoms: O1_2  and  C2_3 
REMARK    2  A    between atoms: C3_4  and  O2_5 
REMARK    3  A    between atoms: N2_13  and  C10_14 
ROOT
HETATM    1  C2  UNL     1      18.344   2.787  51.191  1.00  0.00     0.080 C 
HETATM    2  C3  UNL     1      19.757   2.648  51.279  1.00  0.00     0.106 C 
HETATM    3  C5  UNL     1      20.568   2.938  49.795  1.00  0.00     0.121 A 
HETATM    4  C6  UNL     1      19.433   3.309  49.056  1.00  0.00     0.066 A 
HETATM    5  C7  UNL     1      19.633   1.958  49.366  1.00  0.00     0.095 A 
HETATM    6  N1  UNL     1      20.373   0.980  49.897  1.00  0.00    -0.290 NA
HETATM    7  C8  UNL     1      21.883   1.317  49.415  1.00  0.00     0.202 C 
HETATM    8  C9  UNL     1      21.776   1.643  48.010  1.00  0.00     0.057 C 
HETATM    9  N2  UNL     1      21.917   2.565  50.295  1.00  0.00    -0.324 N 
HETATM   10  C19 UNL     1      18.211   1.778  49.910  1.00  0.00     0.103 C 
ENDROOT
BRANCH   9  11
HETATM   11  C10 UNL     1      22.676   3.216  51.288  1.00  0.00     0.139 A 
HETATM   12  N3  UNL     1      22.536   4.531  51.504  1.00  0.00    -0.242 NA
HETATM   13  C11 UNL     1      23.241   5.154  52.428  1.00  0.00     0.120 A 
HETATM   14  C12 UNL     1      24.128   4.411  53.167  1.00  0.00     0.031 A 
HETATM   15  C13 UNL     1      24.302   3.059  52.979  1.00  0.00    -0.021 A 
HETATM   16  C14 UNL     1      25.225   2.427  53.788  1.00  0.00     0.012 A 
HETATM   17  C18 UNL     1      23.542   2.460  52.004  1.00  0.00     0.020 A 
HETATM   18  C15 UNL     1      25.403   1.055  53.597  1.00  0.00     0.001 A 
HETATM   19  C16 UNL     1      24.670   0.392  52.632  1.00  0.00     0.001 A 
HETATM   20  C17 UNL     1      23.765   1.092  51.861  1.00  0.00     0.016 A 
ENDBRANCH   9  11
BRANCH   2  21
HETATM   21  O2  UNL     1      20.251   2.305  52.656  1.00  0.00    -0.355 OA
HETATM   22  C4  UNL     1      20.073   0.945  53.007  1.00  0.00     0.209 C 
ENDBRANCH   2  21
BRANCH   1  23
HETATM   23  O1  UNL     1      17.749   3.612  52.112  1.00  0.00    -0.358 OA
HETATM   24  C1  UNL     1      16.459   4.097  51.788  1.00  0.00     0.209 C 
ENDBRANCH   1  23
TORSDOF 3
ENDMDL
