MODEL 1
REMARK VINA RESULT:      -8.0      0.000      0.000
REMARK  8 active torsions:
REMARK  status: ('A' for Active; 'I' for Inactive)
REMARK    1  A    between atoms: N1_1  and  C1_2 
REMARK    2  A    between atoms: N3_4  and  C2_5 
REMARK    3  A    between atoms: C2_5  and  C3_6 
REMARK    4  A    between atoms: C7_11  and  C8_12 
REMARK    5  A    between atoms: C8_12  and  C9_13 
REMARK    6  A    between atoms: C14_18  and  C15_19 
REMARK    7  A    between atoms: C15_19  and  C16_20 
REMARK    8  A    between atoms: C17_21  and  S1_22 
ROOT
HETATM    1  C1  UNL     1      24.416  -1.001  54.916  1.00  0.00     0.738 C 
HETATM    2  N2  UNL     1      25.701  -0.772  54.772  1.00  0.00     0.017 NA
HETATM    3  N3  UNL     1      26.121  -0.093  53.592  1.00  0.00    -0.271 N 
HETATM    4  C5  UNL     1      25.220   0.871  53.099  1.00  0.00     0.200 C 
HETATM    5  C6  UNL     1      25.525   1.549  51.841  1.00  0.00     0.033 C 
HETATM    6  C7  UNL     1      24.386   1.810  51.221  1.00  0.00     0.013 C 
HETATM    7  N4  UNL     1      23.323   1.117  51.911  1.00  0.00    -0.345 N 
HETATM    8  C18 UNL     1      23.836   0.362  53.022  1.00  0.00     0.152 C 
HETATM    9  N5  UNL     1      23.516  -0.413  53.996  1.00  0.00    -0.046 NA
HETATM   10  H19 UNL     1      22.274   1.029  51.802  1.00  0.00     0.167 HD
ENDROOT
BRANCH   6  11
HETATM   11  C8  UNL     1      23.909   2.456  49.973  1.00  0.00     0.096 C 
BRANCH  11  12
HETATM   12  C9  UNL     1      24.771   3.568  49.562  1.00  0.00    -0.046 A 
HETATM   13  C10 UNL     1      26.144   3.324  49.548  1.00  0.00     0.008 A 
HETATM   14  C11 UNL     1      27.077   4.265  49.189  1.00  0.00     0.001 A 
HETATM   15  C12 UNL     1      26.664   5.533  48.817  1.00  0.00     0.001 A 
HETATM   16  C13 UNL     1      25.309   5.757  48.836  1.00  0.00     0.008 A 
HETATM   17  C14 UNL     1      24.365   4.821  49.194  1.00  0.00    -0.048 A 
BRANCH  17  18
HETATM   18  C15 UNL     1      22.910   5.115  49.194  1.00  0.00     0.066 C 
BRANCH  18  19
HETATM   19  C16 UNL     1      22.701   6.458  49.829  1.00  0.00    -0.013 C 
HETATM   20  C17 UNL     1      22.292   6.499  51.085  1.00  0.00     0.077 C 
BRANCH  20  21
HETATM   21  S1  UNL     1      22.004   4.976  51.975  1.00  0.00     0.069 SA
HETATM   22  F1  UNL     1      23.465   4.576  52.801  1.00  0.00    -0.160 F 
ENDBRANCH  20  21
ENDBRANCH  18  19
ENDBRANCH  17  18
ENDBRANCH  11  12
ENDBRANCH   6  11
BRANCH   3  23
HETATM   23  C2  UNL     1      27.409  -0.459  53.033  1.00  0.00     0.174 C 
BRANCH  23  24
HETATM   24  C3  UNL     1      28.493  -0.363  54.027  1.00  0.00     0.002 C 
HETATM   25  C4  UNL     1      29.157   0.721  54.417  1.00  0.00     0.053 C 
HETATM   26 BR1  UNL     1      28.696   2.394  53.628  1.00  0.00    -0.064 Br
ENDBRANCH  23  24
ENDBRANCH   3  23
BRANCH   1  27
HETATM   27  N1  UNL     1      23.618  -1.646  55.922  1.00  0.00    -0.230 N 
HETATM   28  H1  UNL     1      23.024  -2.499  55.779  1.00  0.00     0.174 HD
HETATM   29  H2  UNL     1      23.643  -1.206  56.887  1.00  0.00     0.174 HD
ENDBRANCH   1  27
TORSDOF 8
ENDMDL
MODEL 2
REMARK VINA RESULT:      -7.8      2.939      4.302
REMARK  8 active torsions:
REMARK  status: ('A' for Active; 'I' for Inactive)
REMARK    1  A    between atoms: N1_1  and  C1_2 
REMARK    2  A    between atoms: N3_4  and  C2_5 
REMARK    3  A    between atoms: C2_5  and  C3_6 
REMARK    4  A    between atoms: C7_11  and  C8_12 
REMARK    5  A    between atoms: C8_12  and  C9_13 
REMARK    6  A    between atoms: C14_18  and  C15_19 
REMARK    7  A    between atoms: C15_19  and  C16_20 
REMARK    8  A    between atoms: C17_21  and  S1_22 
ROOT
HETATM    1  C1  UNL     1      26.701   0.037  54.566  1.00  0.00     0.738 C 
HETATM    2  N2  UNL     1      25.853  -0.764  53.962  1.00  0.00     0.017 NA
HETATM    3  N3  UNL     1      24.719  -0.170  53.336  1.00  0.00    -0.271 N 
HETATM    4  C5  UNL     1      24.938   1.104  52.775  1.00  0.00     0.200 C 
HETATM    5  C6  UNL     1      23.809   1.827  52.197  1.00  0.00     0.033 C 
HETATM    6  C7  UNL     1      24.001   3.123  52.387  1.00  0.00     0.013 C 
HETATM    7  N4  UNL     1      25.117   3.288  53.290  1.00  0.00    -0.345 N 
HETATM    8  C18 UNL     1      25.641   2.014  53.701  1.00  0.00     0.152 C 
HETATM    9  N5  UNL     1      26.542   1.434  54.410  1.00  0.00    -0.046 NA
HETATM   10  H19 UNL     1      25.636   4.105  53.718  1.00  0.00     0.167 HD
ENDROOT
BRANCH   6  11
HETATM   11  C8  UNL     1      23.336   4.414  52.085  1.00  0.00     0.096 C 
BRANCH  11  12
HETATM   12  C9  UNL     1      23.044   4.564  50.656  1.00  0.00    -0.046 A 
HETATM   13  C10 UNL     1      21.763   4.207  50.237  1.00  0.00     0.008 A 
HETATM   14  C11 UNL     1      21.343   4.289  48.933  1.00  0.00     0.001 A 
HETATM   15  C12 UNL     1      22.213   4.747  47.958  1.00  0.00     0.001 A 
HETATM   16  C13 UNL     1      23.471   5.095  48.388  1.00  0.00     0.008 A 
HETATM   17  C14 UNL     1      23.903   5.016  49.693  1.00  0.00    -0.048 A 
BRANCH  17  18
HETATM   18  C15 UNL     1      25.275   5.408  50.104  1.00  0.00     0.066 C 
BRANCH  18  19
HETATM   19  C16 UNL     1      26.243   4.430  49.507  1.00  0.00    -0.013 C 
HETATM   20  C17 UNL     1      27.224   4.901  48.757  1.00  0.00     0.077 C 
BRANCH  20  21
HETATM   21  S1  UNL     1      27.365   6.661  48.481  1.00  0.00     0.069 SA
HETATM   22  F1  UNL     1      26.075   7.124  47.433  1.00  0.00    -0.160 F 
ENDBRANCH  20  21
ENDBRANCH  18  19
ENDBRANCH  17  18
ENDBRANCH  11  12
ENDBRANCH   6  11
BRANCH   3  23
HETATM   23  C2  UNL     1      23.480  -0.926  53.342  1.00  0.00     0.174 C 
BRANCH  23  24
HETATM   24  C3  UNL     1      22.764  -0.807  54.624  1.00  0.00     0.002 C 
HETATM   25  C4  UNL     1      21.526  -0.371  54.837  1.00  0.00     0.053 C 
HETATM   26 BR1  UNL     1      20.494   0.183  53.332  1.00  0.00    -0.064 Br
ENDBRANCH  23  24
ENDBRANCH   3  23
BRANCH   1  27
HETATM   27  N1  UNL     1      27.920  -0.163  55.301  1.00  0.00    -0.230 N 
HETATM   28  H1  UNL     1      28.738   0.494  55.320  1.00  0.00     0.174 HD
HETATM   29  H2  UNL     1      27.980  -1.058  55.866  1.00  0.00     0.174 HD
ENDBRANCH   1  27
TORSDOF 8
ENDMDL
MODEL 3
REMARK VINA RESULT:      -7.4      2.838      3.921
REMARK  8 active torsions:
REMARK  status: ('A' for Active; 'I' for Inactive)
REMARK    1  A    between atoms: N1_1  and  C1_2 
REMARK    2  A    between atoms: N3_4  and  C2_5 
REMARK    3  A    between atoms: C2_5  and  C3_6 
REMARK    4  A    between atoms: C7_11  and  C8_12 
REMARK    5  A    between atoms: C8_12  and  C9_13 
REMARK    6  A    between atoms: C14_18  and  C15_19 
REMARK    7  A    between atoms: C15_19  and  C16_20 
REMARK    8  A    between atoms: C17_21  and  S1_22 
ROOT
HETATM    1  C1  UNL     1      26.597   0.053  54.435  1.00  0.00     0.738 C 
HETATM    2  N2  UNL     1      25.733  -0.730  53.831  1.00  0.00     0.017 NA
HETATM    3  N3  UNL     1      24.576  -0.122  53.264  1.00  0.00    -0.271 N 
HETATM    4  C5  UNL     1      24.770   1.172  52.741  1.00  0.00     0.200 C 
HETATM    5  C6  UNL     1      23.619   1.909  52.226  1.00  0.00     0.033 C 
HETATM    6  C7  UNL     1      23.812   3.198  52.456  1.00  0.00     0.013 C 
HETATM    7  N4  UNL     1      24.956   3.338  53.327  1.00  0.00    -0.345 N 
HETATM    8  C18 UNL     1      25.499   2.054  53.675  1.00  0.00     0.152 C 
HETATM    9  N5  UNL     1      26.426   1.454  54.334  1.00  0.00    -0.046 NA
HETATM   10  H19 UNL     1      25.485   4.143  53.766  1.00  0.00     0.167 HD
ENDROOT
BRANCH   6  11
HETATM   11  C8  UNL     1      23.131   4.495  52.221  1.00  0.00     0.096 C 
BRANCH  11  12
HETATM   12  C9  UNL     1      23.211   4.915  50.819  1.00  0.00    -0.046 A 
HETATM   13  C10 UNL     1      24.406   5.506  50.409  1.00  0.00     0.008 A 
HETATM   14  C11 UNL     1      24.630   5.953  49.131  1.00  0.00     0.001 A 
HETATM   15  C12 UNL     1      23.637   5.825  48.174  1.00  0.00     0.001 A 
HETATM   16  C13 UNL     1      22.466   5.240  48.594  1.00  0.00     0.008 A 
HETATM   17  C14 UNL     1      22.231   4.788  49.873  1.00  0.00    -0.048 A 
BRANCH  17  18
HETATM   18  C15 UNL     1      20.947   4.161  50.274  1.00  0.00     0.066 C 
BRANCH  18  19
HETATM   19  C16 UNL     1      20.125   3.940  49.039  1.00  0.00    -0.013 C 
HETATM   20  C17 UNL     1      19.983   2.703  48.595  1.00  0.00     0.077 C 
BRANCH  20  21
HETATM   21  S1  UNL     1      20.763   1.352  49.467  1.00  0.00     0.069 SA
HETATM   22  F1  UNL     1      22.459   1.453  49.164  1.00  0.00    -0.160 F 
ENDBRANCH  20  21
ENDBRANCH  18  19
ENDBRANCH  17  18
ENDBRANCH  11  12
ENDBRANCH   6  11
BRANCH   3  23
HETATM   23  C2  UNL     1      23.342  -0.885  53.284  1.00  0.00     0.174 C 
BRANCH  23  24
HETATM   24  C3  UNL     1      22.646  -0.781  54.579  1.00  0.00     0.002 C 
HETATM   25  C4  UNL     1      21.410  -0.354  54.815  1.00  0.00     0.053 C 
HETATM   26 BR1  UNL     1      20.350   0.209  53.333  1.00  0.00    -0.064 Br
ENDBRANCH  23  24
ENDBRANCH   3  23
BRANCH   1  27
HETATM   27  N1  UNL     1      27.840  -0.165  55.122  1.00  0.00    -0.230 N 
HETATM   28  H1  UNL     1      28.278   0.488  55.817  1.00  0.00     0.174 HD
HETATM   29  H2  UNL     1      28.345  -1.069  54.892  1.00  0.00     0.174 HD
ENDBRANCH   1  27
TORSDOF 8
ENDMDL
MODEL 4
REMARK VINA RESULT:      -7.3      4.373      6.854
REMARK  8 active torsions:
REMARK  status: ('A' for Active; 'I' for Inactive)
REMARK    1  A    between atoms: N1_1  and  C1_2 
REMARK    2  A    between atoms: N3_4  and  C2_5 
REMARK    3  A    between atoms: C2_5  and  C3_6 
REMARK    4  A    between atoms: C7_11  and  C8_12 
REMARK    5  A    between atoms: C8_12  and  C9_13 
REMARK    6  A    between atoms: C14_18  and  C15_19 
REMARK    7  A    between atoms: C15_19  and  C16_20 
REMARK    8  A    between atoms: C17_21  and  S1_22 
ROOT
HETATM    1  C1  UNL     1      17.930  -0.680  52.581  1.00  0.00     0.738 C 
HETATM    2  N2  UNL     1      18.181  -0.127  51.417  1.00  0.00     0.017 NA
HETATM    3  N3  UNL     1      19.475   0.435  51.219  1.00  0.00    -0.271 N 
HETATM    4  C5  UNL     1      20.529  -0.234  51.871  1.00  0.00     0.200 C 
HETATM    5  C6  UNL     1      21.876   0.327  51.802  1.00  0.00     0.033 C 
HETATM    6  C7  UNL     1      22.503   0.048  52.933  1.00  0.00     0.013 C 
HETATM    7  N4  UNL     1      21.538  -0.483  53.868  1.00  0.00    -0.345 N 
HETATM    8  C18 UNL     1      20.224  -0.522  53.287  1.00  0.00     0.152 C 
HETATM    9  N5  UNL     1      18.998  -0.846  53.495  1.00  0.00    -0.046 NA
HETATM   10  H19 UNL     1      21.560  -0.846  54.863  1.00  0.00     0.167 HD
ENDROOT
BRANCH   6  11
HETATM   11  C8  UNL     1      23.829   0.259  53.564  1.00  0.00     0.096 C 
BRANCH  11  12
HETATM   12  C9  UNL     1      24.757   0.965  52.676  1.00  0.00    -0.046 A 
HETATM   13  C10 UNL     1      24.231   2.022  51.933  1.00  0.00     0.008 A 
HETATM   14  C11 UNL     1      24.974   2.775  51.057  1.00  0.00     0.001 A 
HETATM   15  C12 UNL     1      26.318   2.495  50.880  1.00  0.00     0.001 A 
HETATM   16  C13 UNL     1      26.820   1.452  51.619  1.00  0.00     0.008 A 
HETATM   17  C14 UNL     1      26.085   0.690  52.500  1.00  0.00    -0.048 A 
BRANCH  17  18
HETATM   18  C15 UNL     1      26.678  -0.427  53.277  1.00  0.00     0.066 C 
BRANCH  18  19
HETATM   19  C16 UNL     1      27.237   0.131  54.552  1.00  0.00    -0.013 C 
HETATM   20  C17 UNL     1      28.542   0.060  54.747  1.00  0.00     0.077 C 
BRANCH  20  21
HETATM   21  S1  UNL     1      29.586  -0.689  53.504  1.00  0.00     0.069 SA
HETATM   22  F1  UNL     1      29.327  -2.393  53.571  1.00  0.00    -0.160 F 
ENDBRANCH  20  21
ENDBRANCH  18  19
ENDBRANCH  17  18
ENDBRANCH  11  12
ENDBRANCH   6  11
BRANCH   3  23
HETATM   23  C2  UNL     1      19.569   1.617  50.382  1.00  0.00     0.174 C 
BRANCH  23  24
HETATM   24  C3  UNL     1      18.852   2.766  50.963  1.00  0.00     0.002 C 
HETATM   25  C4  UNL     1      19.355   3.927  51.373  1.00  0.00     0.053 C 
HETATM   26 BR1  UNL     1      21.236   4.201  51.215  1.00  0.00    -0.064 Br
ENDBRANCH  23  24
ENDBRANCH   3  23
BRANCH   1  27
HETATM   27  N1  UNL     1      16.784  -1.325  53.161  1.00  0.00    -0.230 N 
HETATM   28  H1  UNL     1      16.796  -1.964  53.992  1.00  0.00     0.174 HD
HETATM   29  H2  UNL     1      15.854  -1.125  52.693  1.00  0.00     0.174 HD
ENDBRANCH   1  27
TORSDOF 8
ENDMDL
MODEL 5
REMARK VINA RESULT:      -7.3      3.857      6.221
REMARK  8 active torsions:
REMARK  status: ('A' for Active; 'I' for Inactive)
REMARK    1  A    between atoms: N1_1  and  C1_2 
REMARK    2  A    between atoms: N3_4  and  C2_5 
REMARK    3  A    between atoms: C2_5  and  C3_6 
REMARK    4  A    between atoms: C7_11  and  C8_12 
REMARK    5  A    between atoms: C8_12  and  C9_13 
REMARK    6  A    between atoms: C14_18  and  C15_19 
REMARK    7  A    between atoms: C15_19  and  C16_20 
REMARK    8  A    between atoms: C17_21  and  S1_22 
ROOT
HETATM    1  C1  UNL     1      26.494   4.257  49.619  1.00  0.00     0.738 C 
HETATM    2  N2  UNL     1      26.866   3.169  50.253  1.00  0.00     0.017 NA
HETATM    3  N3  UNL     1      25.945   2.598  51.178  1.00  0.00    -0.271 N 
HETATM    4  C5  UNL     1      24.586   2.726  50.832  1.00  0.00     0.200 C 
HETATM    5  C6  UNL     1      23.569   2.254  51.768  1.00  0.00     0.033 C 
HETATM    6  C7  UNL     1      22.505   3.033  51.657  1.00  0.00     0.013 C 
HETATM    7  N4  UNL     1      22.858   4.170  50.839  1.00  0.00    -0.345 N 
HETATM    8  C18 UNL     1      24.235   4.103  50.429  1.00  0.00     0.152 C 
HETATM    9  N5  UNL     1      25.154   4.693  49.751  1.00  0.00    -0.046 NA
HETATM   10  H19 UNL     1      22.361   5.030  50.472  1.00  0.00     0.167 HD
ENDROOT
BRANCH   6  11
HETATM   11  C8  UNL     1      21.144   3.166  52.233  1.00  0.00     0.096 C 
BRANCH  11  12
HETATM   12  C9  UNL     1      20.226   2.143  51.723  1.00  0.00    -0.046 A 
HETATM   13  C10 UNL     1      19.608   2.409  50.501  1.00  0.00     0.008 A 
HETATM   14  C11 UNL     1      18.723   1.551  49.898  1.00  0.00     0.001 A 
HETATM   15  C12 UNL     1      18.406   0.350  50.509  1.00  0.00     0.001 A 
HETATM   16  C13 UNL     1      19.024   0.103  51.711  1.00  0.00     0.008 A 
HETATM   17  C14 UNL     1      19.913   0.956  52.325  1.00  0.00    -0.048 A 
BRANCH  17  18
HETATM   18  C15 UNL     1      20.555   0.638  53.625  1.00  0.00     0.066 C 
BRANCH  18  19
HETATM   19  C16 UNL     1      20.251  -0.791  53.964  1.00  0.00    -0.013 C 
HETATM   20  C17 UNL     1      21.246  -1.564  54.361  1.00  0.00     0.077 C 
BRANCH  20  21
HETATM   21  S1  UNL     1      22.899  -0.894  54.481  1.00  0.00     0.069 SA
HETATM   22  F1  UNL     1      23.571  -0.892  52.892  1.00  0.00    -0.160 F 
ENDBRANCH  20  21
ENDBRANCH  18  19
ENDBRANCH  17  18
ENDBRANCH  11  12
ENDBRANCH   6  11
BRANCH   3  23
HETATM   23  C2  UNL     1      26.496   1.955  52.357  1.00  0.00     0.174 C 
BRANCH  23  24
HETATM   24  C3  UNL     1      26.716   0.513  52.151  1.00  0.00     0.002 C 
HETATM   25  C4  UNL     1      26.839  -0.440  53.070  1.00  0.00     0.053 C 
HETATM   26 BR1  UNL     1      26.722   0.059  54.907  1.00  0.00    -0.064 Br
ENDBRANCH  23  24
ENDBRANCH   3  23
BRANCH   1  27
HETATM   27  N1  UNL     1      27.115   5.117  48.649  1.00  0.00    -0.230 N 
HETATM   28  H1  UNL     1      28.140   5.332  48.588  1.00  0.00     0.174 HD
HETATM   29  H2  UNL     1      26.464   5.564  47.941  1.00  0.00     0.174 HD
ENDBRANCH   1  27
TORSDOF 8
ENDMDL
MODEL 6
REMARK VINA RESULT:      -7.2      3.936      7.544
REMARK  8 active torsions:
REMARK  status: ('A' for Active; 'I' for Inactive)
REMARK    1  A    between atoms: N1_1  and  C1_2 
REMARK    2  A    between atoms: N3_4  and  C2_5 
REMARK    3  A    between atoms: C2_5  and  C3_6 
REMARK    4  A    between atoms: C7_11  and  C8_12 
REMARK    5  A    between atoms: C8_12  and  C9_13 
REMARK    6  A    between atoms: C14_18  and  C15_19 
REMARK    7  A    between atoms: C15_19  and  C16_20 
REMARK    8  A    between atoms: C17_21  and  S1_22 
ROOT
HETATM    1  C1  UNL     1      21.481   7.582  49.764  1.00  0.00     0.738 C 
HETATM    2  N2  UNL     1      22.096   7.008  48.755  1.00  0.00     0.017 NA
HETATM    3  N3  UNL     1      23.023   5.969  49.054  1.00  0.00    -0.271 N 
HETATM    4  C5  UNL     1      22.695   5.170  50.167  1.00  0.00     0.200 C 
HETATM    5  C6  UNL     1      23.636   4.142  50.603  1.00  0.00     0.033 C 
HETATM    6  C7  UNL     1      23.548   4.026  51.919  1.00  0.00     0.013 C 
HETATM    7  N4  UNL     1      22.741   5.116  52.417  1.00  0.00    -0.345 N 
HETATM    8  C18 UNL     1      22.315   5.974  51.346  1.00  0.00     0.152 C 
HETATM    9  N5  UNL     1      21.634   7.025  51.056  1.00  0.00    -0.046 NA
HETATM   10  H19 UNL     1      22.392   5.435  53.364  1.00  0.00     0.167 HD
ENDROOT
BRANCH   6  11
HETATM   11  C8  UNL     1      24.141   3.227  53.019  1.00  0.00     0.096 C 
BRANCH  11  12
HETATM   12  C9  UNL     1      23.667   1.840  53.012  1.00  0.00    -0.046 A 
HETATM   13  C10 UNL     1      22.291   1.649  52.886  1.00  0.00     0.008 A 
HETATM   14  C11 UNL     1      21.696   0.412  52.867  1.00  0.00     0.001 A 
HETATM   15  C12 UNL     1      22.477  -0.726  52.977  1.00  0.00     0.001 A 
HETATM   16  C13 UNL     1      23.830  -0.521  53.100  1.00  0.00     0.008 A 
HETATM   17  C14 UNL     1      24.436   0.715  53.120  1.00  0.00    -0.048 A 
BRANCH  17  18
HETATM   18  C15 UNL     1      25.905   0.880  53.253  1.00  0.00     0.066 C 
BRANCH  18  19
HETATM   19  C16 UNL     1      26.574  -0.258  52.540  1.00  0.00    -0.013 C 
HETATM   20  C17 UNL     1      27.718  -0.711  53.021  1.00  0.00     0.077 C 
BRANCH  20  21
HETATM   21  S1  UNL     1      28.424   0.035  54.484  1.00  0.00     0.069 SA
HETATM   22  F1  UNL     1      29.865   0.853  54.002  1.00  0.00    -0.160 F 
ENDBRANCH  20  21
ENDBRANCH  18  19
ENDBRANCH  17  18
ENDBRANCH  11  12
ENDBRANCH   6  11
BRANCH   3  23
HETATM   23  C2  UNL     1      24.187   5.845  48.196  1.00  0.00     0.174 C 
BRANCH  23  24
HETATM   24  C3  UNL     1      25.240   6.815  48.547  1.00  0.00     0.002 C 
HETATM   25  C4  UNL     1      26.502   6.570  48.885  1.00  0.00     0.053 C 
HETATM   26 BR1  UNL     1      27.087   4.756  48.941  1.00  0.00    -0.064 Br
ENDBRANCH  23  24
ENDBRANCH   3  23
BRANCH   1  27
HETATM   27  N1  UNL     1      20.515   8.640  49.881  1.00  0.00    -0.230 N 
HETATM   28  H1  UNL     1      19.933   8.848  50.728  1.00  0.00     0.174 HD
HETATM   29  H2  UNL     1      20.394   9.254  49.024  1.00  0.00     0.174 HD
ENDBRANCH   1  27
TORSDOF 8
ENDMDL
MODEL 7
REMARK VINA RESULT:      -7.2      2.664      3.568
REMARK  8 active torsions:
REMARK  status: ('A' for Active; 'I' for Inactive)
REMARK    1  A    between atoms: N1_1  and  C1_2 
REMARK    2  A    between atoms: N3_4  and  C2_5 
REMARK    3  A    between atoms: C2_5  and  C3_6 
REMARK    4  A    between atoms: C7_11  and  C8_12 
REMARK    5  A    between atoms: C8_12  and  C9_13 
REMARK    6  A    between atoms: C14_18  and  C15_19 
REMARK    7  A    between atoms: C15_19  and  C16_20 
REMARK    8  A    between atoms: C17_21  and  S1_22 
ROOT
HETATM    1  C1  UNL     1      26.351   0.180  54.726  1.00  0.00     0.738 C 
HETATM    2  N2  UNL     1      25.494  -0.650  54.176  1.00  0.00     0.017 NA
HETATM    3  N3  UNL     1      24.545  -0.108  53.263  1.00  0.00    -0.271 N 
HETATM    4  C5  UNL     1      25.005   0.975  52.487  1.00  0.00     0.200 C 
HETATM    5  C6  UNL     1      24.070   1.654  51.594  1.00  0.00     0.033 C 
HETATM    6  C7  UNL     1      24.405   2.933  51.533  1.00  0.00     0.013 C 
HETATM    7  N4  UNL     1      25.400   3.191  52.549  1.00  0.00    -0.345 N 
HETATM    8  C18 UNL     1      25.690   2.000  53.300  1.00  0.00     0.152 C 
HETATM    9  N5  UNL     1      26.402   1.512  54.253  1.00  0.00    -0.046 NA
HETATM   10  H19 UNL     1      25.960   4.029  52.872  1.00  0.00     0.167 HD
ENDROOT
BRANCH   6  11
HETATM   11  C8  UNL     1      23.963   4.179  50.860  1.00  0.00     0.096 C 
BRANCH  11  12
HETATM   12  C9  UNL     1      25.047   4.811  50.102  1.00  0.00    -0.046 A 
HETATM   13  C10 UNL     1      26.055   3.970  49.630  1.00  0.00     0.008 A 
HETATM   14  C11 UNL     1      27.135   4.414  48.908  1.00  0.00     0.001 A 
HETATM   15  C12 UNL     1      27.260   5.762  48.617  1.00  0.00     0.001 A 
HETATM   16  C13 UNL     1      26.258   6.576  49.088  1.00  0.00     0.008 A 
HETATM   17  C14 UNL     1      25.171   6.142  49.813  1.00  0.00    -0.048 A 
BRANCH  17  18
HETATM   18  C15 UNL     1      24.115   7.066  50.297  1.00  0.00     0.066 C 
BRANCH  18  19
HETATM   19  C16 UNL     1      24.296   8.388  49.612  1.00  0.00    -0.013 C 
HETATM   20  C17 UNL     1      23.265   8.903  48.966  1.00  0.00     0.077 C 
BRANCH  20  21
HETATM   21  S1  UNL     1      21.711   8.021  48.927  1.00  0.00     0.069 SA
HETATM   22  F1  UNL     1      20.988   8.181  50.485  1.00  0.00    -0.160 F 
ENDBRANCH  20  21
ENDBRANCH  18  19
ENDBRANCH  17  18
ENDBRANCH  11  12
ENDBRANCH   6  11
BRANCH   3  23
HETATM   23  C2  UNL     1      23.228  -0.716  53.229  1.00  0.00     0.174 C 
BRANCH  23  24
HETATM   24  C3  UNL     1      22.393  -0.295  54.368  1.00  0.00     0.002 C 
HETATM   25  C4  UNL     1      21.142   0.157  54.347  1.00  0.00     0.053 C 
HETATM   26 BR1  UNL     1      20.263   0.301  52.661  1.00  0.00    -0.064 Br
ENDBRANCH  23  24
ENDBRANCH   3  23
BRANCH   1  27
HETATM   27  N1  UNL     1      27.422   0.035  55.673  1.00  0.00    -0.230 N 
HETATM   28  H1  UNL     1      27.626  -0.822  56.242  1.00  0.00     0.174 HD
HETATM   29  H2  UNL     1      28.051   0.881  55.795  1.00  0.00     0.174 HD
ENDBRANCH   1  27
TORSDOF 8
ENDMDL
MODEL 8
REMARK VINA RESULT:      -7.2      3.750      7.045
REMARK  8 active torsions:
REMARK  status: ('A' for Active; 'I' for Inactive)
REMARK    1  A    between atoms: N1_1  and  C1_2 
REMARK    2  A    between atoms: N3_4  and  C2_5 
REMARK    3  A    between atoms: C2_5  and  C3_6 
REMARK    4  A    between atoms: C7_11  and  C8_12 
REMARK    5  A    between atoms: C8_12  and  C9_13 
REMARK    6  A    between atoms: C14_18  and  C15_19 
REMARK    7  A    between atoms: C15_19  and  C16_20 
REMARK    8  A    between atoms: C17_21  and  S1_22 
ROOT
HETATM    1  C1  UNL     1      22.902   6.356  51.197  1.00  0.00     0.738 C 
HETATM    2  N2  UNL     1      21.962   5.702  51.841  1.00  0.00     0.017 NA
HETATM    3  N3  UNL     1      22.155   4.306  52.048  1.00  0.00    -0.271 N 
HETATM    4  C5  UNL     1      23.491   3.904  52.244  1.00  0.00     0.200 C 
HETATM    5  C6  UNL     1      23.791   2.480  52.369  1.00  0.00     0.033 C 
HETATM    6  C7  UNL     1      24.988   2.259  51.848  1.00  0.00     0.013 C 
HETATM    7  N4  UNL     1      25.411   3.455  51.158  1.00  0.00    -0.345 N 
HETATM    8  C18 UNL     1      24.406   4.480  51.239  1.00  0.00     0.152 C 
HETATM    9  N5  UNL     1      24.115   5.687  50.908  1.00  0.00    -0.046 NA
HETATM   10  H19 UNL     1      26.267   3.759  50.613  1.00  0.00     0.167 HD
ENDROOT
BRANCH   6  11
HETATM   11  C8  UNL     1      25.929   1.132  51.634  1.00  0.00     0.096 C 
BRANCH  11  12
HETATM   12  C9  UNL     1      26.761   0.876  52.813  1.00  0.00    -0.046 A 
HETATM   13  C10 UNL     1      27.981   1.549  52.879  1.00  0.00     0.008 A 
HETATM   14  C11 UNL     1      28.868   1.410  53.917  1.00  0.00     0.001 A 
HETATM   15  C12 UNL     1      28.565   0.564  54.970  1.00  0.00     0.001 A 
HETATM   16  C13 UNL     1      27.360  -0.092  54.890  1.00  0.00     0.008 A 
HETATM   17  C14 UNL     1      26.463   0.040  53.854  1.00  0.00    -0.048 A 
BRANCH  17  18
HETATM   18  C15 UNL     1      25.172  -0.691  53.819  1.00  0.00     0.066 C 
BRANCH  18  19
HETATM   19  C16 UNL     1      24.833  -1.116  55.218  1.00  0.00    -0.013 C 
HETATM   20  C17 UNL     1      23.558  -1.214  55.549  1.00  0.00     0.077 C 
BRANCH  20  21
HETATM   21  S1  UNL     1      22.295  -0.844  54.340  1.00  0.00     0.069 SA
HETATM   22  F1  UNL     1      21.113   0.147  55.115  1.00  0.00    -0.160 F 
ENDBRANCH  20  21
ENDBRANCH  18  19
ENDBRANCH  17  18
ENDBRANCH  11  12
ENDBRANCH   6  11
BRANCH   3  23
HETATM   23  C2  UNL     1      20.976   3.460  52.034  1.00  0.00     0.174 C 
BRANCH  23  24
HETATM   24  C3  UNL     1      20.501   3.192  50.665  1.00  0.00     0.002 C 
HETATM   25  C4  UNL     1      20.040   2.050  50.164  1.00  0.00     0.053 C 
HETATM   26 BR1  UNL     1      19.957   0.529  51.312  1.00  0.00    -0.064 Br
ENDBRANCH  23  24
ENDBRANCH   3  23
BRANCH   1  27
HETATM   27  N1  UNL     1      23.075   7.723  50.790  1.00  0.00    -0.230 N 
HETATM   28  H1  UNL     1      23.993   8.195  50.601  1.00  0.00     0.174 HD
HETATM   29  H2  UNL     1      22.185   8.289  50.676  1.00  0.00     0.174 HD
ENDBRANCH   1  27
TORSDOF 8
ENDMDL
MODEL 9
REMARK VINA RESULT:      -7.1      4.026      6.376
REMARK  8 active torsions:
REMARK  status: ('A' for Active; 'I' for Inactive)
REMARK    1  A    between atoms: N1_1  and  C1_2 
REMARK    2  A    between atoms: N3_4  and  C2_5 
REMARK    3  A    between atoms: C2_5  and  C3_6 
REMARK    4  A    between atoms: C7_11  and  C8_12 
REMARK    5  A    between atoms: C8_12  and  C9_13 
REMARK    6  A    between atoms: C14_18  and  C15_19 
REMARK    7  A    between atoms: C15_19  and  C16_20 
REMARK    8  A    between atoms: C17_21  and  S1_22 
ROOT
HETATM    1  C1  UNL     1      18.019  -0.985  52.708  1.00  0.00     0.738 C 
HETATM    2  N2  UNL     1      18.022  -0.573  51.461  1.00  0.00     0.017 NA
HETATM    3  N3  UNL     1      19.049   0.334  51.069  1.00  0.00    -0.271 N 
HETATM    4  C5  UNL     1      20.292   0.149  51.705  1.00  0.00     0.200 C 
HETATM    5  C6  UNL     1      21.374   1.092  51.435  1.00  0.00     0.033 C 
HETATM    6  C7  UNL     1      22.106   1.212  52.530  1.00  0.00     0.013 C 
HETATM    7  N4  UNL     1      21.413   0.556  53.615  1.00  0.00    -0.345 N 
HETATM    8  C18 UNL     1      20.161   0.008  53.169  1.00  0.00     0.152 C 
HETATM    9  N5  UNL     1      19.120  -0.654  53.533  1.00  0.00    -0.046 NA
HETATM   10  H19 UNL     1      21.596   0.382  54.643  1.00  0.00     0.167 HD
ENDROOT
BRANCH   6  11
HETATM   11  C8  UNL     1      23.315   1.932  53.000  1.00  0.00     0.096 C 
BRANCH  11  12
HETATM   12  C9  UNL     1      24.550   1.216  52.666  1.00  0.00    -0.046 A 
HETATM   13  C10 UNL     1      24.702  -0.058  53.212  1.00  0.00     0.008 A 
HETATM   14  C11 UNL     1      25.803  -0.849  52.994  1.00  0.00     0.001 A 
HETATM   15  C12 UNL     1      26.833  -0.385  52.194  1.00  0.00     0.001 A 
HETATM   16  C13 UNL     1      26.667   0.871  51.664  1.00  0.00     0.008 A 
HETATM   17  C14 UNL     1      25.568   1.672  51.876  1.00  0.00    -0.048 A 
BRANCH  17  18
HETATM   18  C15 UNL     1      25.438   3.024  51.276  1.00  0.00     0.066 C 
BRANCH  18  19
HETATM   19  C16 UNL     1      26.553   3.210  50.289  1.00  0.00    -0.013 C 
HETATM   20  C17 UNL     1      26.396   4.107  49.331  1.00  0.00     0.077 C 
BRANCH  20  21
HETATM   21  S1  UNL     1      24.884   5.055  49.242  1.00  0.00     0.069 SA
HETATM   22  F1  UNL     1      23.646   4.000  48.664  1.00  0.00    -0.160 F 
ENDBRANCH  20  21
ENDBRANCH  18  19
ENDBRANCH  17  18
ENDBRANCH  11  12
ENDBRANCH   6  11
BRANCH   3  23
HETATM   23  C2  UNL     1      18.711   1.335  50.074  1.00  0.00     0.174 C 
BRANCH  23  24
HETATM   24  C3  UNL     1      17.908   2.433  50.642  1.00  0.00     0.002 C 
HETATM   25  C4  UNL     1      18.236   3.716  50.758  1.00  0.00     0.053 C 
HETATM   26 BR1  UNL     1      19.948   4.270  50.129  1.00  0.00    -0.064 Br
ENDBRANCH  23  24
ENDBRANCH   3  23
BRANCH   1  27
HETATM   27  N1  UNL     1      17.176  -1.861  53.474  1.00  0.00    -0.230 N 
HETATM   28  H1  UNL     1      17.138  -1.914  54.521  1.00  0.00     0.174 HD
HETATM   29  H2  UNL     1      16.544  -2.503  52.915  1.00  0.00     0.174 HD
ENDBRANCH   1  27
TORSDOF 8
ENDMDL
