MODEL 1
REMARK VINA RESULT:      -8.4      0.000      0.000
REMARK  7 active torsions:
REMARK  status: ('A' for Active; 'I' for Inactive)
REMARK    1  A    between atoms: N1_2  and  C2_3 
REMARK    2  A    between atoms: C2_3  and  C3_4 
REMARK    3  A    between atoms: C4_5  and  C5_6 
REMARK       I    between atoms: C5_6  and  N2_8 
REMARK    4  A    between atoms: N2_8  and  C6_9 
REMARK    5  A    between atoms: C6_9  and  C7_10 
REMARK    6  A    between atoms: C10_13  and  N3_14 
REMARK    7  A    between atoms: N3_14  and  C11_15 
ROOT
HETATM    1  C7  UNL     1      22.608   3.859  51.426  1.00  0.00     0.141 C 
HETATM    2  C8  UNL     1      23.791   4.551  51.954  1.00  0.00     0.113 A 
HETATM    3  C9  UNL     1      24.029   3.731  53.224  1.00  0.00     0.087 C 
HETATM    4  C10 UNL     1      24.812   2.577  52.466  1.00  0.00     0.205 C 
HETATM    5  N4  UNL     1      24.687   3.021  51.005  1.00  0.00    -0.271 NA
HETATM    6  C17 UNL     1      24.731   4.331  50.738  1.00  0.00     0.149 A 
HETATM    7  C18 UNL     1      24.821   3.852  49.285  1.00  0.00     0.084 C 
HETATM    8  C19 UNL     1      23.419   3.279  48.996  1.00  0.00     0.173 C 
HETATM    9  O2  UNL     1      22.474   3.455  50.037  1.00  0.00    -0.372 OA
HETATM   10  N5  UNL     1      24.317   5.634  51.134  1.00  0.00    -0.378 N 
HETATM   11  H23 UNL     1      24.121   6.656  51.285  1.00  0.00     0.157 HD
ENDROOT
BRANCH   1  12
HETATM   12  C6  UNL     1      21.387   3.494  52.300  1.00  0.00     0.167 C 
BRANCH  12  13
HETATM   13  N2  UNL     1      21.071   2.098  51.938  1.00  0.00    -0.355 N 
HETATM   14  C5  UNL     1      19.659   1.824  51.934  1.00  0.00     0.240 C 
HETATM   15  O1  UNL     1      19.167   2.944  52.264  1.00  0.00    -0.269 OA
HETATM   16  H9  UNL     1      21.842   1.399  51.711  1.00  0.00     0.162 HD
BRANCH  14  17
HETATM   17  C4  UNL     1      19.207   0.483  51.592  1.00  0.00     0.072 C 
HETATM   18  C3  UNL     1      18.328  -0.461  51.803  1.00  0.00     0.008 C 
BRANCH  18  19
HETATM   19  C2  UNL     1      17.134  -0.709  52.634  1.00  0.00     0.296 C 
BRANCH  19  20
HETATM   20  N1  UNL     1      17.554  -1.399  53.841  1.00  0.00     0.082 N 
HETATM   21  C1  UNL     1      17.732  -2.797  53.575  1.00  0.00     0.307 C 
HETATM   22  H4  UNL     1      16.894  -1.213  54.626  1.00  0.00     0.315 HD
ENDBRANCH  19  20
ENDBRANCH  18  19
ENDBRANCH  14  17
ENDBRANCH  12  13
ENDBRANCH   1  12
BRANCH   4  23
HETATM   23  N3  UNL     1      26.157   2.699  52.815  1.00  0.00    -0.367 N 
HETATM   24  H15 UNL     1      26.633   3.636  52.945  1.00  0.00     0.161 HD
BRANCH  23  25
HETATM   25  C11 UNL     1      27.111   1.673  53.051  1.00  0.00     0.031 A 
HETATM   26  C12 UNL     1      28.393   1.783  53.598  1.00  0.00     0.032 A 
HETATM   27  C13 UNL     1      29.192   0.673  53.755  1.00  0.00     0.046 A 
HETATM   28  C14 UNL     1      28.754  -0.579  53.380  1.00  0.00     0.138 A 
HETATM   29  F1  UNL     1      29.613  -1.615  53.574  1.00  0.00    -0.204 F 
HETATM   30  C15 UNL     1      27.480  -0.732  52.830  1.00  0.00     0.074 A 
HETATM   31 CL1  UNL     1      26.951  -2.332  52.364  1.00  0.00    -0.081 Cl
HETATM   32  C16 UNL     1      26.677   0.400  52.675  1.00  0.00     0.056 A 
ENDBRANCH  23  25
ENDBRANCH   4  23
TORSDOF 7
ENDMDL
MODEL 2
REMARK VINA RESULT:      -8.0      3.510      6.930
REMARK  7 active torsions:
REMARK  status: ('A' for Active; 'I' for Inactive)
REMARK    1  A    between atoms: N1_2  and  C2_3 
REMARK    2  A    between atoms: C2_3  and  C3_4 
REMARK    3  A    between atoms: C4_5  and  C5_6 
REMARK       I    between atoms: C5_6  and  N2_8 
REMARK    4  A    between atoms: N2_8  and  C6_9 
REMARK    5  A    between atoms: C6_9  and  C7_10 
REMARK    6  A    between atoms: C10_13  and  N3_14 
REMARK    7  A    between atoms: N3_14  and  C11_15 
ROOT
HETATM    1  C7  UNL     1      24.711   3.959  50.102  1.00  0.00     0.141 C 
HETATM    2  C8  UNL     1      23.337   3.517  49.833  1.00  0.00     0.113 A 
HETATM    3  C9  UNL     1      23.327   2.201  50.615  1.00  0.00     0.087 C 
HETATM    4  C10 UNL     1      23.028   2.902  52.008  1.00  0.00     0.205 C 
HETATM    5  N4  UNL     1      23.070   4.386  51.626  1.00  0.00    -0.271 NA
HETATM    6  C17 UNL     1      22.594   4.742  50.429  1.00  0.00     0.149 A 
HETATM    7  C18 UNL     1      22.750   6.162  50.987  1.00  0.00     0.084 C 
HETATM    8  C19 UNL     1      24.277   6.367  51.055  1.00  0.00     0.173 C 
HETATM    9  O2  UNL     1      25.049   5.312  50.508  1.00  0.00    -0.372 OA
HETATM   10  N5  UNL     1      22.516   4.425  49.043  1.00  0.00    -0.378 N 
HETATM   11  H23 UNL     1      22.342   4.338  48.010  1.00  0.00     0.157 HD
ENDROOT
BRANCH   1  12
HETATM   12  C6  UNL     1      25.936   3.025  49.976  1.00  0.00     0.167 C 
BRANCH  12  13
HETATM   13  N2  UNL     1      26.767   3.336  51.156  1.00  0.00    -0.355 N 
HETATM   14  C5  UNL     1      27.124   2.168  51.915  1.00  0.00     0.240 C 
HETATM   15  O1  UNL     1      26.562   1.240  51.261  1.00  0.00    -0.269 OA
HETATM   16  H9  UNL     1      27.050   4.337  51.384  1.00  0.00     0.162 HD
BRANCH  14  17
HETATM   17  C4  UNL     1      27.946   2.331  53.105  1.00  0.00     0.072 C 
HETATM   18  C3  UNL     1      28.563   1.742  54.097  1.00  0.00     0.008 C 
BRANCH  18  19
HETATM   19  C2  UNL     1      28.790   0.381  54.620  1.00  0.00     0.296 C 
BRANCH  19  20
HETATM   20  N1  UNL     1      27.604  -0.414  54.352  1.00  0.00     0.082 N 
HETATM   21  C1  UNL     1      26.500   0.066  55.130  1.00  0.00     0.307 C 
HETATM   22  H4  UNL     1      27.795  -1.429  54.495  1.00  0.00     0.315 HD
ENDBRANCH  19  20
ENDBRANCH  18  19
ENDBRANCH  14  17
ENDBRANCH  12  13
ENDBRANCH   1  12
BRANCH   4  23
HETATM   23  N3  UNL     1      21.706   2.604  52.338  1.00  0.00    -0.367 N 
HETATM   24  H15 UNL     1      20.922   3.310  52.258  1.00  0.00     0.161 HD
BRANCH  23  25
HETATM   25  C11 UNL     1      21.164   1.383  52.821  1.00  0.00     0.031 A 
HETATM   26  C12 UNL     1      21.687   0.518  53.788  1.00  0.00     0.032 A 
HETATM   27  C13 UNL     1      21.023  -0.636  54.137  1.00  0.00     0.046 A 
HETATM   28  C14 UNL     1      19.825  -0.975  53.546  1.00  0.00     0.138 A 
HETATM   29  F1  UNL     1      19.243  -2.135  53.956  1.00  0.00    -0.204 F 
HETATM   30  C15 UNL     1      19.269  -0.139  52.577  1.00  0.00     0.074 A 
HETATM   31 CL1  UNL     1      17.747  -0.594  51.845  1.00  0.00    -0.081 Cl
HETATM   32  C16 UNL     1      19.949   1.030  52.229  1.00  0.00     0.056 A 
ENDBRANCH  23  25
ENDBRANCH   4  23
TORSDOF 7
ENDMDL
MODEL 3
REMARK VINA RESULT:      -7.9      4.116      8.475
REMARK  7 active torsions:
REMARK  status: ('A' for Active; 'I' for Inactive)
REMARK    1  A    between atoms: N1_2  and  C2_3 
REMARK    2  A    between atoms: C2_3  and  C3_4 
REMARK    3  A    between atoms: C4_5  and  C5_6 
REMARK       I    between atoms: C5_6  and  N2_8 
REMARK    4  A    between atoms: N2_8  and  C6_9 
REMARK    5  A    between atoms: C6_9  and  C7_10 
REMARK    6  A    between atoms: C10_13  and  N3_14 
REMARK    7  A    between atoms: N3_14  and  C11_15 
ROOT
HETATM    1  C7  UNL     1      25.818   2.421  51.740  1.00  0.00     0.141 C 
HETATM    2  C8  UNL     1      25.189   2.521  53.063  1.00  0.00     0.113 A 
HETATM    3  C9  UNL     1      23.733   2.741  52.646  1.00  0.00     0.087 C 
HETATM    4  C10 UNL     1      23.448   1.195  52.420  1.00  0.00     0.205 C 
HETATM    5  N4  UNL     1      24.831   0.583  52.663  1.00  0.00    -0.271 NA
HETATM    6  C17 UNL     1      25.605   1.128  53.608  1.00  0.00     0.149 A 
HETATM    7  C18 UNL     1      26.471  -0.113  53.364  1.00  0.00     0.084 C 
HETATM    8  C19 UNL     1      27.068   0.121  51.962  1.00  0.00     0.173 C 
HETATM    9  O2  UNL     1      26.770   1.381  51.386  1.00  0.00    -0.372 OA
HETATM   10  N5  UNL     1      26.072   2.332  54.207  1.00  0.00    -0.378 N 
HETATM   11  H23 UNL     1      26.502   3.107  54.772  1.00  0.00     0.157 HD
ENDROOT
BRANCH   1  12
HETATM   12  C6  UNL     1      25.530   3.415  50.593  1.00  0.00     0.167 C 
BRANCH  12  13
HETATM   13  N2  UNL     1      26.843   3.645  49.959  1.00  0.00    -0.355 N 
HETATM   14  C5  UNL     1      26.847   4.777  49.071  1.00  0.00     0.240 C 
HETATM   15  O1  UNL     1      25.652   5.190  49.156  1.00  0.00    -0.269 OA
HETATM   16  H9  UNL     1      27.675   3.014  50.166  1.00  0.00     0.162 HD
BRANCH  14  17
HETATM   17  C4  UNL     1      28.081   5.119  48.379  1.00  0.00     0.072 C 
HETATM   18  C3  UNL     1      29.021   6.011  48.195  1.00  0.00     0.008 C 
BRANCH  18  19
HETATM   19  C2  UNL     1      29.388   7.358  48.669  1.00  0.00     0.296 C 
BRANCH  19  20
HETATM   20  N1  UNL     1      28.251   7.919  49.377  1.00  0.00     0.082 N 
HETATM   21  C1  UNL     1      28.306   9.351  49.346  1.00  0.00     0.307 C 
HETATM   22  H4  UNL     1      28.187   7.533  50.344  1.00  0.00     0.315 HD
ENDBRANCH  19  20
ENDBRANCH  18  19
ENDBRANCH  14  17
ENDBRANCH  12  13
ENDBRANCH   1  12
BRANCH   4  23
HETATM   23  N3  UNL     1      22.628   0.776  53.468  1.00  0.00    -0.367 N 
HETATM   24  H15 UNL     1      22.870   0.938  54.486  1.00  0.00     0.161 HD
BRANCH  23  25
HETATM   25  C11 UNL     1      21.386   0.089  53.405  1.00  0.00     0.031 A 
HETATM   26  C12 UNL     1      20.953  -1.003  54.162  1.00  0.00     0.032 A 
HETATM   27  C13 UNL     1      19.706  -1.550  53.966  1.00  0.00     0.046 A 
HETATM   28  C14 UNL     1      18.845  -1.040  53.018  1.00  0.00     0.138 A 
HETATM   29  F1  UNL     1      17.633  -1.646  52.896  1.00  0.00    -0.204 F 
HETATM   30  C15 UNL     1      19.238   0.051  52.240  1.00  0.00     0.074 A 
HETATM   31 CL1  UNL     1      18.126   0.678  51.046  1.00  0.00    -0.081 Cl
HETATM   32  C16 UNL     1      20.506   0.600  52.448  1.00  0.00     0.056 A 
ENDBRANCH  23  25
ENDBRANCH   4  23
TORSDOF 7
ENDMDL
MODEL 4
REMARK VINA RESULT:      -7.8      4.052      8.152
REMARK  7 active torsions:
REMARK  status: ('A' for Active; 'I' for Inactive)
REMARK    1  A    between atoms: N1_2  and  C2_3 
REMARK    2  A    between atoms: C2_3  and  C3_4 
REMARK    3  A    between atoms: C4_5  and  C5_6 
REMARK       I    between atoms: C5_6  and  N2_8 
REMARK    4  A    between atoms: N2_8  and  C6_9 
REMARK    5  A    between atoms: C6_9  and  C7_10 
REMARK    6  A    between atoms: C10_13  and  N3_14 
REMARK    7  A    between atoms: N3_14  and  C11_15 
ROOT
HETATM    1  C7  UNL     1      25.742   5.341  49.328  1.00  0.00     0.141 C 
HETATM    2  C8  UNL     1      24.558   4.519  49.049  1.00  0.00     0.113 A 
HETATM    3  C9  UNL     1      25.090   3.145  49.461  1.00  0.00     0.087 C 
HETATM    4  C10 UNL     1      24.800   3.371  51.005  1.00  0.00     0.205 C 
HETATM    5  N4  UNL     1      24.305   4.822  51.021  1.00  0.00    -0.271 NA
HETATM    6  C17 UNL     1      23.562   5.245  49.993  1.00  0.00     0.149 A 
HETATM    7  C18 UNL     1      23.339   6.469  50.889  1.00  0.00     0.084 C 
HETATM    8  C19 UNL     1      24.711   7.173  50.903  1.00  0.00     0.173 C 
HETATM    9  O2  UNL     1      25.686   6.602  50.049  1.00  0.00    -0.372 OA
HETATM   10  N5  UNL     1      23.378   5.235  48.582  1.00  0.00    -0.378 N 
HETATM   11  H23 UNL     1      23.085   5.323  47.576  1.00  0.00     0.157 HD
ENDROOT
BRANCH   1  12
HETATM   12  C6  UNL     1      27.166   4.945  48.879  1.00  0.00     0.167 C 
BRANCH  12  13
HETATM   13  N2  UNL     1      27.898   6.224  48.783  1.00  0.00    -0.355 N 
HETATM   14  C5  UNL     1      29.239   6.068  48.289  1.00  0.00     0.240 C 
HETATM   15  O1  UNL     1      29.315   4.816  48.105  1.00  0.00    -0.269 OA
HETATM   16  H9  UNL     1      27.441   7.144  49.062  1.00  0.00     0.162 HD
BRANCH  14  17
HETATM   17  C4  UNL     1      30.074   7.252  48.142  1.00  0.00     0.072 C 
HETATM   18  C3  UNL     1      30.168   8.548  48.287  1.00  0.00     0.008 C 
BRANCH  18  19
HETATM   19  C2  UNL     1      29.346   9.682  48.751  1.00  0.00     0.296 C 
BRANCH  19  20
HETATM   20  N1  UNL     1      28.937   9.419  50.120  1.00  0.00     0.082 N 
HETATM   21  C1  UNL     1      27.510   9.480  50.230  1.00  0.00     0.307 C 
HETATM   22  H4  UNL     1      29.427  10.055  50.784  1.00  0.00     0.315 HD
ENDBRANCH  19  20
ENDBRANCH  18  19
ENDBRANCH  14  17
ENDBRANCH  12  13
ENDBRANCH   1  12
BRANCH   4  23
HETATM   23  N3  UNL     1      23.710   2.566  51.338  1.00  0.00    -0.367 N 
HETATM   24  H15 UNL     1      22.757   2.676  50.889  1.00  0.00     0.161 HD
BRANCH  23  25
HETATM   25  C11 UNL     1      23.643   1.505  52.281  1.00  0.00     0.031 A 
HETATM   26  C12 UNL     1      22.539   0.728  52.642  1.00  0.00     0.032 A 
HETATM   27  C13 UNL     1      22.654  -0.268  53.585  1.00  0.00     0.046 A 
HETATM   28  C14 UNL     1      23.859  -0.530  54.202  1.00  0.00     0.138 A 
HETATM   29  F1  UNL     1      23.875  -1.533  55.121  1.00  0.00    -0.204 F 
HETATM   30  C15 UNL     1      24.986   0.224  53.869  1.00  0.00     0.074 A 
HETATM   31 CL1  UNL     1      26.501  -0.131  54.666  1.00  0.00    -0.081 Cl
HETATM   32  C16 UNL     1      24.859   1.231  52.911  1.00  0.00     0.056 A 
ENDBRANCH  23  25
ENDBRANCH   4  23
TORSDOF 7
ENDMDL
MODEL 5
REMARK VINA RESULT:      -7.8      2.331      2.594
REMARK  7 active torsions:
REMARK  status: ('A' for Active; 'I' for Inactive)
REMARK    1  A    between atoms: N1_2  and  C2_3 
REMARK    2  A    between atoms: C2_3  and  C3_4 
REMARK    3  A    between atoms: C4_5  and  C5_6 
REMARK       I    between atoms: C5_6  and  N2_8 
REMARK    4  A    between atoms: N2_8  and  C6_9 
REMARK    5  A    between atoms: C6_9  and  C7_10 
REMARK    6  A    between atoms: C10_13  and  N3_14 
REMARK    7  A    between atoms: N3_14  and  C11_15 
ROOT
HETATM    1  C7  UNL     1      22.623   3.865  50.979  1.00  0.00     0.141 C 
HETATM    2  C8  UNL     1      23.605   4.384  51.939  1.00  0.00     0.113 A 
HETATM    3  C9  UNL     1      24.037   3.076  52.606  1.00  0.00     0.087 C 
HETATM    4  C10 UNL     1      25.074   2.705  51.462  1.00  0.00     0.205 C 
HETATM    5  N4  UNL     1      24.842   3.835  50.452  1.00  0.00    -0.271 NA
HETATM    6  C17 UNL     1      24.568   5.056  50.924  1.00  0.00     0.149 A 
HETATM    7  C18 UNL     1      24.768   5.471  49.462  1.00  0.00     0.084 C 
HETATM    8  C19 UNL     1      23.545   4.876  48.736  1.00  0.00     0.173 C 
HETATM    9  O2  UNL     1      22.587   4.261  49.581  1.00  0.00    -0.372 OA
HETATM   10  N5  UNL     1      23.852   5.819  51.889  1.00  0.00    -0.378 N 
HETATM   11  H23 UNL     1      23.415   6.530  52.528  1.00  0.00     0.157 HD
ENDROOT
BRANCH   1  12
HETATM   12  C6  UNL     1      21.528   2.845  51.362  1.00  0.00     0.167 C 
BRANCH  12  13
HETATM   13  N2  UNL     1      20.300   3.354  50.721  1.00  0.00    -0.355 N 
HETATM   14  C5  UNL     1      19.190   3.452  51.630  1.00  0.00     0.240 C 
HETATM   15  O1  UNL     1      19.695   3.040  52.717  1.00  0.00    -0.269 OA
HETATM   16  H9  UNL     1      20.282   3.611  49.688  1.00  0.00     0.162 HD
BRANCH  14  17
HETATM   17  C4  UNL     1      17.915   3.944  51.129  1.00  0.00     0.072 C 
HETATM   18  C3  UNL     1      16.671   4.238  51.406  1.00  0.00     0.008 C 
BRANCH  18  19
HETATM   19  C2  UNL     1      15.751   4.226  52.560  1.00  0.00     0.296 C 
BRANCH  19  20
HETATM   20  N1  UNL     1      14.476   3.688  52.121  1.00  0.00     0.082 N 
HETATM   21  C1  UNL     1      13.474   3.913  53.121  1.00  0.00     0.307 C 
HETATM   22  H4  UNL     1      14.566   2.686  51.851  1.00  0.00     0.315 HD
ENDBRANCH  19  20
ENDBRANCH  18  19
ENDBRANCH  14  17
ENDBRANCH  12  13
ENDBRANCH   1  12
BRANCH   4  23
HETATM   23  N3  UNL     1      26.350   2.891  51.993  1.00  0.00    -0.367 N 
HETATM   24  H15 UNL     1      26.832   3.833  52.014  1.00  0.00     0.161 HD
BRANCH  23  25
HETATM   25  C11 UNL     1      27.218   1.929  52.576  1.00  0.00     0.031 A 
HETATM   26  C12 UNL     1      28.377   2.142  53.329  1.00  0.00     0.032 A 
HETATM   27  C13 UNL     1      29.105   1.083  53.820  1.00  0.00     0.046 A 
HETATM   28  C14 UNL     1      28.717  -0.219  53.586  1.00  0.00     0.138 A 
HETATM   29  F1  UNL     1      29.500  -1.200  54.112  1.00  0.00    -0.204 F 
HETATM   30  C15 UNL     1      27.565  -0.476  52.839  1.00  0.00     0.074 A 
HETATM   31 CL1  UNL     1      27.096  -2.136  52.559  1.00  0.00    -0.081 Cl
HETATM   32  C16 UNL     1      26.833   0.606  52.346  1.00  0.00     0.056 A 
ENDBRANCH  23  25
ENDBRANCH   4  23
TORSDOF 7
ENDMDL
MODEL 6
REMARK VINA RESULT:      -7.6      1.864      2.144
REMARK  7 active torsions:
REMARK  status: ('A' for Active; 'I' for Inactive)
REMARK    1  A    between atoms: N1_2  and  C2_3 
REMARK    2  A    between atoms: C2_3  and  C3_4 
REMARK    3  A    between atoms: C4_5  and  C5_6 
REMARK       I    between atoms: C5_6  and  N2_8 
REMARK    4  A    between atoms: N2_8  and  C6_9 
REMARK    5  A    between atoms: C6_9  and  C7_10 
REMARK    6  A    between atoms: C10_13  and  N3_14 
REMARK    7  A    between atoms: N3_14  and  C11_15 
ROOT
HETATM    1  C7  UNL     1      22.589   5.283  50.924  1.00  0.00     0.141 C 
HETATM    2  C8  UNL     1      23.873   5.459  51.615  1.00  0.00     0.113 A 
HETATM    3  C9  UNL     1      23.940   4.138  52.385  1.00  0.00     0.087 C 
HETATM    4  C10 UNL     1      24.505   3.317  51.149  1.00  0.00     0.205 C 
HETATM    5  N4  UNL     1      24.483   4.371  50.037  1.00  0.00    -0.271 NA
HETATM    6  C17 UNL     1      24.771   5.636  50.361  1.00  0.00     0.149 A 
HETATM    7  C18 UNL     1      24.790   5.834  48.842  1.00  0.00     0.084 C 
HETATM    8  C19 UNL     1      23.309   5.697  48.432  1.00  0.00     0.173 C 
HETATM    9  O2  UNL     1      22.400   5.558  49.510  1.00  0.00    -0.372 OA
HETATM   10  N5  UNL     1      24.600   6.684  51.310  1.00  0.00    -0.378 N 
HETATM   11  H23 UNL     1      24.594   7.553  51.901  1.00  0.00     0.157 HD
ENDROOT
BRANCH   1  12
HETATM   12  C6  UNL     1      21.311   4.788  51.636  1.00  0.00     0.167 C 
BRANCH  12  13
HETATM   13  N2  UNL     1      21.010   3.487  51.005  1.00  0.00    -0.355 N 
HETATM   14  C5  UNL     1      20.371   2.562  51.902  1.00  0.00     0.240 C 
HETATM   15  O1  UNL     1      20.294   3.235  52.973  1.00  0.00    -0.269 OA
HETATM   16  H9  UNL     1      21.258   3.296  49.987  1.00  0.00     0.162 HD
BRANCH  14  17
HETATM   17  C4  UNL     1      20.015   1.240  51.408  1.00  0.00     0.072 C 
HETATM   18  C3  UNL     1      19.503   0.069  51.687  1.00  0.00     0.008 C 
BRANCH  18  19
HETATM   19  C2  UNL     1      18.918  -0.648  52.837  1.00  0.00     0.296 C 
BRANCH  19  20
HETATM   20  N1  UNL     1      19.769  -0.427  53.993  1.00  0.00     0.082 N 
HETATM   21  C1  UNL     1      20.786  -1.435  54.058  1.00  0.00     0.307 C 
HETATM   22  H4  UNL     1      19.203  -0.359  54.865  1.00  0.00     0.315 HD
ENDBRANCH  19  20
ENDBRANCH  18  19
ENDBRANCH  14  17
ENDBRANCH  12  13
ENDBRANCH   1  12
BRANCH   4  23
HETATM   23  N3  UNL     1      25.845   3.042  51.422  1.00  0.00    -0.367 N 
HETATM   24  H15 UNL     1      26.642   3.585  50.987  1.00  0.00     0.161 HD
BRANCH  23  25
HETATM   25  C11 UNL     1      26.392   2.046  52.276  1.00  0.00     0.031 A 
HETATM   26  C12 UNL     1      25.907   0.761  52.540  1.00  0.00     0.032 A 
HETATM   27  C13 UNL     1      26.570  -0.080  53.404  1.00  0.00     0.046 A 
HETATM   28  C14 UNL     1      27.730   0.316  54.035  1.00  0.00     0.138 A 
HETATM   29  F1  UNL     1      28.314  -0.584  54.872  1.00  0.00    -0.204 F 
HETATM   30  C15 UNL     1      28.247   1.591  53.798  1.00  0.00     0.074 A 
HETATM   31 CL1  UNL     1      29.720   2.066  54.612  1.00  0.00    -0.081 Cl
HETATM   32  C16 UNL     1      27.568   2.437  52.919  1.00  0.00     0.056 A 
ENDBRANCH  23  25
ENDBRANCH   4  23
TORSDOF 7
ENDMDL
MODEL 7
REMARK VINA RESULT:      -7.5      2.920      6.979
REMARK  7 active torsions:
REMARK  status: ('A' for Active; 'I' for Inactive)
REMARK    1  A    between atoms: N1_2  and  C2_3 
REMARK    2  A    between atoms: C2_3  and  C3_4 
REMARK    3  A    between atoms: C4_5  and  C5_6 
REMARK       I    between atoms: C5_6  and  N2_8 
REMARK    4  A    between atoms: N2_8  and  C6_9 
REMARK    5  A    between atoms: C6_9  and  C7_10 
REMARK    6  A    between atoms: C10_13  and  N3_14 
REMARK    7  A    between atoms: N3_14  and  C11_15 
ROOT
HETATM    1  C7  UNL     1      23.220   3.917  50.074  1.00  0.00     0.141 C 
HETATM    2  C8  UNL     1      23.343   2.490  50.396  1.00  0.00     0.113 A 
HETATM    3  C9  UNL     1      24.813   2.443  50.821  1.00  0.00     0.087 C 
HETATM    4  C10 UNL     1      24.518   2.943  52.298  1.00  0.00     0.205 C 
HETATM    5  N4  UNL     1      23.013   3.227  52.238  1.00  0.00    -0.271 NA
HETATM    6  C17 UNL     1      22.249   2.420  51.494  1.00  0.00     0.149 A 
HETATM    7  C18 UNL     1      21.101   3.170  52.179  1.00  0.00     0.084 C 
HETATM    8  C19 UNL     1      21.165   4.584  51.568  1.00  0.00     0.173 C 
HETATM    9  O2  UNL     1      22.117   4.746  50.531  1.00  0.00    -0.372 OA
HETATM   10  N5  UNL     1      22.126   1.699  50.273  1.00  0.00    -0.378 N 
HETATM   11  H23 UNL     1      21.875   1.102  49.445  1.00  0.00     0.157 HD
ENDROOT
BRANCH   1  12
HETATM   12  C6  UNL     1      24.253   4.679  49.214  1.00  0.00     0.167 C 
BRANCH  12  13
HETATM   13  N2  UNL     1      24.501   5.935  49.950  1.00  0.00    -0.355 N 
HETATM   14  C5  UNL     1      25.691   6.615  49.515  1.00  0.00     0.240 C 
HETATM   15  O1  UNL     1      26.124   5.846  48.606  1.00  0.00    -0.269 OA
HETATM   16  H9  UNL     1      23.840   6.265  50.716  1.00  0.00     0.162 HD
BRANCH  14  17
HETATM   17  C4  UNL     1      26.054   7.871  50.156  1.00  0.00     0.072 C 
HETATM   18  C3  UNL     1      26.924   8.843  50.242  1.00  0.00     0.008 C 
BRANCH  18  19
HETATM   19  C2  UNL     1      28.206   9.251  49.636  1.00  0.00     0.296 C 
BRANCH  19  20
HETATM   20  N1  UNL     1      28.960   8.051  49.316  1.00  0.00     0.082 N 
HETATM   21  C1  UNL     1      29.576   8.184  48.028  1.00  0.00     0.307 C 
HETATM   22  H4  UNL     1      28.362   7.202  49.398  1.00  0.00     0.315 HD
ENDBRANCH  19  20
ENDBRANCH  18  19
ENDBRANCH  14  17
ENDBRANCH  12  13
ENDBRANCH   1  12
BRANCH   4  23
HETATM   23  N3  UNL     1      24.691   1.844  53.141  1.00  0.00    -0.367 N 
HETATM   24  H15 UNL     1      23.974   1.559  53.865  1.00  0.00     0.161 HD
BRANCH  23  25
HETATM   25  C11 UNL     1      25.785   0.940  53.210  1.00  0.00     0.031 A 
HETATM   26  C12 UNL     1      25.835  -0.401  52.817  1.00  0.00     0.032 A 
HETATM   27  C13 UNL     1      26.990  -1.136  52.958  1.00  0.00     0.046 A 
HETATM   28  C14 UNL     1      28.131  -0.575  53.490  1.00  0.00     0.138 A 
HETATM   29  F1  UNL     1      29.223  -1.380  53.591  1.00  0.00    -0.204 F 
HETATM   30  C15 UNL     1      28.124   0.761  53.895  1.00  0.00     0.074 A 
HETATM   31 CL1  UNL     1      29.586   1.446  54.565  1.00  0.00    -0.081 Cl
HETATM   32  C16 UNL     1      26.947   1.499  53.747  1.00  0.00     0.056 A 
ENDBRANCH  23  25
ENDBRANCH   4  23
TORSDOF 7
ENDMDL
MODEL 8
REMARK VINA RESULT:      -7.4      1.216      1.556
REMARK  7 active torsions:
REMARK  status: ('A' for Active; 'I' for Inactive)
REMARK    1  A    between atoms: N1_2  and  C2_3 
REMARK    2  A    between atoms: C2_3  and  C3_4 
REMARK    3  A    between atoms: C4_5  and  C5_6 
REMARK       I    between atoms: C5_6  and  N2_8 
REMARK    4  A    between atoms: N2_8  and  C6_9 
REMARK    5  A    between atoms: C6_9  and  C7_10 
REMARK    6  A    between atoms: C10_13  and  N3_14 
REMARK    7  A    between atoms: N3_14  and  C11_15 
ROOT
HETATM    1  C7  UNL     1      22.580   3.866  51.297  1.00  0.00     0.141 C 
HETATM    2  C8  UNL     1      23.856   4.222  51.928  1.00  0.00     0.113 A 
HETATM    3  C9  UNL     1      23.869   3.215  53.081  1.00  0.00     0.087 C 
HETATM    4  C10 UNL     1      24.428   2.029  52.186  1.00  0.00     0.205 C 
HETATM    5  N4  UNL     1      24.457   2.672  50.796  1.00  0.00    -0.271 NA
HETATM    6  C17 UNL     1      24.781   3.967  50.707  1.00  0.00     0.149 A 
HETATM    7  C18 UNL     1      24.830   3.669  49.204  1.00  0.00     0.084 C 
HETATM    8  C19 UNL     1      23.353   3.444  48.822  1.00  0.00     0.173 C 
HETATM    9  O2  UNL     1      22.422   3.679  49.864  1.00  0.00    -0.372 OA
HETATM   10  N5  UNL     1      24.628   5.266  51.267  1.00  0.00    -0.378 N 
HETATM   11  H23 UNL     1      24.639   6.279  51.550  1.00  0.00     0.157 HD
ENDROOT
BRANCH   1  12
HETATM   12  C6  UNL     1      21.275   3.656  52.097  1.00  0.00     0.167 C 
BRANCH  12  13
HETATM   13  N2  UNL     1      20.923   2.239  51.876  1.00  0.00    -0.355 N 
HETATM   14  C5  UNL     1      19.510   1.990  51.969  1.00  0.00     0.240 C 
HETATM   15  O1  UNL     1      19.049   3.142  52.225  1.00  0.00    -0.269 OA
HETATM   16  H9  UNL     1      21.672   1.510  51.671  1.00  0.00     0.162 HD
BRANCH  14  17
HETATM   17  C4  UNL     1      19.024   0.632  51.770  1.00  0.00     0.072 C 
HETATM   18  C3  UNL     1      18.013  -0.192  51.865  1.00  0.00     0.008 C 
BRANCH  18  19
HETATM   19  C2  UNL     1      16.601  -0.183  52.295  1.00  0.00     0.296 C 
BRANCH  19  20
HETATM   20  N1  UNL     1      16.303  -1.464  52.908  1.00  0.00     0.082 N 
HETATM   21  C1  UNL     1      15.088  -2.000  52.369  1.00  0.00     0.307 C 
HETATM   22  H4  UNL     1      16.289  -1.386  53.948  1.00  0.00     0.315 HD
ENDBRANCH  19  20
ENDBRANCH  18  19
ENDBRANCH  14  17
ENDBRANCH  12  13
ENDBRANCH   1  12
BRANCH   4  23
HETATM   23  N3  UNL     1      25.754   1.822  52.567  1.00  0.00    -0.367 N 
HETATM   24  H15 UNL     1      26.411   2.614  52.812  1.00  0.00     0.161 HD
BRANCH  23  25
HETATM   25  C11 UNL     1      26.461   0.595  52.695  1.00  0.00     0.031 A 
HETATM   26  C12 UNL     1      25.986  -0.708  52.520  1.00  0.00     0.032 A 
HETATM   27  C13 UNL     1      26.818  -1.791  52.687  1.00  0.00     0.046 A 
HETATM   28  C14 UNL     1      28.142  -1.627  53.032  1.00  0.00     0.138 A 
HETATM   29  F1  UNL     1      28.887  -2.756  53.175  1.00  0.00    -0.204 F 
HETATM   30  C15 UNL     1      28.656  -0.342  53.215  1.00  0.00     0.074 A 
HETATM   31 CL1  UNL     1      30.340  -0.163  53.651  1.00  0.00    -0.081 Cl
HETATM   32  C16 UNL     1      27.805   0.752  53.043  1.00  0.00     0.056 A 
ENDBRANCH  23  25
ENDBRANCH   4  23
TORSDOF 7
ENDMDL
MODEL 9
REMARK VINA RESULT:      -7.3      2.830      3.880
REMARK  7 active torsions:
REMARK  status: ('A' for Active; 'I' for Inactive)
REMARK    1  A    between atoms: N1_2  and  C2_3 
REMARK    2  A    between atoms: C2_3  and  C3_4 
REMARK    3  A    between atoms: C4_5  and  C5_6 
REMARK       I    between atoms: C5_6  and  N2_8 
REMARK    4  A    between atoms: N2_8  and  C6_9 
REMARK    5  A    between atoms: C6_9  and  C7_10 
REMARK    6  A    between atoms: C10_13  and  N3_14 
REMARK    7  A    between atoms: N3_14  and  C11_15 
ROOT
HETATM    1  C7  UNL     1      20.242   0.688  51.692  1.00  0.00     0.141 C 
HETATM    2  C8  UNL     1      20.938   1.605  52.603  1.00  0.00     0.113 A 
HETATM    3  C9  UNL     1      21.453   0.604  53.640  1.00  0.00     0.087 C 
HETATM    4  C10 UNL     1      22.723   0.196  52.780  1.00  0.00     0.205 C 
HETATM    5  N4  UNL     1      22.493   0.988  51.488  1.00  0.00    -0.271 NA
HETATM    6  C17 UNL     1      21.943   2.203  51.582  1.00  0.00     0.149 A 
HETATM    7  C18 UNL     1      22.330   2.298  50.102  1.00  0.00     0.084 C 
HETATM    8  C19 UNL     1      21.370   1.313  49.404  1.00  0.00     0.173 C 
HETATM    9  O2  UNL     1      20.391   0.732  50.248  1.00  0.00    -0.372 OA
HETATM   10  N5  UNL     1      20.952   3.008  52.211  1.00  0.00    -0.378 N 
HETATM   11  H23 UNL     1      20.298   3.744  52.578  1.00  0.00     0.157 HD
ENDROOT
BRANCH   1  12
HETATM   12  C6  UNL     1      19.278  -0.415  52.183  1.00  0.00     0.167 C 
BRANCH  12  13
HETATM   13  N2  UNL     1      17.950   0.229  52.203  1.00  0.00    -0.355 N 
HETATM   14  C5  UNL     1      16.906  -0.648  52.662  1.00  0.00     0.240 C 
HETATM   15  O1  UNL     1      17.540  -1.721  52.894  1.00  0.00    -0.269 OA
HETATM   16  H9  UNL     1      17.823   1.242  51.901  1.00  0.00     0.162 HD
BRANCH  14  17
HETATM   17  C4  UNL     1      15.544  -0.139  52.733  1.00  0.00     0.072 C 
HETATM   18  C3  UNL     1      14.766   0.911  52.695  1.00  0.00     0.008 C 
BRANCH  18  19
HETATM   19  C2  UNL     1      14.872   2.374  52.534  1.00  0.00     0.296 C 
BRANCH  19  20
HETATM   20  N1  UNL     1      14.077   3.006  53.571  1.00  0.00     0.082 N 
HETATM   21  C1  UNL     1      13.389   4.146  53.040  1.00  0.00     0.307 C 
HETATM   22  H4  UNL     1      14.661   3.232  54.404  1.00  0.00     0.315 HD
ENDBRANCH  19  20
ENDBRANCH  18  19
ENDBRANCH  14  17
ENDBRANCH  12  13
ENDBRANCH   1  12
BRANCH   4  23
HETATM   23  N3  UNL     1      23.837   0.756  53.407  1.00  0.00    -0.367 N 
HETATM   24  H15 UNL     1      23.770   1.584  54.063  1.00  0.00     0.161 HD
BRANCH  23  25
HETATM   25  C11 UNL     1      25.200   0.369  53.308  1.00  0.00     0.031 A 
HETATM   26  C12 UNL     1      25.732  -0.902  53.067  1.00  0.00     0.032 A 
HETATM   27  C13 UNL     1      27.092  -1.098  53.004  1.00  0.00     0.046 A 
HETATM   28  C14 UNL     1      27.972  -0.051  53.177  1.00  0.00     0.138 A 
HETATM   29  F1  UNL     1      29.299  -0.343  53.098  1.00  0.00    -0.204 F 
HETATM   30  C15 UNL     1      27.483   1.233  53.420  1.00  0.00     0.074 A 
HETATM   31 CL1  UNL     1      28.622   2.542  53.634  1.00  0.00    -0.081 Cl
HETATM   32  C16 UNL     1      26.101   1.423  53.481  1.00  0.00     0.056 A 
ENDBRANCH  23  25
ENDBRANCH   4  23
TORSDOF 7
ENDMDL
