MODEL 1
REMARK VINA RESULT:      -7.5      0.000      0.000
REMARK  0 active torsions:
REMARK  status: ('A' for Active; 'I' for Inactive)
ROOT
HETATM    1  C1  UNL     1      22.606  -1.143  52.756  1.00  0.00     0.068 C 
HETATM    2  C2  UNL     1      23.583  -0.042  53.120  1.00  0.00     0.008 C 
HETATM    3  C3  UNL     1      24.933  -0.436  53.190  1.00  0.00     0.026 C 
HETATM    4  C4  UNL     1      26.151   0.202  52.505  1.00  0.00     0.026 C 
HETATM    5  C5  UNL     1      26.160   1.112  51.444  1.00  0.00     0.142 C 
HETATM    6  O1  UNL     1      25.230   2.242  51.032  1.00  0.00    -0.325 OA
HETATM    7  C6  UNL     1      24.018   2.405  51.702  1.00  0.00     0.076 C 
HETATM    8  C7  UNL     1      22.848   2.337  51.120  1.00  0.00    -0.013 C 
HETATM    9  C8  UNL     1      21.602   2.357  51.914  1.00  0.00     0.097 C 
HETATM   10  C9  UNL     1      21.589   1.331  52.963  1.00  0.00     0.020 C 
HETATM   11  C10 UNL     1      21.221   0.288  53.739  1.00  0.00    -0.037 C 
HETATM   12  C11 UNL     1      22.002  -0.193  54.947  1.00  0.00     0.048 C 
HETATM   13  C12 UNL     1      19.997  -0.101  52.916  1.00  0.00     0.203 C 
HETATM   14  O2  UNL     1      19.932   0.717  51.852  1.00  0.00    -0.385 OA
HETATM   15  C13 UNL     1      19.206   0.434  50.759  1.00  0.00     0.187 C 
HETATM   16  C14 UNL     1      19.264   1.467  49.667  1.00  0.00     0.143 C 
HETATM   17  N1  UNL     1      20.476   1.851  49.121  1.00  0.00    -0.406 N 
HETATM   18  C15 UNL     1      20.506   3.080  48.397  1.00  0.00     0.143 C 
HETATM   19  C16 UNL     1      21.629   3.967  48.850  1.00  0.00     0.188 C 
HETATM   20  O3  UNL     1      22.845   3.321  48.927  1.00  0.00    -0.378 OA
HETATM   21  C17 UNL     1      22.852   2.163  49.650  1.00  0.00     0.170 C 
HETATM   22  C18 UNL     1      21.693   1.204  49.260  1.00  0.00     0.153 C 
HETATM   23  N2  UNL     1      23.014   1.336  53.200  1.00  0.00    -0.348 N 
HETATM   24  C19 UNL     1      23.826   2.658  53.229  1.00  0.00     0.194 C 
ENDROOT
TORSDOF 0
ENDMDL
MODEL 2
REMARK VINA RESULT:      -7.5      1.977      3.673
REMARK  0 active torsions:
REMARK  status: ('A' for Active; 'I' for Inactive)
ROOT
HETATM    1  C1  UNL     1      26.013   1.107  51.445  1.00  0.00     0.068 C 
HETATM    2  C2  UNL     1      25.759   2.601  51.415  1.00  0.00     0.008 C 
HETATM    3  C3  UNL     1      26.402   3.299  50.374  1.00  0.00     0.026 C 
HETATM    4  C4  UNL     1      25.790   4.273  49.356  1.00  0.00     0.026 C 
HETATM    5  C5  UNL     1      24.440   4.456  49.048  1.00  0.00     0.142 C 
HETATM    6  O1  UNL     1      23.163   4.380  49.870  1.00  0.00    -0.325 OA
HETATM    7  C6  UNL     1      23.224   3.909  51.181  1.00  0.00     0.076 C 
HETATM    8  C7  UNL     1      22.580   2.851  51.606  1.00  0.00    -0.013 C 
HETATM    9  C8  UNL     1      22.817   2.312  52.961  1.00  0.00     0.097 C 
HETATM   10  C9  UNL     1      24.236   2.050  53.221  1.00  0.00     0.020 C 
HETATM   11  C10 UNL     1      25.392   1.433  53.552  1.00  0.00    -0.037 C 
HETATM   12  C11 UNL     1      26.747   2.114  53.570  1.00  0.00     0.048 C 
HETATM   13  C12 UNL     1      24.785   0.047  53.745  1.00  0.00     0.203 C 
HETATM   14  O2  UNL     1      23.476   0.120  53.450  1.00  0.00    -0.385 OA
HETATM   15  C13 UNL     1      22.730  -0.961  53.173  1.00  0.00     0.187 C 
HETATM   16  C14 UNL     1      21.286  -0.680  52.857  1.00  0.00     0.143 C 
HETATM   17  N1  UNL     1      20.942   0.183  51.833  1.00  0.00    -0.406 N 
HETATM   18  C15 UNL     1      19.615   0.706  51.838  1.00  0.00     0.143 C 
HETATM   19  C16 UNL     1      19.603   2.199  51.679  1.00  0.00     0.188 C 
HETATM   20  O3  UNL     1      20.389   2.648  50.639  1.00  0.00    -0.378 OA
HETATM   21  C17 UNL     1      21.676   2.195  50.635  1.00  0.00     0.170 C 
HETATM   22  C18 UNL     1      21.772   0.656  50.829  1.00  0.00     0.153 C 
HETATM   23  N2  UNL     1      24.744   3.112  52.384  1.00  0.00    -0.348 N 
HETATM   24  C19 UNL     1      24.068   4.508  52.346  1.00  0.00     0.194 C 
ENDROOT
TORSDOF 0
ENDMDL
MODEL 3
REMARK VINA RESULT:      -7.2      9.963     13.022
REMARK  0 active torsions:
REMARK  status: ('A' for Active; 'I' for Inactive)
ROOT
HETATM    1  C1  UNL     1      30.542   7.894  45.011  1.00  0.00     0.068 C 
HETATM    2  C2  UNL     1      30.308   7.876  46.508  1.00  0.00     0.008 C 
HETATM    3  C3  UNL     1      28.958   7.821  46.905  1.00  0.00     0.026 C 
HETATM    4  C4  UNL     1      28.289   6.844  47.885  1.00  0.00     0.026 C 
HETATM    5  C5  UNL     1      28.792   5.633  48.366  1.00  0.00     0.142 C 
HETATM    6  O1  UNL     1      30.192   5.145  48.703  1.00  0.00    -0.325 OA
HETATM    7  C6  UNL     1      31.289   5.943  48.377  1.00  0.00     0.076 C 
HETATM    8  C7  UNL     1      32.247   5.570  47.568  1.00  0.00    -0.013 C 
HETATM    9  C8  UNL     1      33.291   6.522  47.138  1.00  0.00     0.097 C 
HETATM   10  C9  UNL     1      32.730   7.746  46.557  1.00  0.00     0.020 C 
HETATM   11  C10 UNL     1      32.462   8.764  45.709  1.00  0.00    -0.037 C 
HETATM   12  C11 UNL     1      31.524   9.913  46.026  1.00  0.00     0.048 C 
HETATM   13  C12 UNL     1      33.298   8.232  44.549  1.00  0.00     0.203 C 
HETATM   14  O2  UNL     1      33.813   7.046  44.917  1.00  0.00    -0.385 OA
HETATM   15  C13 UNL     1      34.291   6.155  44.034  1.00  0.00     0.187 C 
HETATM   16  C14 UNL     1      34.819   4.880  44.633  1.00  0.00     0.143 C 
HETATM   17  N1  UNL     1      34.017   4.092  45.438  1.00  0.00    -0.406 N 
HETATM   18  C15 UNL     1      34.668   3.137  46.275  1.00  0.00     0.143 C 
HETATM   19  C16 UNL     1      34.193   3.227  47.696  1.00  0.00     0.188 C 
HETATM   20  O3  UNL     1      32.820   3.249  47.818  1.00  0.00    -0.378 OA
HETATM   21  C17 UNL     1      32.176   4.182  47.058  1.00  0.00     0.170 C 
HETATM   22  C18 UNL     1      32.640   4.174  45.575  1.00  0.00     0.153 C 
HETATM   23  N2  UNL     1      31.529   7.760  47.360  1.00  0.00    -0.348 N 
HETATM   24  C19 UNL     1      31.558   7.398  48.869  1.00  0.00     0.194 C 
ENDROOT
TORSDOF 0
ENDMDL
MODEL 4
REMARK VINA RESULT:      -7.2      2.027      4.818
REMARK  0 active torsions:
REMARK  status: ('A' for Active; 'I' for Inactive)
ROOT
HETATM    1  C1  UNL     1      19.092   3.537  51.049  1.00  0.00     0.068 C 
HETATM    2  C2  UNL     1      20.535   3.618  50.591  1.00  0.00     0.008 C 
HETATM    3  C3  UNL     1      21.146   4.877  50.747  1.00  0.00     0.026 C 
HETATM    4  C4  UNL     1      22.482   5.213  51.428  1.00  0.00     0.026 C 
HETATM    5  C5  UNL     1      23.233   4.408  52.288  1.00  0.00     0.142 C 
HETATM    6  O1  UNL     1      23.471   2.908  52.370  1.00  0.00    -0.325 OA
HETATM    7  C6  UNL     1      22.732   2.055  51.552  1.00  0.00     0.076 C 
HETATM    8  C7  UNL     1      21.936   1.119  52.003  1.00  0.00    -0.013 C 
HETATM    9  C8  UNL     1      21.060   0.360  51.088  1.00  0.00     0.097 C 
HETATM   10  C9  UNL     1      20.221   1.234  50.261  1.00  0.00     0.020 C 
HETATM   11  C10 UNL     1      19.151   1.803  49.663  1.00  0.00    -0.037 C 
HETATM   12  C11 UNL     1      19.237   2.941  48.663  1.00  0.00     0.048 C 
HETATM   13  C12 UNL     1      18.099   0.984  50.405  1.00  0.00     0.203 C 
HETATM   14  O2  UNL     1      18.733   0.184  51.278  1.00  0.00    -0.385 OA
HETATM   15  C13 UNL     1      18.112  -0.395  52.319  1.00  0.00     0.187 C 
HETATM   16  C14 UNL     1      18.990  -1.250  53.192  1.00  0.00     0.143 C 
HETATM   17  N1  UNL     1      20.124  -0.726  53.784  1.00  0.00    -0.406 N 
HETATM   18  C15 UNL     1      21.101  -1.651  54.258  1.00  0.00     0.143 C 
HETATM   19  C16 UNL     1      22.478  -1.306  53.770  1.00  0.00     0.188 C 
HETATM   20  O3  UNL     1      22.812   0.019  53.953  1.00  0.00    -0.378 OA
HETATM   21  C17 UNL     1      21.912   0.925  53.471  1.00  0.00     0.170 C 
HETATM   22  C18 UNL     1      20.454   0.615  53.907  1.00  0.00     0.153 C 
HETATM   23  N2  UNL     1      21.165   2.326  50.185  1.00  0.00    -0.348 N 
HETATM   24  C19 UNL     1      22.684   2.072  49.993  1.00  0.00     0.194 C 
ENDROOT
TORSDOF 0
ENDMDL
MODEL 5
REMARK VINA RESULT:      -7.2      1.823      4.806
REMARK  0 active torsions:
REMARK  status: ('A' for Active; 'I' for Inactive)
ROOT
HETATM    1  C1  UNL     1      20.516   3.386  52.334  1.00  0.00     0.068 C 
HETATM    2  C2  UNL     1      21.157   4.028  51.120  1.00  0.00     0.008 C 
HETATM    3  C3  UNL     1      21.073   5.433  51.067  1.00  0.00     0.026 C 
HETATM    4  C4  UNL     1      22.203   6.451  50.850  1.00  0.00     0.026 C 
HETATM    5  C5  UNL     1      23.580   6.238  50.951  1.00  0.00     0.142 C 
HETATM    6  O1  UNL     1      24.477   5.049  50.644  1.00  0.00    -0.325 OA
HETATM    7  C6  UNL     1      23.897   3.825  50.316  1.00  0.00     0.076 C 
HETATM    8  C7  UNL     1      24.072   2.726  51.005  1.00  0.00    -0.013 C 
HETATM    9  C8  UNL     1      23.300   1.505  50.699  1.00  0.00     0.097 C 
HETATM   10  C9  UNL     1      21.853   1.744  50.686  1.00  0.00     0.020 C 
HETATM   11  C10 UNL     1      20.530   1.652  50.947  1.00  0.00    -0.037 C 
HETATM   12  C11 UNL     1      19.468   2.509  50.284  1.00  0.00     0.048 C 
HETATM   13  C12 UNL     1      20.654   0.591  52.036  1.00  0.00     0.203 C 
HETATM   14  O2  UNL     1      21.961   0.333  52.219  1.00  0.00    -0.385 OA
HETATM   15  C13 UNL     1      22.437  -0.271  53.320  1.00  0.00     0.187 C 
HETATM   16  C14 UNL     1      23.928  -0.468  53.348  1.00  0.00     0.143 C 
HETATM   17  N1  UNL     1      24.785   0.609  53.211  1.00  0.00    -0.406 N 
HETATM   18  C15 UNL     1      26.138   0.325  52.855  1.00  0.00     0.143 C 
HETATM   19  C16 UNL     1      26.597   1.163  51.697  1.00  0.00     0.188 C 
HETATM   20  O3  UNL     1      26.314   2.505  51.842  1.00  0.00    -0.378 OA
HETATM   21  C17 UNL     1      25.018   2.806  52.142  1.00  0.00     0.170 C 
HETATM   22  C18 UNL     1      24.458   1.951  53.314  1.00  0.00     0.153 C 
HETATM   23  N2  UNL     1      21.928   3.112  50.226  1.00  0.00    -0.348 N 
HETATM   24  C19 UNL     1      22.931   3.543  49.124  1.00  0.00     0.194 C 
ENDROOT
TORSDOF 0
ENDMDL
MODEL 6
REMARK VINA RESULT:      -7.1      1.763      5.458
REMARK  0 active torsions:
REMARK  status: ('A' for Active; 'I' for Inactive)
ROOT
HETATM    1  C1  UNL     1      23.962   2.847  49.196  1.00  0.00     0.068 C 
HETATM    2  C2  UNL     1      22.921   3.852  49.651  1.00  0.00     0.008 C 
HETATM    3  C3  UNL     1      22.033   4.292  48.651  1.00  0.00     0.026 C 
HETATM    4  C4  UNL     1      20.497   4.322  48.681  1.00  0.00     0.026 C 
HETATM    5  C5  UNL     1      19.644   3.659  49.567  1.00  0.00     0.142 C 
HETATM    6  O1  UNL     1      19.751   3.289  51.038  1.00  0.00    -0.325 OA
HETATM    7  C6  UNL     1      20.960   3.484  51.704  1.00  0.00     0.076 C 
HETATM    8  C7  UNL     1      21.649   2.521  52.262  1.00  0.00    -0.013 C 
HETATM    9  C8  UNL     1      22.999   2.771  52.807  1.00  0.00     0.097 C 
HETATM   10  C9  UNL     1      23.896   3.388  51.824  1.00  0.00     0.020 C 
HETATM   11  C10 UNL     1      24.956   3.630  51.021  1.00  0.00    -0.037 C 
HETATM   12  C11 UNL     1      25.081   4.840  50.115  1.00  0.00     0.048 C 
HETATM   13  C12 UNL     1      25.703   2.341  51.348  1.00  0.00     0.203 C 
HETATM   14  O2  UNL     1      24.942   1.620  52.189  1.00  0.00    -0.385 OA
HETATM   15  C13 UNL     1      25.126   0.306  52.393  1.00  0.00     0.187 C 
HETATM   16  C14 UNL     1      24.170  -0.331  53.365  1.00  0.00     0.143 C 
HETATM   17  N1  UNL     1      22.804  -0.255  53.165  1.00  0.00    -0.406 N 
HETATM   18  C15 UNL     1      21.964  -0.520  54.287  1.00  0.00     0.143 C 
HETATM   19  C16 UNL     1      20.932   0.553  54.477  1.00  0.00     0.188 C 
HETATM   20  O3  UNL     1      20.254   0.876  53.321  1.00  0.00    -0.378 OA
HETATM   21  C17 UNL     1      21.035   1.174  52.243  1.00  0.00     0.170 C 
HETATM   22  C18 UNL     1      22.153   0.122  52.001  1.00  0.00     0.153 C 
HETATM   23  N2  UNL     1      22.870   4.122  51.119  1.00  0.00    -0.348 N 
HETATM   24  C19 UNL     1      21.719   4.835  51.876  1.00  0.00     0.194 C 
ENDROOT
TORSDOF 0
ENDMDL
MODEL 7
REMARK VINA RESULT:      -7.0      2.450      5.627
REMARK  0 active torsions:
REMARK  status: ('A' for Active; 'I' for Inactive)
ROOT
HETATM    1  C1  UNL     1      20.814   4.820  48.538  1.00  0.00     0.068 C 
HETATM    2  C2  UNL     1      22.140   5.555  48.571  1.00  0.00     0.008 C 
HETATM    3  C3  UNL     1      22.048   6.956  48.676  1.00  0.00     0.026 C 
HETATM    4  C4  UNL     1      22.745   7.887  49.680  1.00  0.00     0.026 C 
HETATM    5  C5  UNL     1      23.379   7.540  50.875  1.00  0.00     0.142 C 
HETATM    6  O1  UNL     1      24.181   6.325  51.315  1.00  0.00    -0.325 OA
HETATM    7  C6  UNL     1      24.246   5.212  50.478  1.00  0.00     0.076 C 
HETATM    8  C7  UNL     1      23.820   4.021  50.814  1.00  0.00    -0.013 C 
HETATM    9  C8  UNL     1      23.768   2.926  49.824  1.00  0.00     0.097 C 
HETATM   10  C9  UNL     1      23.021   3.295  48.617  1.00  0.00     0.020 C 
HETATM   11  C10 UNL     1      22.125   3.289  47.604  1.00  0.00    -0.037 C 
HETATM   12  C11 UNL     1      22.091   4.318  46.491  1.00  0.00     0.048 C 
HETATM   13  C12 UNL     1      21.327   2.088  48.102  1.00  0.00     0.203 C 
HETATM   14  O2  UNL     1      21.858   1.690  49.271  1.00  0.00    -0.385 OA
HETATM   15  C13 UNL     1      21.201   0.906  50.140  1.00  0.00     0.187 C 
HETATM   16  C14 UNL     1      21.954   0.573  51.399  1.00  0.00     0.143 C 
HETATM   17  N1  UNL     1      22.440   1.576  52.218  1.00  0.00    -0.406 N 
HETATM   18  C15 UNL     1      23.457   1.220  53.154  1.00  0.00     0.143 C 
HETATM   19  C16 UNL     1      24.627   2.158  53.088  1.00  0.00     0.188 C 
HETATM   20  O3  UNL     1      24.268   3.489  53.114  1.00  0.00    -0.378 OA
HETATM   21  C17 UNL     1      23.326   3.864  52.201  1.00  0.00     0.170 C 
HETATM   22  C18 UNL     1      22.094   2.918  52.186  1.00  0.00     0.153 C 
HETATM   23  N2  UNL     1      23.361   4.699  48.649  1.00  0.00    -0.348 N 
HETATM   24  C19 UNL     1      24.790   5.178  49.017  1.00  0.00     0.194 C 
ENDROOT
TORSDOF 0
ENDMDL
MODEL 8
REMARK VINA RESULT:      -6.9      2.021      4.369
REMARK  0 active torsions:
REMARK  status: ('A' for Active; 'I' for Inactive)
ROOT
HETATM    1  C1  UNL     1      24.734   1.959  53.486  1.00  0.00     0.068 C 
HETATM    2  C2  UNL     1      23.724   0.909  53.066  1.00  0.00     0.008 C 
HETATM    3  C3  UNL     1      23.267   0.067  54.098  1.00  0.00     0.026 C 
HETATM    4  C4  UNL     1      21.819  -0.262  54.492  1.00  0.00     0.026 C 
HETATM    5  C5  UNL     1      20.654   0.413  54.120  1.00  0.00     0.142 C 
HETATM    6  O1  UNL     1      20.233   1.148  52.857  1.00  0.00    -0.325 OA
HETATM    7  C6  UNL     1      21.173   1.370  51.852  1.00  0.00     0.076 C 
HETATM    8  C7  UNL     1      21.528   2.558  51.434  1.00  0.00    -0.013 C 
HETATM    9  C8  UNL     1      22.646   2.727  50.484  1.00  0.00     0.097 C 
HETATM   10  C9  UNL     1      23.878   2.079  50.946  1.00  0.00     0.020 C 
HETATM   11  C10 UNL     1      25.162   1.865  51.309  1.00  0.00    -0.037 C 
HETATM   12  C11 UNL     1      25.713   0.520  51.742  1.00  0.00     0.048 C 
HETATM   13  C12 UNL     1      25.610   3.318  51.183  1.00  0.00     0.203 C 
HETATM   14  O2  UNL     1      24.539   4.056  50.842  1.00  0.00    -0.385 OA
HETATM   15  C13 UNL     1      24.495   5.389  50.994  1.00  0.00     0.187 C 
HETATM   16  C14 UNL     1      23.209   6.041  50.565  1.00  0.00     0.143 C 
HETATM   17  N1  UNL     1      22.000   5.644  51.108  1.00  0.00    -0.406 N 
HETATM   18  C15 UNL     1      20.816   6.004  50.398  1.00  0.00     0.143 C 
HETATM   19  C16 UNL     1      19.908   4.825  50.197  1.00  0.00     0.188 C 
HETATM   20  O3  UNL     1      19.685   4.099  51.347  1.00  0.00    -0.378 OA
HETATM   21  C17 UNL     1      20.804   3.707  52.023  1.00  0.00     0.170 C 
HETATM   22  C18 UNL     1      21.812   4.870  52.242  1.00  0.00     0.153 C 
HETATM   23  N2  UNL     1      23.228   1.004  51.660  1.00  0.00    -0.348 N 
HETATM   24  C19 UNL     1      21.983   0.283  51.081  1.00  0.00     0.194 C 
ENDROOT
TORSDOF 0
ENDMDL
MODEL 9
REMARK VINA RESULT:      -6.7      2.301      4.261
REMARK  0 active torsions:
REMARK  status: ('A' for Active; 'I' for Inactive)
ROOT
HETATM    1  C1  UNL     1      21.438   0.980  49.188  1.00  0.00     0.068 C 
HETATM    2  C2  UNL     1      21.282   1.302  50.661  1.00  0.00     0.008 C 
HETATM    3  C3  UNL     1      21.770   0.321  51.546  1.00  0.00     0.026 C 
HETATM    4  C4  UNL     1      22.739   0.495  52.725  1.00  0.00     0.026 C 
HETATM    5  C5  UNL     1      23.570   1.584  52.999  1.00  0.00     0.142 C 
HETATM    6  O1  UNL     1      23.431   3.083  52.782  1.00  0.00    -0.325 OA
HETATM    7  C6  UNL     1      22.350   3.568  52.046  1.00  0.00     0.076 C 
HETATM    8  C7  UNL     1      22.471   4.254  50.938  1.00  0.00    -0.013 C 
HETATM    9  C8  UNL     1      21.288   4.595  50.123  1.00  0.00     0.097 C 
HETATM   10  C9  UNL     1      20.484   3.417  49.780  1.00  0.00     0.020 C 
HETATM   11  C10 UNL     1      19.804   2.481  49.081  1.00  0.00    -0.037 C 
HETATM   12  C11 UNL     1      19.055   1.323  49.712  1.00  0.00     0.048 C 
HETATM   13  C12 UNL     1      20.178   3.008  47.699  1.00  0.00     0.203 C 
HETATM   14  O2  UNL     1      21.001   4.058  47.862  1.00  0.00    -0.385 OA
HETATM   15  C13 UNL     1      21.787   4.528  46.880  1.00  0.00     0.187 C 
HETATM   16  C14 UNL     1      22.646   5.704  47.254  1.00  0.00     0.143 C 
HETATM   17  N1  UNL     1      23.524   5.628  48.319  1.00  0.00    -0.406 N 
HETATM   18  C15 UNL     1      24.004   6.858  48.860  1.00  0.00     0.143 C 
HETATM   19  C16 UNL     1      23.854   6.907  50.352  1.00  0.00     0.188 C 
HETATM   20  O3  UNL     1      24.327   5.780  50.991  1.00  0.00    -0.378 OA
HETATM   21  C17 UNL     1      23.851   4.592  50.519  1.00  0.00     0.170 C 
HETATM   22  C18 UNL     1      23.942   4.479  48.972  1.00  0.00     0.153 C 
HETATM   23  N2  UNL     1      20.782   2.672  50.981  1.00  0.00    -0.348 N 
HETATM   24  C19 UNL     1      20.839   3.363  52.370  1.00  0.00     0.194 C 
ENDROOT
TORSDOF 0
ENDMDL
