MODEL 1
REMARK VINA RESULT:      -6.6      0.000      0.000
REMARK  6 active torsions:
REMARK  status: ('A' for Active; 'I' for Inactive)
REMARK    1  A    between atoms: C2_2  and  S1_3 
REMARK    2  A    between atoms: C3_4  and  C4_5 
REMARK    3  A    between atoms: C4_5  and  C5_6 
REMARK    4  A    between atoms: C6_7  and  C7_8 
REMARK    5  A    between atoms: C11_14  and  N2_15 
REMARK    6  A    between atoms: C12_17  and  C13_18 
ROOT
HETATM    1  S1  UNL     1      21.777   1.649  49.872  1.00  0.00    -0.230 SA
HETATM    2  C3  UNL     1      20.848   3.016  50.550  1.00  0.00     0.007 C 
HETATM    3  C8  UNL     1      21.757   4.020  51.079  1.00  0.00     0.294 A 
HETATM    4  C9  UNL     1      23.145   3.528  50.925  1.00  0.00     0.381 A 
HETATM    5  C10 UNL     1      24.114   2.951  50.712  1.00  0.00     0.170 A 
HETATM    6  N1  UNL     1      23.343   4.093  51.199  1.00  0.00     0.044 N 
HETATM    7  C11 UNL     1      23.581   5.251  51.757  1.00  0.00     0.281 A 
HETATM    8  N3  UNL     1      22.243   5.176  51.651  1.00  0.00    -0.207 NA
HETATM    9  C12 UNL     1      23.236   1.641  50.872  1.00  0.00     0.076 C 
HETATM   10  H6  UNL     1      20.862   0.157  50.345  1.00  0.00     0.086 HD
ENDROOT
BRANCH   9  11
HETATM   11  C13 UNL     1      22.952   1.408  52.336  1.00  0.00     0.046 A 
HETATM   12  C14 UNL     1      24.045   0.915  53.152  1.00  0.00    -0.017 A 
HETATM   13  C15 UNL     1      23.778  -0.166  53.826  1.00  0.00     0.003 A 
HETATM   14  C16 UNL     1      22.373  -0.457  53.456  1.00  0.00    -0.065 A 
HETATM   15  C17 UNL     1      21.661  -1.623  54.029  1.00  0.00     0.048 C 
HETATM   16  C18 UNL     1      21.865   0.441  52.593  1.00  0.00    -0.011 A 
ENDBRANCH   9  11
BRANCH   1  17
HETATM   17  C2  UNL     1      21.965   1.549  48.096  1.00  0.00     0.052 C 
HETATM   18  C1  UNL     1      22.114   2.876  47.457  1.00  0.00     0.014 C 
ENDBRANCH   1  17
BRANCH   2  19
HETATM   19  C4  UNL     1      19.784   3.729  50.736  1.00  0.00     0.059 C 
BRANCH  19  20
HETATM   20  C5  UNL     1      18.566   4.415  50.726  1.00  0.00    -0.019 C 
HETATM   21  C6  UNL     1      17.771   3.720  51.511  1.00  0.00    -0.019 C 
BRANCH  21  22
HETATM   22  C7  UNL     1      16.376   4.039  51.823  1.00  0.00     0.112 C 
HETATM   23 BR1  UNL     1      15.328   2.435  51.970  1.00  0.00    -0.092 Br
ENDBRANCH  21  22
ENDBRANCH  19  20
ENDBRANCH   2  19
BRANCH   7  24
HETATM   24  N2  UNL     1      24.232   6.421  52.285  1.00  0.00    -0.266 NA
HETATM   25  H13 UNL     1      25.272   6.215  52.305  1.00  0.00     0.127 HD
HETATM   26  H14 UNL     1      25.232   6.107  52.252  1.00  0.00     0.127 HD
ENDBRANCH   7  24
TORSDOF 6
ENDMDL
MODEL 2
REMARK VINA RESULT:      -6.4      3.365      4.896
REMARK  6 active torsions:
REMARK  status: ('A' for Active; 'I' for Inactive)
REMARK    1  A    between atoms: C2_2  and  S1_3 
REMARK    2  A    between atoms: C3_4  and  C4_5 
REMARK    3  A    between atoms: C4_5  and  C5_6 
REMARK    4  A    between atoms: C6_7  and  C7_8 
REMARK    5  A    between atoms: C11_14  and  N2_15 
REMARK    6  A    between atoms: C12_17  and  C13_18 
ROOT
HETATM    1  S1  UNL     1      23.681   3.327  51.446  1.00  0.00    -0.230 SA
HETATM    2  C3  UNL     1      22.969   2.566  49.995  1.00  0.00     0.007 C 
HETATM    3  C8  UNL     1      21.825   1.753  50.372  1.00  0.00     0.294 A 
HETATM    4  C9  UNL     1      21.683   1.790  51.846  1.00  0.00     0.381 A 
HETATM    5  C10 UNL     1      21.771   1.959  52.977  1.00  0.00     0.170 A 
HETATM    6  N1  UNL     1      21.158   1.400  51.774  1.00  0.00     0.044 N 
HETATM    7  C11 UNL     1      20.147   0.626  51.477  1.00  0.00     0.281 A 
HETATM    8  N3  UNL     1      20.720   0.931  50.299  1.00  0.00    -0.207 NA
HETATM    9  C12 UNL     1      23.323   2.147  52.715  1.00  0.00     0.076 C 
HETATM   10  H6  UNL     1      25.476   3.246  51.207  1.00  0.00     0.086 HD
ENDROOT
BRANCH   9  11
HETATM   11  C13 UNL     1      23.954   0.798  52.467  1.00  0.00     0.046 A 
HETATM   12  C14 UNL     1      23.977  -0.135  53.576  1.00  0.00    -0.017 A 
HETATM   13  C15 UNL     1      25.153  -0.612  53.863  1.00  0.00     0.003 A 
HETATM   14  C16 UNL     1      26.035   0.039  52.865  1.00  0.00    -0.065 A 
HETATM   15  C17 UNL     1      27.487  -0.250  52.829  1.00  0.00     0.048 C 
HETATM   16  C18 UNL     1      25.366   0.862  52.038  1.00  0.00    -0.011 A 
ENDBRANCH   9  11
BRANCH   1  17
HETATM   17  C2  UNL     1      23.320   5.050  51.764  1.00  0.00     0.052 C 
HETATM   18  C1  UNL     1      21.950   5.436  51.358  1.00  0.00     0.014 C 
ENDBRANCH   1  17
BRANCH   2  19
HETATM   19  C4  UNL     1      22.792   2.414  48.722  1.00  0.00     0.059 C 
BRANCH  19  20
HETATM   20  C5  UNL     1      22.368   2.245  47.401  1.00  0.00    -0.019 C 
HETATM   21  C6  UNL     1      22.153   3.462  46.948  1.00  0.00    -0.019 C 
BRANCH  21  22
HETATM   22  C7  UNL     1      21.694   3.811  45.602  1.00  0.00     0.112 C 
HETATM   23 BR1  UNL     1      22.013   5.669  45.235  1.00  0.00    -0.092 Br
ENDBRANCH  21  22
ENDBRANCH  19  20
ENDBRANCH   2  19
BRANCH   7  24
HETATM   24  N2  UNL     1      18.955  -0.178  51.550  1.00  0.00    -0.266 NA
HETATM   25  H13 UNL     1      18.328   0.125  50.749  1.00  0.00     0.127 HD
HETATM   26  H14 UNL     1      18.428   0.199  50.725  1.00  0.00     0.127 HD
ENDBRANCH   7  24
TORSDOF 6
ENDMDL
MODEL 3
REMARK VINA RESULT:      -6.4      3.212      4.545
REMARK  6 active torsions:
REMARK  status: ('A' for Active; 'I' for Inactive)
REMARK    1  A    between atoms: C2_2  and  S1_3 
REMARK    2  A    between atoms: C3_4  and  C4_5 
REMARK    3  A    between atoms: C4_5  and  C5_6 
REMARK    4  A    between atoms: C6_7  and  C7_8 
REMARK    5  A    between atoms: C11_14  and  N2_15 
REMARK    6  A    between atoms: C12_17  and  C13_18 
ROOT
HETATM    1  S1  UNL     1      25.189   3.551  50.211  1.00  0.00    -0.230 SA
HETATM    2  C3  UNL     1      23.716   2.980  49.377  1.00  0.00     0.007 C 
HETATM    3  C8  UNL     1      22.594   2.972  50.301  1.00  0.00     0.294 A 
HETATM    4  C9  UNL     1      23.079   3.386  51.638  1.00  0.00     0.381 A 
HETATM    5  C10 UNL     1      23.670   3.720  52.563  1.00  0.00     0.170 A 
HETATM    6  N1  UNL     1      22.459   3.318  51.850  1.00  0.00     0.044 N 
HETATM    7  C11 UNL     1      21.195   3.133  52.124  1.00  0.00     0.281 A 
HETATM    8  N3  UNL     1      21.322   2.843  50.817  1.00  0.00    -0.207 NA
HETATM    9  C12 UNL     1      24.918   3.022  51.877  1.00  0.00     0.076 C 
HETATM   10  H6  UNL     1      26.536   2.510  49.590  1.00  0.00     0.086 HD
ENDROOT
BRANCH   9  11
HETATM   11  C13 UNL     1      24.786   1.524  52.011  1.00  0.00     0.046 A 
HETATM   12  C14 UNL     1      24.437   1.005  53.319  1.00  0.00    -0.017 A 
HETATM   13  C15 UNL     1      25.247   0.098  53.781  1.00  0.00     0.003 A 
HETATM   14  C16 UNL     1      26.253  -0.037  52.702  1.00  0.00    -0.065 A 
HETATM   15  C17 UNL     1      27.372  -1.001  52.820  1.00  0.00     0.048 C 
HETATM   16  C18 UNL     1      26.012   0.778  51.659  1.00  0.00    -0.011 A 
ENDBRANCH   9  11
BRANCH   1  17
HETATM   17  C2  UNL     1      25.722   5.236  49.933  1.00  0.00     0.052 C 
HETATM   18  C1  UNL     1      26.705   5.354  48.831  1.00  0.00     0.014 C 
ENDBRANCH   1  17
BRANCH   2  19
HETATM   19  C4  UNL     1      23.002   2.677  48.342  1.00  0.00     0.059 C 
BRANCH  19  20
HETATM   20  C5  UNL     1      22.395   2.470  47.099  1.00  0.00    -0.019 C 
HETATM   21  C6  UNL     1      21.905   3.641  46.754  1.00  0.00    -0.019 C 
BRANCH  21  22
HETATM   22  C7  UNL     1      21.172   3.938  45.522  1.00  0.00     0.112 C 
HETATM   23 BR1  UNL     1      21.715   5.633  44.799  1.00  0.00    -0.092 Br
ENDBRANCH  21  22
ENDBRANCH  19  20
ENDBRANCH   2  19
BRANCH   7  24
HETATM   24  N2  UNL     1      19.917   3.094  52.785  1.00  0.00    -0.266 NA
HETATM   25  H13 UNL     1      20.095   3.276  53.815  1.00  0.00     0.127 HD
HETATM   26  H14 UNL     1      20.214   3.288  53.772  1.00  0.00     0.127 HD
ENDBRANCH   7  24
TORSDOF 6
ENDMDL
MODEL 4
REMARK VINA RESULT:      -6.3      3.707      5.817
REMARK  6 active torsions:
REMARK  status: ('A' for Active; 'I' for Inactive)
REMARK    1  A    between atoms: C2_2  and  S1_3 
REMARK    2  A    between atoms: C3_4  and  C4_5 
REMARK    3  A    between atoms: C4_5  and  C5_6 
REMARK    4  A    between atoms: C6_7  and  C7_8 
REMARK    5  A    between atoms: C11_14  and  N2_15 
REMARK    6  A    between atoms: C12_17  and  C13_18 
ROOT
HETATM    1  S1  UNL     1      23.842   3.577  52.388  1.00  0.00    -0.230 SA
HETATM    2  C3  UNL     1      24.619   3.245  50.814  1.00  0.00     0.007 C 
HETATM    3  C8  UNL     1      23.622   2.811  49.849  1.00  0.00     0.294 A 
HETATM    4  C9  UNL     1      22.308   2.737  50.529  1.00  0.00     0.381 A 
HETATM    5  C10 UNL     1      21.416   2.749  51.250  1.00  0.00     0.170 A 
HETATM    6  N1  UNL     1      22.055   2.548  49.951  1.00  0.00     0.044 N 
HETATM    7  C11 UNL     1      21.700   2.180  48.748  1.00  0.00     0.281 A 
HETATM    8  N3  UNL     1      23.024   2.405  48.676  1.00  0.00    -0.207 NA
HETATM    9  C12 UNL     1      22.478   2.450  52.389  1.00  0.00     0.076 C 
HETATM   10  H6  UNL     1      24.989   2.944  53.641  1.00  0.00     0.086 HD
ENDROOT
BRANCH   9  11
HETATM   11  C13 UNL     1      22.902   1.004  52.308  1.00  0.00     0.046 A 
HETATM   12  C14 UNL     1      21.954   0.010  52.772  1.00  0.00    -0.017 A 
HETATM   13  C15 UNL     1      22.419  -0.813  53.666  1.00  0.00     0.003 A 
HETATM   14  C16 UNL     1      23.820  -0.361  53.845  1.00  0.00    -0.065 A 
HETATM   15  C17 UNL     1      24.730  -1.055  54.785  1.00  0.00     0.048 C 
HETATM   16  C18 UNL     1      24.130   0.692  53.067  1.00  0.00    -0.011 A 
ENDBRANCH   9  11
BRANCH   1  17
HETATM   17  C2  UNL     1      23.535   5.280  52.840  1.00  0.00     0.052 C 
HETATM   18  C1  UNL     1      23.713   6.218  51.707  1.00  0.00     0.014 C 
ENDBRANCH   1  17
BRANCH   2  19
HETATM   19  C4  UNL     1      25.584   3.293  49.953  1.00  0.00     0.059 C 
BRANCH  19  20
HETATM   20  C5  UNL     1      26.747   3.459  49.195  1.00  0.00    -0.019 C 
HETATM   21  C6  UNL     1      26.899   4.761  49.074  1.00  0.00    -0.019 C 
BRANCH  21  22
HETATM   22  C7  UNL     1      27.982   5.439  48.360  1.00  0.00     0.112 C 
HETATM   23 BR1  UNL     1      27.783   7.347  48.474  1.00  0.00    -0.092 Br
ENDBRANCH  21  22
ENDBRANCH  19  20
ENDBRANCH   2  19
BRANCH   7  24
HETATM   24  N2  UNL     1      20.934   1.803  47.589  1.00  0.00    -0.266 NA
HETATM   25  H13 UNL     1      20.283   1.021  47.890  1.00  0.00     0.127 HD
HETATM   26  H14 UNL     1      20.336   1.046  48.002  1.00  0.00     0.127 HD
ENDBRANCH   7  24
TORSDOF 6
ENDMDL
MODEL 5
REMARK VINA RESULT:      -6.3     10.131     12.284
REMARK  6 active torsions:
REMARK  status: ('A' for Active; 'I' for Inactive)
REMARK    1  A    between atoms: C2_2  and  S1_3 
REMARK    2  A    between atoms: C3_4  and  C4_5 
REMARK    3  A    between atoms: C4_5  and  C5_6 
REMARK    4  A    between atoms: C6_7  and  C7_8 
REMARK    5  A    between atoms: C11_14  and  N2_15 
REMARK    6  A    between atoms: C12_17  and  C13_18 
ROOT
HETATM    1  S1  UNL     1      32.653   8.462  46.043  1.00  0.00    -0.230 SA
HETATM    2  C3  UNL     1      31.030   7.962  46.595  1.00  0.00     0.007 C 
HETATM    3  C8  UNL     1      31.135   7.223  47.842  1.00  0.00     0.294 A 
HETATM    4  C9  UNL     1      32.568   7.089  48.192  1.00  0.00     0.381 A 
HETATM    5  C10 UNL     1      33.713   7.106  48.256  1.00  0.00     0.170 A 
HETATM    6  N1  UNL     1      32.374   6.764  48.731  1.00  0.00     0.044 N 
HETATM    7  C11 UNL     1      31.842   6.136  49.746  1.00  0.00     0.281 A 
HETATM    8  N3  UNL     1      30.804   6.528  48.986  1.00  0.00    -0.207 NA
HETATM    9  C12 UNL     1      33.688   7.173  46.673  1.00  0.00     0.076 C 
HETATM   10  H6  UNL     1      32.646   8.237  44.244  1.00  0.00     0.086 HD
ENDROOT
BRANCH   9  11
HETATM   11  C13 UNL     1      33.343   5.811  46.121  1.00  0.00     0.046 A 
HETATM   12  C14 UNL     1      34.387   4.805  46.144  1.00  0.00    -0.017 A 
HETATM   13  C15 UNL     1      34.629   4.244  44.995  1.00  0.00     0.003 A 
HETATM   14  C16 UNL     1      33.668   4.910  44.084  1.00  0.00    -0.065 A 
HETATM   15  C17 UNL     1      33.598   4.544  42.651  1.00  0.00     0.048 C 
HETATM   16  C18 UNL     1      32.906   5.825  44.710  1.00  0.00    -0.011 A 
ENDBRANCH   9  11
BRANCH   1  17
HETATM   17  C2  UNL     1      33.154  10.159  46.309  1.00  0.00     0.052 C 
HETATM   18  C1  UNL     1      32.322  10.854  47.317  1.00  0.00     0.014 C 
ENDBRANCH   1  17
BRANCH   2  19
HETATM   19  C4  UNL     1      29.736   7.988  46.598  1.00  0.00     0.059 C 
BRANCH  19  20
HETATM   20  C5  UNL     1      28.356   7.929  46.380  1.00  0.00    -0.019 C 
HETATM   21  C6  UNL     1      27.840   7.550  47.530  1.00  0.00    -0.019 C 
BRANCH  21  22
HETATM   22  C7  UNL     1      26.418   7.343  47.809  1.00  0.00     0.112 C 
HETATM   23 BR1  UNL     1      26.167   5.857  49.000  1.00  0.00    -0.092 Br
ENDBRANCH  21  22
ENDBRANCH  19  20
ENDBRANCH   2  19
BRANCH   7  24
HETATM   24  N2  UNL     1      31.644   5.449  50.996  1.00  0.00    -0.266 NA
HETATM   25  H13 UNL     1      32.601   5.335  51.441  1.00  0.00     0.127 HD
HETATM   26  H14 UNL     1      32.635   5.401  51.338  1.00  0.00     0.127 HD
ENDBRANCH   7  24
TORSDOF 6
ENDMDL
MODEL 6
REMARK VINA RESULT:      -6.3     10.537     12.972
REMARK  6 active torsions:
REMARK  status: ('A' for Active; 'I' for Inactive)
REMARK    1  A    between atoms: C2_2  and  S1_3 
REMARK    2  A    between atoms: C3_4  and  C4_5 
REMARK    3  A    between atoms: C4_5  and  C5_6 
REMARK    4  A    between atoms: C6_7  and  C7_8 
REMARK    5  A    between atoms: C11_14  and  N2_15 
REMARK    6  A    between atoms: C12_17  and  C13_18 
ROOT
HETATM    1  S1  UNL     1      33.516   6.282  46.691  1.00  0.00    -0.230 SA
HETATM    2  C3  UNL     1      31.923   5.640  47.183  1.00  0.00     0.007 C 
HETATM    3  C8  UNL     1      31.909   4.193  47.050  1.00  0.00     0.294 A 
HETATM    4  C9  UNL     1      33.209   3.757  46.491  1.00  0.00     0.381 A 
HETATM    5  C10 UNL     1      34.266   3.656  46.057  1.00  0.00     0.170 A 
HETATM    6  N1  UNL     1      32.983   3.139  46.528  1.00  0.00     0.044 N 
HETATM    7  C11 UNL     1      32.399   1.977  46.655  1.00  0.00     0.281 A 
HETATM    8  N3  UNL     1      31.500   2.877  47.092  1.00  0.00    -0.207 NA
HETATM    9  C12 UNL     1      34.043   5.113  45.473  1.00  0.00     0.076 C 
HETATM   10  H6  UNL     1      33.164   7.806  45.773  1.00  0.00     0.086 HD
ENDROOT
BRANCH   9  11
HETATM   11  C13 UNL     1      33.117   5.036  44.283  1.00  0.00     0.046 A 
HETATM   12  C14 UNL     1      33.648   4.445  43.070  1.00  0.00    -0.017 A 
HETATM   13  C15 UNL     1      33.534   5.185  42.006  1.00  0.00     0.003 A 
HETATM   14  C16 UNL     1      32.860   6.404  42.514  1.00  0.00    -0.065 A 
HETATM   15  C17 UNL     1      32.519   7.521  41.603  1.00  0.00     0.048 C 
HETATM   16  C18 UNL     1      32.603   6.346  43.833  1.00  0.00    -0.011 A 
ENDBRANCH   9  11
BRANCH   1  17
HETATM   17  C2  UNL     1      34.673   6.754  47.971  1.00  0.00     0.052 C 
HETATM   18  C1  UNL     1      34.932   5.667  48.942  1.00  0.00     0.014 C 
ENDBRANCH   1  17
BRANCH   2  19
HETATM   19  C4  UNL     1      30.758   5.706  47.741  1.00  0.00     0.059 C 
BRANCH  19  20
HETATM   20  C5  UNL     1      29.452   5.577  48.224  1.00  0.00    -0.019 C 
HETATM   21  C6  UNL     1      28.823   6.657  47.814  1.00  0.00    -0.019 C 
BRANCH  21  22
HETATM   22  C7  UNL     1      27.419   6.986  48.070  1.00  0.00     0.112 C 
HETATM   23 BR1  UNL     1      26.519   5.514  48.915  1.00  0.00    -0.092 Br
ENDBRANCH  21  22
ENDBRANCH  19  20
ENDBRANCH   2  19
BRANCH   7  24
HETATM   24  N2  UNL     1      32.130   0.563  46.691  1.00  0.00    -0.266 NA
HETATM   25  H13 UNL     1      32.953   0.080  46.228  1.00  0.00     0.127 HD
HETATM   26  H14 UNL     1      32.995   0.199  46.222  1.00  0.00     0.127 HD
ENDBRANCH   7  24
TORSDOF 6
ENDMDL
MODEL 7
REMARK VINA RESULT:      -6.0     10.581     12.950
REMARK  6 active torsions:
REMARK  status: ('A' for Active; 'I' for Inactive)
REMARK    1  A    between atoms: C2_2  and  S1_3 
REMARK    2  A    between atoms: C3_4  and  C4_5 
REMARK    3  A    between atoms: C4_5  and  C5_6 
REMARK    4  A    between atoms: C6_7  and  C7_8 
REMARK    5  A    between atoms: C11_14  and  N2_15 
REMARK    6  A    between atoms: C12_17  and  C13_18 
ROOT
HETATM    1  S1  UNL     1      32.432   5.857  47.980  1.00  0.00    -0.230 SA
HETATM    2  C3  UNL     1      32.552   5.869  46.198  1.00  0.00     0.007 C 
HETATM    3  C8  UNL     1      32.199   7.183  45.685  1.00  0.00     0.294 A 
HETATM    4  C9  UNL     1      31.802   8.043  46.824  1.00  0.00     0.381 A 
HETATM    5  C10 UNL     1      31.537   8.511  47.838  1.00  0.00     0.170 A 
HETATM    6  N1  UNL     1      31.707   8.526  46.386  1.00  0.00     0.044 N 
HETATM    7  C11 UNL     1      31.556   9.378  45.406  1.00  0.00     0.281 A 
HETATM    8  N3  UNL     1      31.972   8.238  44.827  1.00  0.00    -0.207 NA
HETATM    9  C12 UNL     1      31.154   7.040  48.288  1.00  0.00     0.076 C 
HETATM   10  H6  UNL     1      31.713   4.249  48.408  1.00  0.00     0.086 HD
ENDROOT
BRANCH   9  11
HETATM   11  C13 UNL     1      29.830   6.659  47.671  1.00  0.00     0.046 A 
HETATM   12  C14 UNL     1      28.689   7.498  47.981  1.00  0.00    -0.017 A 
HETATM   13  C15 UNL     1      27.658   6.863  48.456  1.00  0.00     0.003 A 
HETATM   14  C16 UNL     1      28.110   5.452  48.478  1.00  0.00    -0.065 A 
HETATM   15  C17 UNL     1      27.211   4.371  48.945  1.00  0.00     0.048 C 
HETATM   16  C18 UNL     1      29.368   5.301  48.026  1.00  0.00    -0.011 A 
ENDBRANCH   9  11
BRANCH   1  17
HETATM   17  C2  UNL     1      33.942   5.972  48.933  1.00  0.00     0.052 C 
HETATM   18  C1  UNL     1      34.936   6.889  48.328  1.00  0.00     0.014 C 
ENDBRANCH   1  17
BRANCH   2  19
HETATM   19  C4  UNL     1      32.915   5.402  45.047  1.00  0.00     0.059 C 
BRANCH  19  20
HETATM   20  C5  UNL     1      33.261   4.684  43.899  1.00  0.00    -0.019 C 
HETATM   21  C6  UNL     1      33.856   5.554  43.112  1.00  0.00    -0.019 C 
BRANCH  21  22
HETATM   22  C7  UNL     1      34.404   5.279  41.782  1.00  0.00     0.112 C 
HETATM   23 BR1  UNL     1      33.426   3.867  40.921  1.00  0.00    -0.092 Br
ENDBRANCH  21  22
ENDBRANCH  19  20
ENDBRANCH   2  19
BRANCH   7  24
HETATM   24  N2  UNL     1      31.331  10.575  44.640  1.00  0.00    -0.266 NA
HETATM   25  H13 UNL     1      31.066  10.269  43.659  1.00  0.00     0.127 HD
HETATM   26  H14 UNL     1      31.076  10.155  43.713  1.00  0.00     0.127 HD
ENDBRANCH   7  24
TORSDOF 6
ENDMDL
MODEL 8
REMARK VINA RESULT:      -5.8     10.839     13.224
REMARK  6 active torsions:
REMARK  status: ('A' for Active; 'I' for Inactive)
REMARK    1  A    between atoms: C2_2  and  S1_3 
REMARK    2  A    between atoms: C3_4  and  C4_5 
REMARK    3  A    between atoms: C4_5  and  C5_6 
REMARK    4  A    between atoms: C6_7  and  C7_8 
REMARK    5  A    between atoms: C11_14  and  N2_15 
REMARK    6  A    between atoms: C12_17  and  C13_18 
ROOT
HETATM    1  S1  UNL     1      32.067   4.478  47.220  1.00  0.00    -0.230 SA
HETATM    2  C3  UNL     1      32.645   5.283  45.734  1.00  0.00     0.007 C 
HETATM    3  C8  UNL     1      33.385   6.487  46.078  1.00  0.00     0.294 A 
HETATM    4  C9  UNL     1      33.350   6.660  47.548  1.00  0.00     0.381 A 
HETATM    5  C10 UNL     1      33.188   6.592  48.682  1.00  0.00     0.170 A 
HETATM    6  N1  UNL     1      33.714   7.202  47.462  1.00  0.00     0.044 N 
HETATM    7  C11 UNL     1      34.426   8.248  47.136  1.00  0.00     0.281 A 
HETATM    8  N3  UNL     1      34.140   7.635  45.974  1.00  0.00    -0.207 NA
HETATM    9  C12 UNL     1      31.840   5.836  48.331  1.00  0.00     0.076 C 
HETATM   10  H6  UNL     1      30.397   3.888  46.835  1.00  0.00     0.086 HD
ENDROOT
BRANCH   9  11
HETATM   11  C13 UNL     1      30.819   6.837  47.845  1.00  0.00     0.046 A 
HETATM   12  C14 UNL     1      30.507   7.944  48.727  1.00  0.00    -0.017 A 
HETATM   13  C15 UNL     1      29.241   8.094  48.988  1.00  0.00     0.003 A 
HETATM   14  C16 UNL     1      28.606   6.998  48.219  1.00  0.00    -0.065 A 
HETATM   15  C17 UNL     1      27.135   6.816  48.226  1.00  0.00     0.048 C 
HETATM   16  C18 UNL     1      29.497   6.252  47.542  1.00  0.00    -0.011 A 
ENDBRANCH   9  11
BRANCH   1  17
HETATM   17  C2  UNL     1      32.956   3.041  47.808  1.00  0.00     0.052 C 
HETATM   18  C1  UNL     1      32.732   1.843  46.968  1.00  0.00     0.014 C 
ENDBRANCH   1  17
BRANCH   2  19
HETATM   19  C4  UNL     1      32.914   5.352  44.470  1.00  0.00     0.059 C 
BRANCH  19  20
HETATM   20  C5  UNL     1      33.118   5.648  43.119  1.00  0.00    -0.019 C 
HETATM   21  C6  UNL     1      33.543   4.525  42.579  1.00  0.00    -0.019 C 
BRANCH  21  22
HETATM   22  C7  UNL     1      33.895   4.326  41.172  1.00  0.00     0.112 C 
HETATM   23 BR1  UNL     1      32.740   3.023  40.360  1.00  0.00    -0.092 Br
ENDBRANCH  21  22
ENDBRANCH  19  20
ENDBRANCH   2  19
BRANCH   7  24
HETATM   24  N2  UNL     1      35.250   9.427  47.185  1.00  0.00    -0.266 NA
HETATM   25  H13 UNL     1      35.970   9.270  47.948  1.00  0.00     0.127 HD
HETATM   26  H14 UNL     1      35.912   9.158  47.954  1.00  0.00     0.127 HD
ENDBRANCH   7  24
TORSDOF 6
ENDMDL
MODEL 9
REMARK VINA RESULT:      -5.7     10.096     11.224
REMARK  6 active torsions:
REMARK  status: ('A' for Active; 'I' for Inactive)
REMARK    1  A    between atoms: C2_2  and  S1_3 
REMARK    2  A    between atoms: C3_4  and  C4_5 
REMARK    3  A    between atoms: C4_5  and  C5_6 
REMARK    4  A    between atoms: C6_7  and  C7_8 
REMARK    5  A    between atoms: C11_14  and  N2_15 
REMARK    6  A    between atoms: C12_17  and  C13_18 
ROOT
HETATM    1  S1  UNL     1      31.123   9.487  46.448  1.00  0.00    -0.230 SA
HETATM    2  C3  UNL     1      29.345   9.377  46.321  1.00  0.00     0.007 C 
HETATM    3  C8  UNL     1      28.751   9.390  47.648  1.00  0.00     0.294 A 
HETATM    4  C9  UNL     1      29.839   9.429  48.652  1.00  0.00     0.381 A 
HETATM    5  C10 UNL     1      30.826   9.454  49.236  1.00  0.00     0.170 A 
HETATM    6  N1  UNL     1      29.370   9.434  49.114  1.00  0.00     0.044 N 
HETATM    7  C11 UNL     1      28.335   9.434  49.913  1.00  0.00     0.281 A 
HETATM    8  N3  UNL     1      27.825   9.396  48.669  1.00  0.00    -0.207 NA
HETATM    9  C12 UNL     1      31.449   8.691  47.994  1.00  0.00     0.076 C 
HETATM   10  H6  UNL     1      31.772   8.363  45.183  1.00  0.00     0.086 HD
ENDROOT
BRANCH   9  11
HETATM   11  C13 UNL     1      31.009   7.248  48.024  1.00  0.00     0.046 A 
HETATM   12  C14 UNL     1      31.549   6.413  49.080  1.00  0.00    -0.017 A 
HETATM   13  C15 UNL     1      32.123   5.319  48.672  1.00  0.00     0.003 A 
HETATM   14  C16 UNL     1      31.971   5.387  47.199  1.00  0.00    -0.065 A 
HETATM   15  C17 UNL     1      32.484   4.303  46.330  1.00  0.00     0.048 C 
HETATM   16  C18 UNL     1      31.326   6.495  46.792  1.00  0.00    -0.011 A 
ENDBRANCH   9  11
BRANCH   1  17
HETATM   17  C2  UNL     1      31.901  11.066  46.126  1.00  0.00     0.052 C 
HETATM   18  C1  UNL     1      33.044  11.339  47.027  1.00  0.00     0.014 C 
ENDBRANCH   1  17
BRANCH   2  19
HETATM   19  C4  UNL     1      28.212   9.427  45.698  1.00  0.00     0.059 C 
BRANCH  19  20
HETATM   20  C5  UNL     1      26.979   9.706  45.101  1.00  0.00    -0.019 C 
HETATM   21  C6  UNL     1      26.761   8.707  44.273  1.00  0.00    -0.019 C 
BRANCH  21  22
HETATM   22  C7  UNL     1      25.590   8.543  43.410  1.00  0.00     0.112 C 
HETATM   23 BR1  UNL     1      24.098   7.860  44.409  1.00  0.00    -0.092 Br
ENDBRANCH  21  22
ENDBRANCH  19  20
ENDBRANCH   2  19
BRANCH   7  24
HETATM   24  N2  UNL     1      27.487   9.498  51.074  1.00  0.00    -0.266 NA
HETATM   25  H13 UNL     1      28.006  10.063  51.806  1.00  0.00     0.127 HD
HETATM   26  H14 UNL     1      28.090  10.073  51.711  1.00  0.00     0.127 HD
ENDBRANCH   7  24
TORSDOF 6
ENDMDL
