MODEL 1
REMARK VINA RESULT:      -8.3      0.000      0.000
REMARK  6 active torsions:
REMARK  status: ('A' for Active; 'I' for Inactive)
REMARK    1  A    between atoms: C2_2  and  C3_3 
REMARK    2  A    between atoms: C6_6  and  N1_7 
REMARK    3  A    between atoms: N1_7  and  C8_9 
REMARK    4  A    between atoms: C11_13  and  N3_14 
REMARK    5  A    between atoms: C16_19  and  S1_20 
REMARK    6  A    between atoms: S1_20  and  P1_23 
ROOT
HETATM    1  C8  UNL     1      23.044  -0.114  53.649  1.00  0.00     0.150 A 
HETATM    2  C9  UNL     1      22.084  -0.862  54.289  1.00  0.00     0.071 A 
HETATM    3  C10 UNL     1      20.786  -0.672  53.859  1.00  0.00     0.140 A 
HETATM    4  N2  UNL     1      20.428   0.179  52.881  1.00  0.00    -0.075 NA
HETATM    5  C11 UNL     1      21.409   0.899  52.276  1.00  0.00     0.726 A 
HETATM    6  N4  UNL     1      22.687   0.740  52.669  1.00  0.00    -0.045 NA
ENDROOT
BRANCH   1   7
HETATM    7  N1  UNL     1      24.427  -0.245  54.030  1.00  0.00    -0.339 N 
HETATM    8  C7  UNL     1      24.502  -1.156  55.160  1.00  0.00     0.158 C 
BRANCH   7   9
HETATM    9  C6  UNL     1      25.676   0.302  53.555  1.00  0.00     0.018 C 
HETATM   10  C5  UNL     1      26.419  -0.581  52.625  1.00  0.00     0.086 C 
HETATM   11  C4  UNL     1      27.800  -0.875  53.038  1.00  0.00     0.006 C 
HETATM   12  C3  UNL     1      28.877  -0.139  53.357  1.00  0.00     0.024 C 
HETATM   13  N6  UNL     1      29.118   1.268  53.424  1.00  0.00    -0.283 N 
HETATM   14  N5  UNL     1      28.245   2.338  53.667  1.00  0.00    -0.187 NA
HETATM   15  H29 UNL     1      30.115   1.492  53.263  1.00  0.00     0.189 HD
HETATM   16  C20 UNL     1      26.993   2.486  53.920  1.00  0.00     0.140 C 
HETATM   17  C19 UNL     1      25.908   1.512  54.063  1.00  0.00     0.046 C 
BRANCH  12  18
HETATM   18  C2  UNL     1      30.094  -0.949  53.722  1.00  0.00     0.054 C 
HETATM   19  C1  UNL     1      29.707  -2.398  53.470  1.00  0.00     0.011 C 
ENDBRANCH  12  18
ENDBRANCH   7   9
ENDBRANCH   1   7
BRANCH   5  20
HETATM   20  N3  UNL     1      21.063   1.797  51.248  1.00  0.00    -0.209 N 
HETATM   21  C12 UNL     1      20.016   1.476  50.293  1.00  0.00     0.169 C 
HETATM   22  C13 UNL     1      20.699   1.327  48.963  1.00  0.00    -0.003 C 
HETATM   23  C14 UNL     1      21.724   2.161  48.762  1.00  0.00    -0.066 C 
HETATM   24  C15 UNL     1      22.527   2.153  47.484  1.00  0.00     0.044 C 
HETATM   25  C16 UNL     1      22.244   3.195  49.697  1.00  0.00     0.159 C 
HETATM   26  C18 UNL     1      21.723   3.061  51.098  1.00  0.00     0.166 C 
BRANCH  25  27
HETATM   27  S1  UNL     1      21.850   4.835  49.132  1.00  0.00     0.171 S 
HETATM   28  O1  UNL     1      22.971   5.245  48.188  1.00  0.00    -0.223 OA
HETATM   29  O2  UNL     1      20.575   4.886  48.353  1.00  0.00    -0.223 OA
BRANCH  27  30
HETATM   30  P1  UNL     1      21.832   6.211  50.742  1.00  0.00    -0.004 P 
HETATM   31  C17 UNL     1      23.500   7.024  50.926  1.00  0.00     0.057 C 
HETATM   32  H21 UNL     1      21.496   5.566  51.991  1.00  0.00     0.073 HD
ENDBRANCH  27  30
ENDBRANCH  25  27
ENDBRANCH   5  20
TORSDOF 6
ENDMDL
MODEL 2
REMARK VINA RESULT:      -8.2      1.140      1.520
REMARK  6 active torsions:
REMARK  status: ('A' for Active; 'I' for Inactive)
REMARK    1  A    between atoms: C2_2  and  C3_3 
REMARK    2  A    between atoms: C6_6  and  N1_7 
REMARK    3  A    between atoms: N1_7  and  C8_9 
REMARK    4  A    between atoms: C11_13  and  N3_14 
REMARK    5  A    between atoms: C16_19  and  S1_20 
REMARK    6  A    between atoms: S1_20  and  P1_23 
ROOT
HETATM    1  C8  UNL     1      23.052  -0.363  53.795  1.00  0.00     0.150 A 
HETATM    2  C9  UNL     1      22.159  -1.208  54.414  1.00  0.00     0.071 A 
HETATM    3  C10 UNL     1      20.848  -1.112  53.992  1.00  0.00     0.140 A 
HETATM    4  N2  UNL     1      20.417  -0.264  53.042  1.00  0.00    -0.075 NA
HETATM    5  C11 UNL     1      21.333   0.553  52.458  1.00  0.00     0.726 A 
HETATM    6  N4  UNL     1      22.621   0.488  52.843  1.00  0.00    -0.045 NA
ENDROOT
BRANCH   1   7
HETATM    7  N1  UNL     1      24.442  -0.392  54.169  1.00  0.00    -0.339 N 
HETATM    8  C7  UNL     1      24.577  -1.221  55.355  1.00  0.00     0.158 C 
BRANCH   7   9
HETATM    9  C6  UNL     1      25.655   0.191  53.645  1.00  0.00     0.018 C 
HETATM   10  C5  UNL     1      26.402  -0.684  52.710  1.00  0.00     0.086 C 
HETATM   11  C4  UNL     1      27.805  -0.918  53.086  1.00  0.00     0.006 C 
HETATM   12  C3  UNL     1      28.863  -0.137  53.358  1.00  0.00     0.024 C 
HETATM   13  N6  UNL     1      29.053   1.279  53.391  1.00  0.00    -0.283 N 
HETATM   14  N5  UNL     1      28.148   2.321  53.639  1.00  0.00    -0.187 NA
HETATM   15  H29 UNL     1      30.036   1.537  53.194  1.00  0.00     0.189 HD
HETATM   16  C20 UNL     1      26.900   2.428  53.927  1.00  0.00     0.140 C 
HETATM   17  C19 UNL     1      25.857   1.419  54.122  1.00  0.00     0.046 C 
BRANCH  12  18
HETATM   18  C2  UNL     1      30.120  -0.894  53.701  1.00  0.00     0.054 C 
HETATM   19  C1  UNL     1      29.784  -2.360  53.478  1.00  0.00     0.011 C 
ENDBRANCH  12  18
ENDBRANCH   7   9
ENDBRANCH   1   7
BRANCH   5  20
HETATM   20  N3  UNL     1      20.909   1.451  51.459  1.00  0.00    -0.209 N 
HETATM   21  C12 UNL     1      20.042   1.015  50.377  1.00  0.00     0.169 C 
HETATM   22  C13 UNL     1      20.862   1.116  49.123  1.00  0.00    -0.003 C 
HETATM   23  C14 UNL     1      21.711   2.147  49.087  1.00  0.00    -0.066 C 
HETATM   24  C15 UNL     1      22.614   2.404  47.906  1.00  0.00     0.044 C 
HETATM   25  C16 UNL     1      21.922   3.178  50.139  1.00  0.00     0.159 C 
HETATM   26  C18 UNL     1      21.311   2.828  51.463  1.00  0.00     0.166 C 
BRANCH  25  27
HETATM   27  S1  UNL     1      21.259   4.753  49.642  1.00  0.00     0.171 S 
HETATM   28  O1  UNL     1      20.951   5.513  50.924  1.00  0.00    -0.223 OA
HETATM   29  O2  UNL     1      22.240   5.573  48.867  1.00  0.00    -0.223 OA
BRANCH  27  30
HETATM   30  P1  UNL     1      19.440   4.514  48.584  1.00  0.00    -0.004 P 
HETATM   31  C17 UNL     1      17.989   4.593  49.753  1.00  0.00     0.057 C 
HETATM   32  H21 UNL     1      19.394   3.252  47.881  1.00  0.00     0.073 HD
ENDBRANCH  27  30
ENDBRANCH  25  27
ENDBRANCH   5  20
TORSDOF 6
ENDMDL
MODEL 3
REMARK VINA RESULT:      -8.1      3.515      5.257
REMARK  6 active torsions:
REMARK  status: ('A' for Active; 'I' for Inactive)
REMARK    1  A    between atoms: C2_2  and  C3_3 
REMARK    2  A    between atoms: C6_6  and  N1_7 
REMARK    3  A    between atoms: N1_7  and  C8_9 
REMARK    4  A    between atoms: C11_13  and  N3_14 
REMARK    5  A    between atoms: C16_19  and  S1_20 
REMARK    6  A    between atoms: S1_20  and  P1_23 
ROOT
HETATM    1  C8  UNL     1      23.292   3.609  51.762  1.00  0.00     0.150 A 
HETATM    2  C9  UNL     1      21.995   3.978  52.040  1.00  0.00     0.071 A 
HETATM    3  C10 UNL     1      21.662   5.282  51.733  1.00  0.00     0.140 A 
HETATM    4  N2  UNL     1      22.510   6.176  51.196  1.00  0.00    -0.075 NA
HETATM    5  C11 UNL     1      23.781   5.769  50.938  1.00  0.00     0.726 A 
HETATM    6  N4  UNL     1      24.144   4.505  51.224  1.00  0.00    -0.045 NA
ENDROOT
BRANCH   1   7
HETATM    7  N1  UNL     1      23.732   2.268  52.047  1.00  0.00    -0.339 N 
HETATM    8  C7  UNL     1      23.185   1.385  51.030  1.00  0.00     0.158 C 
BRANCH   7   9
HETATM    9  C6  UNL     1      24.552   1.654  53.065  1.00  0.00     0.018 C 
HETATM   10  C5  UNL     1      25.591   2.544  53.635  1.00  0.00     0.086 C 
HETATM   11  C4  UNL     1      26.959   2.010  53.556  1.00  0.00     0.006 C 
HETATM   12  C3  UNL     1      27.567   0.879  53.953  1.00  0.00     0.024 C 
HETATM   13  N6  UNL     1      27.111  -0.291  54.634  1.00  0.00    -0.283 N 
HETATM   14  N5  UNL     1      25.843  -0.888  54.686  1.00  0.00    -0.187 NA
HETATM   15  H29 UNL     1      27.874  -0.744  55.166  1.00  0.00     0.189 HD
HETATM   16  C20 UNL     1      24.682  -0.664  54.181  1.00  0.00     0.140 C 
HETATM   17  C19 UNL     1      24.198   0.388  53.284  1.00  0.00     0.046 C 
BRANCH  12  18
HETATM   18  C2  UNL     1      29.035   0.817  53.621  1.00  0.00     0.054 C 
HETATM   19  C1  UNL     1      29.417  -0.650  53.743  1.00  0.00     0.011 C 
ENDBRANCH  12  18
ENDBRANCH   7   9
ENDBRANCH   1   7
BRANCH   5  20
HETATM   20  N3  UNL     1      24.691   6.684  50.375  1.00  0.00    -0.209 N 
HETATM   21  C12 UNL     1      24.455   8.116  50.447  1.00  0.00     0.169 C 
HETATM   22  C13 UNL     1      24.220   8.569  49.034  1.00  0.00    -0.003 C 
HETATM   23  C14 UNL     1      24.950   7.934  48.112  1.00  0.00    -0.066 C 
HETATM   24  C15 UNL     1      24.846   8.258  46.641  1.00  0.00     0.044 C 
HETATM   25  C16 UNL     1      25.945   6.852  48.338  1.00  0.00     0.159 C 
HETATM   26  C18 UNL     1      25.885   6.249  49.710  1.00  0.00     0.166 C 
BRANCH  25  27
HETATM   27  S1  UNL     1      27.607   7.436  48.081  1.00  0.00     0.171 S 
HETATM   28  O1  UNL     1      28.530   6.305  48.509  1.00  0.00    -0.223 OA
HETATM   29  O2  UNL     1      27.900   7.726  46.643  1.00  0.00    -0.223 OA
BRANCH  27  30
HETATM   30  P1  UNL     1      28.024   9.108  49.311  1.00  0.00    -0.004 P 
HETATM   31  C17 UNL     1      27.463  10.683  48.484  1.00  0.00     0.057 C 
HETATM   32  H21 UNL     1      29.435   9.219  49.599  1.00  0.00     0.073 HD
ENDBRANCH  27  30
ENDBRANCH  25  27
ENDBRANCH   5  20
TORSDOF 6
ENDMDL
MODEL 4
REMARK VINA RESULT:      -8.0      1.877      2.382
REMARK  6 active torsions:
REMARK  status: ('A' for Active; 'I' for Inactive)
REMARK    1  A    between atoms: C2_2  and  C3_3 
REMARK    2  A    between atoms: C6_6  and  N1_7 
REMARK    3  A    between atoms: N1_7  and  C8_9 
REMARK    4  A    between atoms: C11_13  and  N3_14 
REMARK    5  A    between atoms: C16_19  and  S1_20 
REMARK    6  A    between atoms: S1_20  and  P1_23 
ROOT
HETATM    1  C8  UNL     1      23.101   1.043  52.985  1.00  0.00     0.150 A 
HETATM    2  C9  UNL     1      21.926   0.545  53.500  1.00  0.00     0.071 A 
HETATM    3  C10 UNL     1      20.770   1.166  53.071  1.00  0.00     0.140 A 
HETATM    4  N2  UNL     1      20.737   2.197  52.208  1.00  0.00    -0.075 NA
HETATM    5  C11 UNL     1      21.921   2.657  51.726  1.00  0.00     0.726 A 
HETATM    6  N4  UNL     1      23.070   2.077  52.120  1.00  0.00    -0.045 NA
ENDROOT
BRANCH   1   7
HETATM    7  N1  UNL     1      24.358   0.459  53.374  1.00  0.00    -0.339 N 
HETATM    8  C7  UNL     1      24.082  -0.725  54.171  1.00  0.00     0.158 C 
BRANCH   7   9
HETATM    9  C6  UNL     1      25.749   0.779  53.152  1.00  0.00     0.018 C 
HETATM   10  C5  UNL     1      26.448  -0.139  52.221  1.00  0.00     0.086 C 
HETATM   11  C4  UNL     1      27.664  -0.756  52.776  1.00  0.00     0.006 C 
HETATM   12  C3  UNL     1      28.796  -0.298  53.335  1.00  0.00     0.024 C 
HETATM   13  N6  UNL     1      29.287   1.013  53.622  1.00  0.00    -0.283 N 
HETATM   14  N5  UNL     1      28.607   2.211  53.884  1.00  0.00    -0.187 NA
HETATM   15  H29 UNL     1      30.321   1.039  53.629  1.00  0.00     0.189 HD
HETATM   16  C20 UNL     1      27.382   2.590  53.981  1.00  0.00     0.140 C 
HETATM   17  C19 UNL     1      26.123   1.855  53.843  1.00  0.00     0.046 C 
BRANCH  12  18
HETATM   18  C2  UNL     1      29.761  -1.378  53.751  1.00  0.00     0.054 C 
HETATM   19  C1  UNL     1      29.139  -2.682  53.278  1.00  0.00     0.011 C 
ENDBRANCH  12  18
ENDBRANCH   7   9
ENDBRANCH   1   7
BRANCH   5  20
HETATM   20  N3  UNL     1      21.917   3.735  50.820  1.00  0.00    -0.209 N 
HETATM   21  C12 UNL     1      21.779   3.514  49.391  1.00  0.00     0.169 C 
HETATM   22  C13 UNL     1      23.086   3.929  48.778  1.00  0.00    -0.003 C 
HETATM   23  C14 UNL     1      23.672   4.979  49.362  1.00  0.00    -0.066 C 
HETATM   24  C15 UNL     1      24.990   5.534  48.880  1.00  0.00     0.044 C 
HETATM   25  C16 UNL     1      23.173   5.758  50.527  1.00  0.00     0.159 C 
HETATM   26  C18 UNL     1      22.048   5.093  51.264  1.00  0.00     0.166 C 
BRANCH  25  27
HETATM   27  S1  UNL     1      22.611   7.373  50.033  1.00  0.00     0.171 S 
HETATM   28  O1  UNL     1      21.503   7.757  51.003  1.00  0.00    -0.223 OA
HETATM   29  O2  UNL     1      23.679   8.414  50.146  1.00  0.00    -0.223 OA
BRANCH  27  30
HETATM   30  P1  UNL     1      21.776   7.326  48.088  1.00  0.00    -0.004 P 
HETATM   31  C17 UNL     1      20.070   6.573  48.127  1.00  0.00     0.057 C 
HETATM   32  H21 UNL     1      22.593   6.561  47.175  1.00  0.00     0.073 HD
ENDBRANCH  27  30
ENDBRANCH  25  27
ENDBRANCH   5  20
TORSDOF 6
ENDMDL
MODEL 5
REMARK VINA RESULT:      -7.8      3.788      5.663
REMARK  6 active torsions:
REMARK  status: ('A' for Active; 'I' for Inactive)
REMARK    1  A    between atoms: C2_2  and  C3_3 
REMARK    2  A    between atoms: C6_6  and  N1_7 
REMARK    3  A    between atoms: N1_7  and  C8_9 
REMARK    4  A    between atoms: C11_13  and  N3_14 
REMARK    5  A    between atoms: C16_19  and  S1_20 
REMARK    6  A    between atoms: S1_20  and  P1_23 
ROOT
HETATM    1  C8  UNL     1      24.282   3.548  51.820  1.00  0.00     0.150 A 
HETATM    2  C9  UNL     1      23.008   3.323  52.287  1.00  0.00     0.071 A 
HETATM    3  C10 UNL     1      22.128   4.381  52.169  1.00  0.00     0.140 A 
HETATM    4  N2  UNL     1      22.445   5.576  51.640  1.00  0.00    -0.075 NA
HETATM    5  C11 UNL     1      23.715   5.754  51.191  1.00  0.00     0.726 A 
HETATM    6  N4  UNL     1      24.601   4.745  51.289  1.00  0.00    -0.045 NA
ENDROOT
BRANCH   1   7
HETATM    7  N1  UNL     1      25.269   2.503  51.900  1.00  0.00    -0.339 N 
HETATM    8  C7  UNL     1      26.323   2.799  50.943  1.00  0.00     0.158 C 
BRANCH   7   9
HETATM    9  C6  UNL     1      25.426   1.299  52.682  1.00  0.00     0.018 C 
HETATM   10  C5  UNL     1      24.551   0.177  52.262  1.00  0.00     0.086 C 
HETATM   11  C4  UNL     1      23.709  -0.371  53.337  1.00  0.00     0.006 C 
HETATM   12  C3  UNL     1      23.933  -0.873  54.562  1.00  0.00     0.024 C 
HETATM   13  N6  UNL     1      25.117  -1.080  55.335  1.00  0.00    -0.283 N 
HETATM   14  N5  UNL     1      26.351  -0.414  55.321  1.00  0.00    -0.187 NA
HETATM   15  H29 UNL     1      25.003  -1.859  56.006  1.00  0.00     0.189 HD
HETATM   16  C20 UNL     1      26.876   0.571  54.682  1.00  0.00     0.140 C 
HETATM   17  C19 UNL     1      26.341   1.448  53.638  1.00  0.00     0.046 C 
BRANCH  12  18
HETATM   18  C2  UNL     1      22.688  -1.315  55.287  1.00  0.00     0.054 C 
HETATM   19  C1  UNL     1      21.579  -1.276  54.248  1.00  0.00     0.011 C 
ENDBRANCH  12  18
ENDBRANCH   7   9
ENDBRANCH   1   7
BRANCH   5  20
HETATM   20  N3  UNL     1      24.074   6.995  50.632  1.00  0.00    -0.209 N 
HETATM   21  C12 UNL     1      23.064   7.918  50.144  1.00  0.00     0.169 C 
HETATM   22  C13 UNL     1      23.256   7.995  48.656  1.00  0.00    -0.003 C 
HETATM   23  C14 UNL     1      24.527   7.928  48.249  1.00  0.00    -0.066 C 
HETATM   24  C15 UNL     1      24.908   7.989  46.790  1.00  0.00     0.044 C 
HETATM   25  C16 UNL     1      25.740   7.789  49.099  1.00  0.00     0.159 C 
HETATM   26  C18 UNL     1      25.445   7.403  50.518  1.00  0.00     0.166 C 
BRANCH  25  27
HETATM   27  S1  UNL     1      26.680   9.299  49.137  1.00  0.00     0.171 S 
HETATM   28  O1  UNL     1      25.753  10.395  48.634  1.00  0.00    -0.223 OA
HETATM   29  O2  UNL     1      27.104   9.679  50.520  1.00  0.00    -0.223 OA
BRANCH  27  30
HETATM   30  P1  UNL     1      28.334   9.199  47.819  1.00  0.00    -0.004 P 
HETATM   31  C17 UNL     1      29.351   7.673  48.160  1.00  0.00     0.057 C 
HETATM   32  H21 UNL     1      29.189  10.357  47.946  1.00  0.00     0.073 HD
ENDBRANCH  27  30
ENDBRANCH  25  27
ENDBRANCH   5  20
TORSDOF 6
ENDMDL
MODEL 6
REMARK VINA RESULT:      -7.7      2.116      3.626
REMARK  6 active torsions:
REMARK  status: ('A' for Active; 'I' for Inactive)
REMARK    1  A    between atoms: C2_2  and  C3_3 
REMARK    2  A    between atoms: C6_6  and  N1_7 
REMARK    3  A    between atoms: N1_7  and  C8_9 
REMARK    4  A    between atoms: C11_13  and  N3_14 
REMARK    5  A    between atoms: C16_19  and  S1_20 
REMARK    6  A    between atoms: S1_20  and  P1_23 
ROOT
HETATM    1  C8  UNL     1      20.465   0.592  52.025  1.00  0.00     0.150 A 
HETATM    2  C9  UNL     1      19.281   0.121  51.504  1.00  0.00     0.071 A 
HETATM    3  C10 UNL     1      18.764   0.837  50.443  1.00  0.00     0.140 A 
HETATM    4  N2  UNL     1      19.338   1.931  49.914  1.00  0.00    -0.075 NA
HETATM    5  C11 UNL     1      20.506   2.361  50.459  1.00  0.00     0.726 A 
HETATM    6  N4  UNL     1      21.042   1.689  51.495  1.00  0.00    -0.045 NA
ENDROOT
BRANCH   1   7
HETATM    7  N1  UNL     1      21.081  -0.089  53.134  1.00  0.00    -0.339 N 
HETATM    8  C7  UNL     1      20.100  -0.992  53.714  1.00  0.00     0.158 C 
BRANCH   7   9
HETATM    9  C6  UNL     1      22.386  -0.068  53.751  1.00  0.00     0.018 C 
HETATM   10  C5  UNL     1      23.314   0.944  53.191  1.00  0.00     0.086 C 
HETATM   11  C4  UNL     1      24.595   0.398  52.718  1.00  0.00     0.006 C 
HETATM   12  C3  UNL     1      25.574  -0.345  53.260  1.00  0.00     0.024 C 
HETATM   13  N6  UNL     1      25.766  -0.919  54.555  1.00  0.00    -0.283 N 
HETATM   14  N5  UNL     1      24.840  -1.332  55.522  1.00  0.00    -0.187 NA
HETATM   15  H29 UNL     1      26.771  -1.032  54.776  1.00  0.00     0.189 HD
HETATM   16  C20 UNL     1      23.560  -1.378  55.634  1.00  0.00     0.140 C 
HETATM   17  C19 UNL     1      22.489  -0.982  54.716  1.00  0.00     0.046 C 
BRANCH  12  18
HETATM   18  C2  UNL     1      26.715  -0.644  52.323  1.00  0.00     0.054 C 
HETATM   19  C1  UNL     1      27.955  -0.710  53.200  1.00  0.00     0.011 C 
ENDBRANCH  12  18
ENDBRANCH   7   9
ENDBRANCH   1   7
BRANCH   5  20
HETATM   20  N3  UNL     1      21.130   3.504  49.924  1.00  0.00    -0.209 N 
HETATM   21  C12 UNL     1      21.627   3.517  48.558  1.00  0.00     0.169 C 
HETATM   22  C13 UNL     1      23.122   3.621  48.662  1.00  0.00    -0.003 C 
HETATM   23  C14 UNL     1      23.564   4.378  49.671  1.00  0.00    -0.066 C 
HETATM   24  C15 UNL     1      25.036   4.595  49.928  1.00  0.00     0.044 C 
HETATM   25  C16 UNL     1      22.746   5.109  50.676  1.00  0.00     0.159 C 
HETATM   26  C18 UNL     1      21.303   4.700  50.696  1.00  0.00     0.166 C 
BRANCH  25  27
HETATM   27  S1  UNL     1      22.802   6.866  50.402  1.00  0.00     0.171 S 
HETATM   28  O1  UNL     1      21.484   7.424  50.917  1.00  0.00    -0.223 OA
HETATM   29  O2  UNL     1      23.897   7.535  51.171  1.00  0.00    -0.223 OA
BRANCH  27  30
HETATM   30  P1  UNL     1      22.924   7.310  48.335  1.00  0.00    -0.004 P 
HETATM   31  C17 UNL     1      21.228   7.276  47.558  1.00  0.00     0.057 C 
HETATM   32  H21 UNL     1      23.767   6.368  47.635  1.00  0.00     0.073 HD
ENDBRANCH  27  30
ENDBRANCH  25  27
ENDBRANCH   5  20
TORSDOF 6
ENDMDL
MODEL 7
REMARK VINA RESULT:      -7.6      3.546      5.386
REMARK  6 active torsions:
REMARK  status: ('A' for Active; 'I' for Inactive)
REMARK    1  A    between atoms: C2_2  and  C3_3 
REMARK    2  A    between atoms: C6_6  and  N1_7 
REMARK    3  A    between atoms: N1_7  and  C8_9 
REMARK    4  A    between atoms: C11_13  and  N3_14 
REMARK    5  A    between atoms: C16_19  and  S1_20 
REMARK    6  A    between atoms: S1_20  and  P1_23 
ROOT
HETATM    1  C8  UNL     1      25.556   3.478  50.472  1.00  0.00     0.150 A 
HETATM    2  C9  UNL     1      26.732   3.228  49.802  1.00  0.00     0.071 A 
HETATM    3  C10 UNL     1      27.181   4.240  48.976  1.00  0.00     0.140 A 
HETATM    4  N2  UNL     1      26.549   5.413  48.801  1.00  0.00    -0.075 NA
HETATM    5  C11 UNL     1      25.391   5.617  49.482  1.00  0.00     0.726 A 
HETATM    6  N4  UNL     1      24.921   4.655  50.296  1.00  0.00    -0.045 NA
ENDROOT
BRANCH   1   7
HETATM    7  N1  UNL     1      25.010   2.483  51.356  1.00  0.00    -0.339 N 
HETATM    8  C7  UNL     1      23.650   2.193  50.930  1.00  0.00     0.158 C 
BRANCH   7   9
HETATM    9  C6  UNL     1      25.496   1.755  52.505  1.00  0.00     0.018 C 
HETATM   10  C5  UNL     1      26.625   2.406  53.211  1.00  0.00     0.086 C 
HETATM   11  C4  UNL     1      27.818   1.558  53.361  1.00  0.00     0.006 C 
HETATM   12  C3  UNL     1      28.067   0.343  53.876  1.00  0.00     0.024 C 
HETATM   13  N6  UNL     1      27.243  -0.641  54.505  1.00  0.00    -0.283 N 
HETATM   14  N5  UNL     1      25.875  -0.916  54.370  1.00  0.00    -0.187 NA
HETATM   15  H29 UNL     1      27.786  -1.230  55.160  1.00  0.00     0.189 HD
HETATM   16  C20 UNL     1      24.891  -0.454  53.683  1.00  0.00     0.140 C 
HETATM   17  C19 UNL     1      24.815   0.625  52.696  1.00  0.00     0.046 C 
BRANCH  12  18
HETATM   18  C2  UNL     1      29.507  -0.087  53.781  1.00  0.00     0.054 C 
HETATM   19  C1  UNL     1      29.468  -1.554  53.381  1.00  0.00     0.011 C 
ENDBRANCH  12  18
ENDBRANCH   7   9
ENDBRANCH   1   7
BRANCH   5  20
HETATM   20  N3  UNL     1      24.708   6.838  49.317  1.00  0.00    -0.209 N 
HETATM   21  C12 UNL     1      24.590   7.785  50.413  1.00  0.00     0.169 C 
HETATM   22  C13 UNL     1      23.130   7.832  50.765  1.00  0.00    -0.003 C 
HETATM   23  C14 UNL     1      22.297   7.718  49.726  1.00  0.00    -0.066 C 
HETATM   24  C15 UNL     1      20.797   7.743  49.891  1.00  0.00     0.044 C 
HETATM   25  C16 UNL     1      22.661   7.553  48.292  1.00  0.00     0.159 C 
HETATM   26  C18 UNL     1      24.101   7.200  48.069  1.00  0.00     0.166 C 
BRANCH  25  27
HETATM   27  S1  UNL     1      22.321   9.033  47.365  1.00  0.00     0.171 S 
HETATM   28  O1  UNL     1      20.949   8.841  46.736  1.00  0.00    -0.223 OA
HETATM   29  O2  UNL     1      22.245  10.251  48.229  1.00  0.00    -0.223 OA
BRANCH  27  30
HETATM   30  P1  UNL     1      23.718   9.284  45.793  1.00  0.00    -0.004 P 
HETATM   31  C17 UNL     1      23.443   8.005  44.464  1.00  0.00     0.057 C 
HETATM   32  H21 UNL     1      25.079   9.169  46.266  1.00  0.00     0.073 HD
ENDBRANCH  27  30
ENDBRANCH  25  27
ENDBRANCH   5  20
TORSDOF 6
ENDMDL
MODEL 8
REMARK VINA RESULT:      -7.6      5.296      8.151
REMARK  6 active torsions:
REMARK  status: ('A' for Active; 'I' for Inactive)
REMARK    1  A    between atoms: C2_2  and  C3_3 
REMARK    2  A    between atoms: C6_6  and  N1_7 
REMARK    3  A    between atoms: N1_7  and  C8_9 
REMARK    4  A    between atoms: C11_13  and  N3_14 
REMARK    5  A    between atoms: C16_19  and  S1_20 
REMARK    6  A    between atoms: S1_20  and  P1_23 
ROOT
HETATM    1  C8  UNL     1      25.081   5.179  50.266  1.00  0.00     0.150 A 
HETATM    2  C9  UNL     1      25.692   3.967  50.040  1.00  0.00     0.071 A 
HETATM    3  C10 UNL     1      26.823   4.001  49.249  1.00  0.00     0.140 A 
HETATM    4  N2  UNL     1      27.338   5.120  48.709  1.00  0.00    -0.075 NA
HETATM    5  C11 UNL     1      26.702   6.295  48.958  1.00  0.00     0.726 A 
HETATM    6  N4  UNL     1      25.596   6.301  49.725  1.00  0.00    -0.045 NA
ENDROOT
BRANCH   1   7
HETATM    7  N1  UNL     1      23.895   5.243  51.080  1.00  0.00    -0.339 N 
HETATM    8  C7  UNL     1      23.354   6.589  50.988  1.00  0.00     0.158 C 
BRANCH   7   9
HETATM    9  C6  UNL     1      23.173   4.311  51.914  1.00  0.00     0.018 C 
HETATM   10  C5  UNL     1      23.986   3.695  52.990  1.00  0.00     0.086 C 
HETATM   11  C4  UNL     1      23.984   2.223  52.986  1.00  0.00     0.006 C 
HETATM   12  C3  UNL     1      23.038   1.270  53.018  1.00  0.00     0.024 C 
HETATM   13  N6  UNL     1      21.611   1.308  53.069  1.00  0.00    -0.283 N 
HETATM   14  N5  UNL     1      20.701   2.276  52.620  1.00  0.00    -0.187 NA
HETATM   15  H29 UNL     1      21.223   0.461  53.521  1.00  0.00     0.189 HD
HETATM   16  C20 UNL     1      20.762   3.411  52.020  1.00  0.00     0.140 C 
HETATM   17  C19 UNL     1      21.901   4.195  51.536  1.00  0.00     0.046 C 
BRANCH  12  18
HETATM   18  C2  UNL     1      23.576  -0.137  52.995  1.00  0.00     0.054 C 
HETATM   19  C1  UNL     1      22.396  -1.029  53.347  1.00  0.00     0.011 C 
ENDBRANCH  12  18
ENDBRANCH   7   9
ENDBRANCH   1   7
BRANCH   5  20
HETATM   20  N3  UNL     1      27.219   7.482  48.406  1.00  0.00    -0.209 N 
HETATM   21  C12 UNL     1      28.218   7.445  47.350  1.00  0.00     0.169 C 
HETATM   22  C13 UNL     1      29.473   8.015  47.947  1.00  0.00    -0.003 C 
HETATM   23  C14 UNL     1      29.280   9.011  48.817  1.00  0.00    -0.066 C 
HETATM   24  C15 UNL     1      30.426   9.703  49.514  1.00  0.00     0.044 C 
HETATM   25  C16 UNL     1      27.980   9.597  49.244  1.00  0.00     0.159 C 
HETATM   26  C18 UNL     1      26.788   8.774  48.855  1.00  0.00     0.166 C 
BRANCH  25  27
HETATM   27  S1  UNL     1      27.751  11.226  48.567  1.00  0.00     0.171 S 
HETATM   28  O1  UNL     1      26.256  11.502  48.608  1.00  0.00    -0.223 OA
HETATM   29  O2  UNL     1      28.419  12.288  49.382  1.00  0.00    -0.223 OA
BRANCH  27  30
HETATM   30  P1  UNL     1      28.364  11.302  46.542  1.00  0.00    -0.004 P 
HETATM   31  C17 UNL     1      30.089  12.001  46.406  1.00  0.00     0.057 C 
HETATM   32  H21 UNL     1      27.476  12.117  45.745  1.00  0.00     0.073 HD
ENDBRANCH  27  30
ENDBRANCH  25  27
ENDBRANCH   5  20
TORSDOF 6
ENDMDL
MODEL 9
REMARK VINA RESULT:      -7.6      3.084      4.103
REMARK  6 active torsions:
REMARK  status: ('A' for Active; 'I' for Inactive)
REMARK    1  A    between atoms: C2_2  and  C3_3 
REMARK    2  A    between atoms: C6_6  and  N1_7 
REMARK    3  A    between atoms: N1_7  and  C8_9 
REMARK    4  A    between atoms: C11_13  and  N3_14 
REMARK    5  A    between atoms: C16_19  and  S1_20 
REMARK    6  A    between atoms: S1_20  and  P1_23 
ROOT
HETATM    1  C8  UNL     1      22.774  -0.178  53.105  1.00  0.00     0.150 A 
HETATM    2  C9  UNL     1      22.370  -0.978  54.150  1.00  0.00     0.071 A 
HETATM    3  C10 UNL     1      21.009  -1.182  54.261  1.00  0.00     0.140 A 
HETATM    4  N2  UNL     1      20.093  -0.655  53.430  1.00  0.00    -0.075 NA
HETATM    5  C11 UNL     1      20.536   0.129  52.412  1.00  0.00     0.726 A 
HETATM    6  N4  UNL     1      21.856   0.350  52.271  1.00  0.00    -0.045 NA
ENDROOT
BRANCH   1   7
HETATM    7  N1  UNL     1      24.174   0.090  52.908  1.00  0.00    -0.339 N 
HETATM    8  C7  UNL     1      24.297   1.213  51.992  1.00  0.00     0.158 C 
BRANCH   7   9
HETATM    9  C6  UNL     1      25.406  -0.482  53.398  1.00  0.00     0.018 C 
HETATM   10  C5  UNL     1      25.894   0.107  54.668  1.00  0.00     0.086 C 
HETATM   11  C4  UNL     1      27.269   0.625  54.609  1.00  0.00     0.006 C 
HETATM   12  C3  UNL     1      28.466   0.119  54.269  1.00  0.00     0.024 C 
HETATM   13  N6  UNL     1      28.892  -1.167  53.814  1.00  0.00    -0.283 N 
HETATM   14  N5  UNL     1      28.206  -2.165  53.108  1.00  0.00    -0.187 NA
HETATM   15  H29 UNL     1      29.878  -1.353  54.067  1.00  0.00     0.189 HD
HETATM   16  C20 UNL     1      27.030  -2.320  52.611  1.00  0.00     0.140 C 
HETATM   17  C19 UNL     1      25.859  -1.440  52.590  1.00  0.00     0.046 C 
BRANCH  12  18
HETATM   18  C2  UNL     1      29.607   1.096  54.385  1.00  0.00     0.054 C 
HETATM   19  C1  UNL     1      29.064   2.418  53.867  1.00  0.00     0.011 C 
ENDBRANCH  12  18
ENDBRANCH   7   9
ENDBRANCH   1   7
BRANCH   5  20
HETATM   20  N3  UNL     1      19.598   0.693  51.526  1.00  0.00    -0.209 N 
HETATM   21  C12 UNL     1      19.878   0.796  50.104  1.00  0.00     0.169 C 
HETATM   22  C13 UNL     1      19.980   2.264  49.806  1.00  0.00    -0.003 C 
HETATM   23  C14 UNL     1      19.144   3.039  50.505  1.00  0.00    -0.066 C 
HETATM   24  C15 UNL     1      19.108   4.539  50.337  1.00  0.00     0.044 C 
HETATM   25  C16 UNL     1      18.149   2.605  51.522  1.00  0.00     0.159 C 
HETATM   26  C18 UNL     1      18.332   1.189  51.983  1.00  0.00     0.166 C 
BRANCH  25  27
HETATM   27  S1  UNL     1      16.486   2.758  50.907  1.00  0.00     0.171 S 
HETATM   28  O1  UNL     1      15.594   2.019  51.893  1.00  0.00    -0.223 OA
HETATM   29  O2  UNL     1      16.017   4.178  50.863  1.00  0.00    -0.223 OA
BRANCH  27  30
HETATM   30  P1  UNL     1      16.282   1.815  49.022  1.00  0.00    -0.004 P 
HETATM   31  C17 UNL     1      16.135  -0.033  49.229  1.00  0.00     0.057 C 
HETATM   32  H21 UNL     1      17.409   2.092  48.162  1.00  0.00     0.073 HD
ENDBRANCH  27  30
ENDBRANCH  25  27
ENDBRANCH   5  20
TORSDOF 6
ENDMDL
