MODEL 1
REMARK VINA RESULT:      -7.6      0.000      0.000
REMARK  1 active torsions:
REMARK  status: ('A' for Active; 'I' for Inactive)
REMARK    1  A    between atoms: O1_2  and  C2_3 
ROOT
HETATM    1  C2  UNL     1      26.202   0.702  53.425  1.00  0.00     0.118 C 
HETATM    2  C3  UNL     1      26.310  -0.278  54.324  1.00  0.00     0.173 C 
HETATM    3  O2  UNL     1      25.300  -0.857  55.122  1.00  0.00    -0.360 OA
HETATM    4  C4  UNL     1      24.003  -0.723  54.515  1.00  0.00     0.174 C 
HETATM    5  C5  UNL     1      22.955  -1.574  55.151  1.00  0.00     0.027 C 
HETATM    6  C6  UNL     1      21.672  -1.403  54.381  1.00  0.00     0.002 C 
HETATM    7  C7  UNL     1      21.107  -0.016  54.446  1.00  0.00     0.001 C 
HETATM    8  C8  UNL     1      19.861   0.107  53.594  1.00  0.00     0.009 C 
HETATM    9  C9  UNL     1      20.142  -0.106  52.134  1.00  0.00     0.105 C 
HETATM   10  C10 UNL     1      21.040   0.930  51.580  1.00  0.00     0.241 C 
HETATM   11  O3  UNL     1      21.425   1.927  52.285  1.00  0.00    -0.271 OA
HETATM   12  N1  UNL     1      21.870   1.686  50.721  1.00  0.00    -0.232 N 
HETATM   13  O4  UNL     1      22.552   2.814  50.850  1.00  0.00    -0.241 OA
HETATM   14  C11 UNL     1      23.863   2.664  51.223  1.00  0.00     0.179 C 
HETATM   15  C12 UNL     1      24.801   2.835  50.010  1.00  0.00     0.078 C 
HETATM   16  C13 UNL     1      24.194   1.423  51.943  1.00  0.00     0.070 C 
HETATM   17  C14 UNL     1      25.136   1.542  52.897  1.00  0.00     0.094 C 
HETATM   18  N2  UNL     1      25.253   2.756  53.674  1.00  0.00    -0.242 NA
HETATM   19  C15 UNL     1      24.438   3.766  53.459  1.00  0.00     0.205 C 
HETATM   20  N3  UNL     1      24.165   3.855  52.053  1.00  0.00    -0.348 N 
HETATM   21  H17 UNL     1      21.672   0.938  49.988  1.00  0.00     0.197 HD
HETATM   22  H23 UNL     1      24.154   4.770  51.502  1.00  0.00     0.163 HD
ENDROOT
BRANCH   1  23
HETATM   23  O1  UNL     1      27.389   1.086  52.766  1.00  0.00    -0.352 OA
HETATM   24  C1  UNL     1      28.635   1.158  53.405  1.00  0.00     0.210 C 
ENDBRANCH   1  23
TORSDOF 1
ENDMDL
MODEL 2
REMARK VINA RESULT:      -7.5      1.935      3.822
REMARK  1 active torsions:
REMARK  status: ('A' for Active; 'I' for Inactive)
REMARK    1  A    between atoms: O1_2  and  C2_3 
ROOT
HETATM    1  C2  UNL     1      25.250   3.751  50.131  1.00  0.00     0.118 C 
HETATM    2  C3  UNL     1      26.513   3.331  50.232  1.00  0.00     0.173 C 
HETATM    3  O2  UNL     1      27.074   2.441  51.172  1.00  0.00    -0.360 OA
HETATM    4  C4  UNL     1      26.086   1.542  51.705  1.00  0.00     0.174 C 
HETATM    5  C5  UNL     1      26.668   0.393  52.460  1.00  0.00     0.027 C 
HETATM    6  C6  UNL     1      25.543  -0.507  52.896  1.00  0.00     0.002 C 
HETATM    7  C7  UNL     1      24.599   0.131  53.871  1.00  0.00     0.001 C 
HETATM    8  C8  UNL     1      23.453  -0.800  54.212  1.00  0.00     0.009 C 
HETATM    9  C9  UNL     1      22.595  -1.111  53.020  1.00  0.00     0.105 C 
HETATM   10  C10 UNL     1      21.914   0.090  52.491  1.00  0.00     0.241 C 
HETATM   11  O3  UNL     1      22.005   1.224  53.080  1.00  0.00    -0.271 OA
HETATM   12  N1  UNL     1      21.143   0.976  51.702  1.00  0.00    -0.232 N 
HETATM   13  O4  UNL     1      20.839   2.261  51.784  1.00  0.00    -0.241 OA
HETATM   14  C11 UNL     1      21.668   3.103  51.088  1.00  0.00     0.179 C 
HETATM   15  C12 UNL     1      21.007   3.556  49.770  1.00  0.00     0.078 C 
HETATM   16  C13 UNL     1      23.026   2.600  50.822  1.00  0.00     0.070 C 
HETATM   17  C14 UNL     1      24.001   3.529  50.845  1.00  0.00     0.094 C 
HETATM   18  N2  UNL     1      23.926   4.658  51.745  1.00  0.00    -0.242 NA
HETATM   19  C15 UNL     1      22.901   4.796  52.558  1.00  0.00     0.205 C 
HETATM   20  N3  UNL     1      21.711   4.350  51.889  1.00  0.00    -0.348 N 
HETATM   21  H17 UNL     1      20.956   0.137  51.072  1.00  0.00     0.197 HD
HETATM   22  H23 UNL     1      20.778   4.869  51.918  1.00  0.00     0.163 HD
ENDROOT
BRANCH   1  23
HETATM   23  O1  UNL     1      24.967   4.651  49.082  1.00  0.00    -0.352 OA
HETATM   24  C1  UNL     1      25.713   5.814  48.843  1.00  0.00     0.210 C 
ENDBRANCH   1  23
TORSDOF 1
ENDMDL
MODEL 3
REMARK VINA RESULT:      -7.2      2.130      5.172
REMARK  1 active torsions:
REMARK  status: ('A' for Active; 'I' for Inactive)
REMARK    1  A    between atoms: O1_2  and  C2_3 
ROOT
HETATM    1  C2  UNL     1      22.690   0.441  53.055  1.00  0.00     0.118 C 
HETATM    2  C3  UNL     1      23.806  -0.162  53.469  1.00  0.00     0.173 C 
HETATM    3  O2  UNL     1      25.104  -0.085  52.923  1.00  0.00    -0.360 OA
HETATM    4  C4  UNL     1      25.304   1.145  52.204  1.00  0.00     0.174 C 
HETATM    5  C5  UNL     1      26.734   1.418  51.873  1.00  0.00     0.027 C 
HETATM    6  C6  UNL     1      26.817   2.760  51.196  1.00  0.00     0.002 C 
HETATM    7  C7  UNL     1      26.118   2.813  49.871  1.00  0.00     0.001 C 
HETATM    8  C8  UNL     1      26.176   4.207  49.278  1.00  0.00     0.009 C 
HETATM    9  C9  UNL     1      25.449   5.216  50.118  1.00  0.00     0.105 C 
HETATM   10  C10 UNL     1      23.998   4.939  50.197  1.00  0.00     0.241 C 
HETATM   11  O3  UNL     1      23.462   3.988  49.527  1.00  0.00    -0.271 OA
HETATM   12  N1  UNL     1      22.624   4.986  50.528  1.00  0.00    -0.232 N 
HETATM   13  O4  UNL     1      21.560   4.287  50.166  1.00  0.00    -0.241 OA
HETATM   14  C11 UNL     1      21.245   3.235  50.987  1.00  0.00     0.179 C 
HETATM   15  C12 UNL     1      20.060   3.595  51.907  1.00  0.00     0.078 C 
HETATM   16  C13 UNL     1      22.352   2.683  51.785  1.00  0.00     0.070 C 
HETATM   17  C14 UNL     1      22.315   1.351  51.982  1.00  0.00     0.094 C 
HETATM   18  N2  UNL     1      21.786   0.468  50.966  1.00  0.00    -0.242 NA
HETATM   19  C15 UNL     1      21.331   0.954  49.831  1.00  0.00     0.205 C 
HETATM   20  N3  UNL     1      20.673   2.204  50.088  1.00  0.00    -0.348 N 
HETATM   21  H17 UNL     1      22.879   5.806  51.162  1.00  0.00     0.197 HD
HETATM   22  H23 UNL     1      19.737   2.488  49.658  1.00  0.00     0.163 HD
ENDROOT
BRANCH   1  23
HETATM   23  O1  UNL     1      21.519   0.181  53.799  1.00  0.00    -0.352 OA
HETATM   24  C1  UNL     1      21.347  -0.965  54.586  1.00  0.00     0.210 C 
ENDBRANCH   1  23
TORSDOF 1
ENDMDL
MODEL 4
REMARK VINA RESULT:      -7.2      1.804      5.018
REMARK  1 active torsions:
REMARK  status: ('A' for Active; 'I' for Inactive)
REMARK    1  A    between atoms: O1_2  and  C2_3 
ROOT
HETATM    1  C2  UNL     1      20.230   2.097  52.333  1.00  0.00     0.118 C 
HETATM    2  C3  UNL     1      19.641   1.089  52.980  1.00  0.00     0.173 C 
HETATM    3  O2  UNL     1      20.204  -0.131  53.410  1.00  0.00    -0.360 OA
HETATM    4  C4  UNL     1      21.622  -0.016  53.620  1.00  0.00     0.174 C 
HETATM    5  C5  UNL     1      22.213  -1.169  54.361  1.00  0.00     0.027 C 
HETATM    6  C6  UNL     1      23.676  -0.892  54.582  1.00  0.00     0.002 C 
HETATM    7  C7  UNL     1      24.477  -0.822  53.317  1.00  0.00     0.001 C 
HETATM    8  C8  UNL     1      25.922  -0.469  53.604  1.00  0.00     0.009 C 
HETATM    9  C9  UNL     1      26.069   0.897  54.208  1.00  0.00     0.105 C 
HETATM   10  C10 UNL     1      25.632   1.968  53.286  1.00  0.00     0.241 C 
HETATM   11  O3  UNL     1      25.271   1.708  52.085  1.00  0.00    -0.271 OA
HETATM   12  N1  UNL     1      25.293   3.221  52.727  1.00  0.00    -0.232 N 
HETATM   13  O4  UNL     1      24.863   3.619  51.539  1.00  0.00    -0.241 OA
HETATM   14  C11 UNL     1      23.502   3.716  51.413  1.00  0.00     0.179 C 
HETATM   15  C12 UNL     1      23.047   5.188  51.501  1.00  0.00     0.078 C 
HETATM   16  C13 UNL     1      22.705   2.888  52.333  1.00  0.00     0.070 C 
HETATM   17  C14 UNL     1      21.562   2.392  51.823  1.00  0.00     0.094 C 
HETATM   18  N2  UNL     1      21.473   2.024  50.427  1.00  0.00    -0.242 NA
HETATM   19  C15 UNL     1      22.512   2.168  49.633  1.00  0.00     0.205 C 
HETATM   20  N3  UNL     1      23.220   3.361  50.001  1.00  0.00    -0.348 N 
HETATM   21  H17 UNL     1      25.543   3.633  53.678  1.00  0.00     0.197 HD
HETATM   22  H23 UNL     1      23.598   4.073  49.300  1.00  0.00     0.163 HD
ENDROOT
BRANCH   1  23
HETATM   23  O1  UNL     1      19.418   3.209  52.025  1.00  0.00    -0.352 OA
HETATM   24  C1  UNL     1      18.093   3.094  51.582  1.00  0.00     0.210 C 
ENDBRANCH   1  23
TORSDOF 1
ENDMDL
MODEL 5
REMARK VINA RESULT:      -7.0      2.340      5.543
REMARK  1 active torsions:
REMARK  status: ('A' for Active; 'I' for Inactive)
REMARK    1  A    between atoms: O1_2  and  C2_3 
ROOT
HETATM    1  C2  UNL     1      22.364   3.187  49.317  1.00  0.00     0.118 C 
HETATM    2  C3  UNL     1      23.475   3.710  48.795  1.00  0.00     0.173 C 
HETATM    3  O2  UNL     1      24.755   3.822  49.379  1.00  0.00    -0.360 OA
HETATM    4  C4  UNL     1      24.966   2.820  50.390  1.00  0.00     0.174 C 
HETATM    5  C5  UNL     1      26.390   2.694  50.818  1.00  0.00     0.027 C 
HETATM    6  C6  UNL     1      26.489   1.569  51.814  1.00  0.00     0.002 C 
HETATM    7  C7  UNL     1      25.744   1.822  53.090  1.00  0.00     0.001 C 
HETATM    8  C8  UNL     1      25.822   0.625  54.015  1.00  0.00     0.009 C 
HETATM    9  C9  UNL     1      25.157  -0.590  53.437  1.00  0.00     0.105 C 
HETATM   10  C10 UNL     1      23.703  -0.397  53.249  1.00  0.00     0.241 C 
HETATM   11  O3  UNL     1      23.114   0.669  53.644  1.00  0.00    -0.271 OA
HETATM   12  N1  UNL     1      22.344  -0.580  52.903  1.00  0.00    -0.232 N 
HETATM   13  O4  UNL     1      21.247   0.146  53.048  1.00  0.00    -0.241 OA
HETATM   14  C11 UNL     1      20.930   0.946  51.980  1.00  0.00     0.179 C 
HETATM   15  C12 UNL     1      19.791   0.322  51.147  1.00  0.00     0.078 C 
HETATM   16  C13 UNL     1      22.048   1.323  51.100  1.00  0.00     0.070 C 
HETATM   17  C14 UNL     1      21.978   2.561  50.573  1.00  0.00     0.094 C 
HETATM   18  N2  UNL     1      21.385   3.649  51.319  1.00  0.00    -0.242 NA
HETATM   19  C15 UNL     1      20.904   3.445  52.527  1.00  0.00     0.205 C 
HETATM   20  N3  UNL     1      20.294   2.147  52.574  1.00  0.00    -0.348 N 
HETATM   21  H17 UNL     1      22.647  -1.521  52.503  1.00  0.00     0.197 HD
HETATM   22  H23 UNL     1      19.353   1.944  53.036  1.00  0.00     0.163 HD
ENDROOT
BRANCH   1  23
HETATM   23  O1  UNL     1      21.214   3.207  48.499  1.00  0.00    -0.352 OA
HETATM   24  C1  UNL     1      21.265   3.333  47.104  1.00  0.00     0.210 C 
ENDBRANCH   1  23
TORSDOF 1
ENDMDL
MODEL 6
REMARK VINA RESULT:      -6.9      2.385      5.112
REMARK  1 active torsions:
REMARK  status: ('A' for Active; 'I' for Inactive)
REMARK    1  A    between atoms: O1_2  and  C2_3 
ROOT
HETATM    1  C2  UNL     1      20.808   4.335  51.027  1.00  0.00     0.118 C 
HETATM    2  C3  UNL     1      19.724   3.874  51.655  1.00  0.00     0.173 C 
HETATM    3  O2  UNL     1      19.522   2.614  52.255  1.00  0.00    -0.360 OA
HETATM    4  C4  UNL     1      20.765   2.015  52.661  1.00  0.00     0.174 C 
HETATM    5  C5  UNL     1      20.595   0.841  53.567  1.00  0.00     0.027 C 
HETATM    6  C6  UNL     1      21.960   0.357  53.979  1.00  0.00     0.002 C 
HETATM    7  C7  UNL     1      22.784  -0.172  52.844  1.00  0.00     0.001 C 
HETATM    8  C8  UNL     1      24.168  -0.573  53.312  1.00  0.00     0.009 C 
HETATM    9  C9  UNL     1      24.959   0.596  53.826  1.00  0.00     0.105 C 
HETATM   10  C10 UNL     1      25.230   1.596  52.770  1.00  0.00     0.241 C 
HETATM   11  O3  UNL     1      24.891   1.391  51.553  1.00  0.00    -0.271 OA
HETATM   12  N1  UNL     1      25.650   2.753  52.074  1.00  0.00    -0.232 N 
HETATM   13  O4  UNL     1      25.597   3.141  50.809  1.00  0.00    -0.241 OA
HETATM   14  C11 UNL     1      24.506   3.902  50.477  1.00  0.00     0.179 C 
HETATM   15  C12 UNL     1      24.887   5.395  50.386  1.00  0.00     0.078 C 
HETATM   16  C13 UNL     1      23.318   3.738  51.331  1.00  0.00     0.070 C 
HETATM   17  C14 UNL     1      22.134   3.832  50.698  1.00  0.00     0.094 C 
HETATM   18  N2  UNL     1      21.984   3.367  49.336  1.00  0.00    -0.242 NA
HETATM   19  C15 UNL     1      23.007   2.845  48.694  1.00  0.00     0.205 C 
HETATM   20  N3  UNL     1      24.202   3.545  49.070  1.00  0.00    -0.348 N 
HETATM   21  H17 UNL     1      25.997   3.108  53.017  1.00  0.00     0.197 HD
HETATM   22  H23 UNL     1      24.956   3.856  48.381  1.00  0.00     0.163 HD
ENDROOT
BRANCH   1  23
HETATM   23  O1  UNL     1      20.731   5.649  50.519  1.00  0.00    -0.352 OA
HETATM   24  C1  UNL     1      21.500   6.711  51.014  1.00  0.00     0.210 C 
ENDBRANCH   1  23
TORSDOF 1
ENDMDL
MODEL 7
REMARK VINA RESULT:      -6.9      1.983      3.180
REMARK  1 active torsions:
REMARK  status: ('A' for Active; 'I' for Inactive)
REMARK    1  A    between atoms: O1_2  and  C2_3 
ROOT
HETATM    1  C2  UNL     1      24.163   0.774  52.877  1.00  0.00     0.118 C 
HETATM    2  C3  UNL     1      23.358  -0.145  53.413  1.00  0.00     0.173 C 
HETATM    3  O2  UNL     1      21.953  -0.245  53.328  1.00  0.00    -0.360 OA
HETATM    4  C4  UNL     1      21.448   0.393  52.142  1.00  0.00     0.174 C 
HETATM    5  C5  UNL     1      20.025   0.057  51.842  1.00  0.00     0.027 C 
HETATM    6  C6  UNL     1      19.643   0.720  50.545  1.00  0.00     0.002 C 
HETATM    7  C7  UNL     1      19.661   2.218  50.603  1.00  0.00     0.001 C 
HETATM    8  C8  UNL     1      19.340   2.821  49.250  1.00  0.00     0.009 C 
HETATM    9  C9  UNL     1      20.371   2.480  48.213  1.00  0.00     0.105 C 
HETATM   10  C10 UNL     1      21.698   3.048  48.535  1.00  0.00     0.241 C 
HETATM   11  O3  UNL     1      21.869   3.817  49.545  1.00  0.00    -0.271 OA
HETATM   12  N1  UNL     1      23.072   3.382  48.512  1.00  0.00    -0.232 N 
HETATM   13  O4  UNL     1      23.853   4.136  49.270  1.00  0.00    -0.241 OA
HETATM   14  C11 UNL     1      24.507   3.473  50.276  1.00  0.00     0.179 C 
HETATM   15  C12 UNL     1      25.982   3.221  49.897  1.00  0.00     0.078 C 
HETATM   16  C13 UNL     1      23.886   2.220  50.736  1.00  0.00     0.070 C 
HETATM   17  C14 UNL     1      24.008   1.964  52.053  1.00  0.00     0.094 C 
HETATM   18  N2  UNL     1      24.015   3.041  53.018  1.00  0.00    -0.242 NA
HETATM   19  C15 UNL     1      23.903   4.291  52.623  1.00  0.00     0.205 C 
HETATM   20  N3  UNL     1      24.606   4.455  51.383  1.00  0.00    -0.348 N 
HETATM   21  H17 UNL     1      23.134   2.765  47.645  1.00  0.00     0.197 HD
HETATM   22  H23 UNL     1      25.243   5.283  51.160  1.00  0.00     0.163 HD
ENDROOT
BRANCH   1  23
HETATM   23  O1  UNL     1      25.543   0.627  53.128  1.00  0.00    -0.352 OA
HETATM   24  C1  UNL     1      26.412  -0.060  52.268  1.00  0.00     0.210 C 
ENDBRANCH   1  23
TORSDOF 1
ENDMDL
MODEL 8
REMARK VINA RESULT:      -6.7      9.167     12.609
REMARK  1 active torsions:
REMARK  status: ('A' for Active; 'I' for Inactive)
REMARK    1  A    between atoms: O1_2  and  C2_3 
ROOT
HETATM    1  C2  UNL     1      29.361   6.220  48.200  1.00  0.00     0.118 C 
HETATM    2  C3  UNL     1      28.546   7.271  48.309  1.00  0.00     0.173 C 
HETATM    3  O2  UNL     1      28.871   8.644  48.292  1.00  0.00    -0.360 OA
HETATM    4  C4  UNL     1      30.094   8.890  47.577  1.00  0.00     0.174 C 
HETATM    5  C5  UNL     1      30.324  10.331  47.263  1.00  0.00     0.027 C 
HETATM    6  C6  UNL     1      31.587  10.445  46.452  1.00  0.00     0.002 C 
HETATM    7  C7  UNL     1      32.822  10.031  47.193  1.00  0.00     0.001 C 
HETATM    8  C8  UNL     1      34.044  10.099  46.301  1.00  0.00     0.009 C 
HETATM    9  C9  UNL     1      33.967   9.138  45.150  1.00  0.00     0.105 C 
HETATM   10  C10 UNL     1      33.949   7.729  45.597  1.00  0.00     0.241 C 
HETATM   11  O3  UNL     1      34.084   7.418  46.832  1.00  0.00    -0.271 OA
HETATM   12  N1  UNL     1      33.880   6.317  45.629  1.00  0.00    -0.232 N 
HETATM   13  O4  UNL     1      33.960   5.408  46.588  1.00  0.00    -0.241 OA
HETATM   14  C11 UNL     1      32.760   5.015  47.121  1.00  0.00     0.179 C 
HETATM   15  C12 UNL     1      32.335   3.642  46.560  1.00  0.00     0.078 C 
HETATM   16  C13 UNL     1      31.650   5.974  46.997  1.00  0.00     0.070 C 
HETATM   17  C14 UNL     1      30.791   6.002  48.033  1.00  0.00     0.094 C 
HETATM   18  N2  UNL     1      31.251   5.764  49.383  1.00  0.00    -0.242 NA
HETATM   19  C15 UNL     1      32.521   5.515  49.619  1.00  0.00     0.205 C 
HETATM   20  N3  UNL     1      33.050   4.722  48.546  1.00  0.00    -0.348 N 
HETATM   21  H17 UNL     1      33.744   6.371  44.572  1.00  0.00     0.197 HD
HETATM   22  H23 UNL     1      33.686   3.875  48.684  1.00  0.00     0.163 HD
ENDROOT
BRANCH   1  23
HETATM   23  O1  UNL     1      28.756   4.946  48.250  1.00  0.00    -0.352 OA
HETATM   24  C1  UNL     1      27.461   4.727  48.740  1.00  0.00     0.210 C 
ENDBRANCH   1  23
TORSDOF 1
ENDMDL
MODEL 9
REMARK VINA RESULT:      -6.6      3.718      6.923
REMARK  1 active torsions:
REMARK  status: ('A' for Active; 'I' for Inactive)
REMARK    1  A    between atoms: O1_2  and  C2_3 
ROOT
HETATM    1  C2  UNL     1      25.200   2.783  50.727  1.00  0.00     0.118 C 
HETATM    2  C3  UNL     1      26.425   2.543  50.254  1.00  0.00     0.173 C 
HETATM    3  O2  UNL     1      27.160   3.277  49.299  1.00  0.00    -0.360 OA
HETATM    4  C4  UNL     1      26.746   4.653  49.255  1.00  0.00     0.174 C 
HETATM    5  C5  UNL     1      27.683   5.536  48.499  1.00  0.00     0.027 C 
HETATM    6  C6  UNL     1      27.181   6.952  48.592  1.00  0.00     0.002 C 
HETATM    7  C7  UNL     1      25.856   7.170  47.927  1.00  0.00     0.001 C 
HETATM    8  C8  UNL     1      25.375   8.594  48.120  1.00  0.00     0.009 C 
HETATM    9  C9  UNL     1      25.120   8.921  49.563  1.00  0.00     0.105 C 
HETATM   10  C10 UNL     1      24.025   8.109  50.137  1.00  0.00     0.241 C 
HETATM   11  O3  UNL     1      23.341   7.304  49.413  1.00  0.00    -0.271 OA
HETATM   12  N1  UNL     1      23.089   7.526  51.022  1.00  0.00    -0.232 N 
HETATM   13  O4  UNL     1      22.116   6.639  50.888  1.00  0.00    -0.241 OA
HETATM   14  C11 UNL     1      22.470   5.340  51.145  1.00  0.00     0.179 C 
HETATM   15  C12 UNL     1      21.979   4.905  52.541  1.00  0.00     0.078 C 
HETATM   16  C13 UNL     1      23.897   5.015  50.991  1.00  0.00     0.070 C 
HETATM   17  C14 UNL     1      24.162   3.782  50.518  1.00  0.00     0.094 C 
HETATM   18  N2  UNL     1      23.279   3.151  49.563  1.00  0.00    -0.242 NA
HETATM   19  C15 UNL     1      22.200   3.774  49.140  1.00  0.00     0.205 C 
HETATM   20  N3  UNL     1      21.638   4.526  50.226  1.00  0.00    -0.348 N 
HETATM   21  H17 UNL     1      23.542   8.124  51.780  1.00  0.00     0.197 HD
HETATM   22  H23 UNL     1      20.595   4.561  50.454  1.00  0.00     0.163 HD
ENDROOT
BRANCH   1  23
HETATM   23  O1  UNL     1      24.706   1.874  51.686  1.00  0.00    -0.352 OA
HETATM   24  C1  UNL     1      24.890   2.037  53.066  1.00  0.00     0.210 C 
ENDBRANCH   1  23
TORSDOF 1
ENDMDL
