MODEL 1
REMARK VINA RESULT:      -9.0      0.000      0.000
REMARK  6 active torsions:
REMARK  status: ('A' for Active; 'I' for Inactive)
REMARK    1  A    between atoms: C3_3  and  O1_4 
REMARK    2  A    between atoms: C11_13  and  C12_14 
REMARK    3  A    between atoms: C15_17  and  C16_18 
REMARK    4  A    between atoms: C16_18  and  C17_19 
REMARK    5  A    between atoms: C17_19  and  C18_20 
REMARK    6  A    between atoms: C18_20  and  O3_22 
ROOT
HETATM    1  C1  UNL     1      18.640  -0.922  53.100  1.00  0.00     0.020 C 
HETATM    2  C2  UNL     1      19.752  -0.504  52.860  1.00  0.00    -0.050 C 
HETATM    3  C3  UNL     1      21.061   0.005  52.597  1.00  0.00     0.150 C 
HETATM    4  C5  UNL     1      21.153   0.919  51.690  1.00  0.00     0.106 C 
HETATM    5  N1  UNL     1      20.167   1.570  50.836  1.00  0.00    -0.256 NA
HETATM    6  C6  UNL     1      20.165   2.860  50.472  1.00  0.00     0.129 C 
HETATM    7  C7  UNL     1      21.425   3.687  50.378  1.00  0.00    -0.017 C 
HETATM    8  C8  UNL     1      22.579   3.053  49.975  1.00  0.00     0.013 C 
HETATM    9  C9  UNL     1      23.161   1.733  50.427  1.00  0.00     0.012 C 
HETATM   10  C10 UNL     1      22.542   1.379  51.598  1.00  0.00    -0.008 C 
HETATM   11  C11 UNL     1      23.330   1.614  52.902  1.00  0.00     0.147 C 
HETATM   12  C20 UNL     1      23.647   3.110  52.628  1.00  0.00     0.234 C 
HETATM   13  O4  UNL     1      24.116   4.222  52.452  1.00  0.00    -0.272 OA
HETATM   14  N2  UNL     1      22.501   3.887  52.316  1.00  0.00    -0.336 N 
HETATM   15  C21 UNL     1      21.869   5.100  51.958  1.00  0.00     0.092 C 
HETATM   16  C22 UNL     1      21.175   5.108  50.785  1.00  0.00     0.030 C 
HETATM   17  H18 UNL     1      21.568   3.425  52.388  1.00  0.00     0.168 HD
ENDROOT
BRANCH   3  18
HETATM   18  O1  UNL     1      22.072  -0.541  53.341  1.00  0.00    -0.345 OA
HETATM   19  C4  UNL     1      21.768  -1.080  54.639  1.00  0.00     0.211 C 
ENDBRANCH   3  18
BRANCH  11  20
HETATM   20  C12 UNL     1      24.596   0.942  52.931  1.00  0.00    -0.034 A 
HETATM   21  C13 UNL     1      25.762   1.088  52.276  1.00  0.00    -0.048 A 
HETATM   22  C14 UNL     1      26.261   2.021  51.217  1.00  0.00     0.049 C 
HETATM   23  C15 UNL     1      26.289  -0.030  53.038  1.00  0.00    -0.051 A 
HETATM   24  C19 UNL     1      25.125  -0.176  53.692  1.00  0.00     0.016 A 
BRANCH  23  25
HETATM   25  C16 UNL     1      27.593  -0.745  53.086  1.00  0.00     0.049 C 
BRANCH  25  26
HETATM   26  C17 UNL     1      28.461  -0.200  54.208  1.00  0.00     0.114 C 
BRANCH  26  27
HETATM   27  C18 UNL     1      28.919   1.161  53.858  1.00  0.00     0.139 C 
HETATM   28  O2  UNL     1      29.270   1.779  54.904  1.00  0.00    -0.650 OA
BRANCH  27  29
HETATM   29  O3  UNL     1      29.224   2.247  53.086  1.00  0.00    -0.776 OA
HETATM   30  H16 UNL     1      29.535   2.179  52.140  1.00  0.00     0.167 HD
ENDBRANCH  27  29
ENDBRANCH  26  27
ENDBRANCH  25  26
ENDBRANCH  23  25
ENDBRANCH  11  20
TORSDOF 6
ENDMDL
MODEL 2
REMARK VINA RESULT:      -8.9      3.270      5.821
REMARK  6 active torsions:
REMARK  status: ('A' for Active; 'I' for Inactive)
REMARK    1  A    between atoms: C3_3  and  O1_4 
REMARK    2  A    between atoms: C11_13  and  C12_14 
REMARK    3  A    between atoms: C15_17  and  C16_18 
REMARK    4  A    between atoms: C16_18  and  C17_19 
REMARK    5  A    between atoms: C17_19  and  C18_20 
REMARK    6  A    between atoms: C18_20  and  O3_22 
ROOT
HETATM    1  C1  UNL     1      19.933   0.245  51.147  1.00  0.00     0.020 C 
HETATM    2  C2  UNL     1      20.876   0.993  51.283  1.00  0.00    -0.050 C 
HETATM    3  C3  UNL     1      22.001   1.863  51.422  1.00  0.00     0.150 C 
HETATM    4  C5  UNL     1      22.861   1.552  52.333  1.00  0.00     0.106 C 
HETATM    5  N1  UNL     1      22.934   0.459  53.295  1.00  0.00    -0.256 NA
HETATM    6  C6  UNL     1      24.046  -0.180  53.683  1.00  0.00     0.129 C 
HETATM    7  C7  UNL     1      25.411   0.466  53.665  1.00  0.00    -0.017 C 
HETATM    8  C8  UNL     1      25.485   1.813  53.938  1.00  0.00     0.013 C 
HETATM    9  C9  UNL     1      24.646   2.952  53.403  1.00  0.00     0.012 C 
HETATM   10  C10 UNL     1      23.980   2.499  52.294  1.00  0.00    -0.008 C 
HETATM   11  C11 UNL     1      24.544   2.918  50.922  1.00  0.00     0.147 C 
HETATM   12  C20 UNL     1      25.995   2.433  51.192  1.00  0.00     0.234 C 
HETATM   13  O4  UNL     1      27.194   2.268  51.342  1.00  0.00    -0.272 OA
HETATM   14  N2  UNL     1      26.072   1.087  51.633  1.00  0.00    -0.336 N 
HETATM   15  C21 UNL     1      26.791  -0.047  52.078  1.00  0.00     0.092 C 
HETATM   16  C22 UNL     1      26.478  -0.527  53.314  1.00  0.00     0.030 C 
HETATM   17  H18 UNL     1      25.190   0.529  51.647  1.00  0.00     0.168 HD
ENDROOT
BRANCH   3  18
HETATM   18  O1  UNL     1      22.035   2.934  50.569  1.00  0.00    -0.345 OA
HETATM   19  C4  UNL     1      20.842   3.715  50.386  1.00  0.00     0.211 C 
ENDBRANCH   3  18
BRANCH  11  20
HETATM   20  C12 UNL     1      24.629   4.339  50.752  1.00  0.00    -0.034 A 
HETATM   21  C13 UNL     1      25.380   5.160  49.997  1.00  0.00    -0.048 A 
HETATM   22  C14 UNL     1      26.471   4.956  48.992  1.00  0.00     0.049 C 
HETATM   23  C15 UNL     1      24.676   6.287  50.581  1.00  0.00    -0.051 A 
HETATM   24  C19 UNL     1      23.924   5.467  51.336  1.00  0.00     0.016 A 
BRANCH  23  25
HETATM   25  C16 UNL     1      24.745   7.765  50.424  1.00  0.00     0.049 C 
BRANCH  25  26
HETATM   26  C17 UNL     1      25.910   8.153  49.529  1.00  0.00     0.114 C 
BRANCH  26  27
HETATM   27  C18 UNL     1      26.802   9.080  50.259  1.00  0.00     0.139 C 
HETATM   28  O2  UNL     1      26.807  10.209  49.689  1.00  0.00    -0.650 OA
BRANCH  27  29
HETATM   29  O3  UNL     1      27.676   9.527  51.209  1.00  0.00    -0.776 OA
HETATM   30  H16 UNL     1      28.515  10.023  50.994  1.00  0.00     0.167 HD
ENDBRANCH  27  29
ENDBRANCH  26  27
ENDBRANCH  25  26
ENDBRANCH  23  25
ENDBRANCH  11  20
TORSDOF 6
ENDMDL
MODEL 3
REMARK VINA RESULT:      -8.3      2.887      5.901
REMARK  6 active torsions:
REMARK  status: ('A' for Active; 'I' for Inactive)
REMARK    1  A    between atoms: C3_3  and  O1_4 
REMARK    2  A    between atoms: C11_13  and  C12_14 
REMARK    3  A    between atoms: C15_17  and  C16_18 
REMARK    4  A    between atoms: C16_18  and  C17_19 
REMARK    5  A    between atoms: C17_19  and  C18_20 
REMARK    6  A    between atoms: C18_20  and  O3_22 
ROOT
HETATM    1  C1  UNL     1      27.913   5.100  48.583  1.00  0.00     0.020 C 
HETATM    2  C2  UNL     1      26.865   4.826  49.126  1.00  0.00    -0.050 C 
HETATM    3  C3  UNL     1      25.620   4.494  49.744  1.00  0.00     0.150 C 
HETATM    4  C5  UNL     1      24.806   5.473  49.962  1.00  0.00     0.106 C 
HETATM    5  N1  UNL     1      24.889   6.905  49.706  1.00  0.00    -0.256 NA
HETATM    6  C6  UNL     1      23.881   7.698  49.313  1.00  0.00     0.129 C 
HETATM    7  C7  UNL     1      22.435   7.402  49.629  1.00  0.00    -0.017 C 
HETATM    8  C8  UNL     1      22.154   6.792  50.831  1.00  0.00     0.013 C 
HETATM    9  C9  UNL     1      22.817   5.600  51.484  1.00  0.00     0.012 C 
HETATM   10  C10 UNL     1      23.558   4.954  50.528  1.00  0.00    -0.008 C 
HETATM   11  C11 UNL     1      22.953   3.669  49.928  1.00  0.00     0.147 C 
HETATM   12  C20 UNL     1      21.589   4.303  49.539  1.00  0.00     0.234 C 
HETATM   13  O4  UNL     1      20.427   4.624  49.354  1.00  0.00    -0.272 OA
HETATM   14  N2  UNL     1      21.711   5.484  48.763  1.00  0.00    -0.336 N 
HETATM   15  C21 UNL     1      21.167   6.592  48.072  1.00  0.00     0.092 C 
HETATM   16  C22 UNL     1      21.534   7.829  48.509  1.00  0.00     0.030 C 
HETATM   17  H18 UNL     1      22.667   5.763  48.451  1.00  0.00     0.168 HD
ENDROOT
BRANCH   3  18
HETATM   18  O1  UNL     1      25.434   3.170  50.037  1.00  0.00    -0.345 OA
HETATM   19  C4  UNL     1      26.421   2.488  50.830  1.00  0.00     0.211 C 
ENDBRANCH   3  18
BRANCH  11  20
HETATM   20  C12 UNL     1      22.656   2.668  50.910  1.00  0.00    -0.034 A 
HETATM   21  C13 UNL     1      21.971   1.510  50.906  1.00  0.00    -0.048 A 
HETATM   22  C14 UNL     1      21.209   0.745  49.869  1.00  0.00     0.049 C 
HETATM   23  C15 UNL     1      22.300   1.350  52.311  1.00  0.00    -0.051 A 
HETATM   24  C19 UNL     1      22.984   2.507  52.315  1.00  0.00     0.016 A 
BRANCH  23  25
HETATM   25  C16 UNL     1      22.004   0.325  53.348  1.00  0.00     0.049 C 
BRANCH  25  26
HETATM   26  C17 UNL     1      23.236  -0.515  53.637  1.00  0.00     0.114 C 
BRANCH  26  27
HETATM   27  C18 UNL     1      23.028  -1.279  54.886  1.00  0.00     0.139 C 
HETATM   28  O2  UNL     1      21.824  -1.657  54.963  1.00  0.00    -0.650 OA
BRANCH  27  29
HETATM   29  O3  UNL     1      23.318  -1.874  56.081  1.00  0.00    -0.776 OA
HETATM   30  H16 UNL     1      23.684  -1.381  56.867  1.00  0.00     0.167 HD
ENDBRANCH  27  29
ENDBRANCH  26  27
ENDBRANCH  25  26
ENDBRANCH  23  25
ENDBRANCH  11  20
TORSDOF 6
ENDMDL
MODEL 4
REMARK VINA RESULT:      -8.2      2.153      4.618
REMARK  6 active torsions:
REMARK  status: ('A' for Active; 'I' for Inactive)
REMARK    1  A    between atoms: C3_3  and  O1_4 
REMARK    2  A    between atoms: C11_13  and  C12_14 
REMARK    3  A    between atoms: C15_17  and  C16_18 
REMARK    4  A    between atoms: C16_18  and  C17_19 
REMARK    5  A    between atoms: C17_19  and  C18_20 
REMARK    6  A    between atoms: C18_20  and  O3_22 
ROOT
HETATM    1  C1  UNL     1      25.872   7.213  48.551  1.00  0.00     0.020 C 
HETATM    2  C2  UNL     1      25.614   6.259  49.251  1.00  0.00    -0.050 C 
HETATM    3  C3  UNL     1      25.302   5.121  50.055  1.00  0.00     0.150 C 
HETATM    4  C5  UNL     1      24.178   5.154  50.691  1.00  0.00     0.106 C 
HETATM    5  N1  UNL     1      23.115   6.149  50.771  1.00  0.00    -0.256 NA
HETATM    6  C6  UNL     1      21.800   5.897  50.835  1.00  0.00     0.129 C 
HETATM    7  C7  UNL     1      21.237   4.621  51.413  1.00  0.00    -0.017 C 
HETATM    8  C8  UNL     1      21.911   4.044  52.466  1.00  0.00     0.013 C 
HETATM    9  C9  UNL     1      23.390   3.782  52.636  1.00  0.00     0.012 C 
HETATM   10  C10 UNL     1      23.980   3.889  51.404  1.00  0.00    -0.008 C 
HETATM   11  C11 UNL     1      24.329   2.572  50.681  1.00  0.00     0.147 C 
HETATM   12  C20 UNL     1      22.911   1.948  50.797  1.00  0.00     0.234 C 
HETATM   13  O4  UNL     1      21.910   1.276  50.981  1.00  0.00    -0.272 OA
HETATM   14  N2  UNL     1      21.876   2.792  50.318  1.00  0.00    -0.336 N 
HETATM   15  C21 UNL     1      20.517   3.088  50.064  1.00  0.00     0.092 C 
HETATM   16  C22 UNL     1      20.003   4.189  50.680  1.00  0.00     0.030 C 
HETATM   17  H18 UNL     1      22.154   3.687  49.859  1.00  0.00     0.168 HD
ENDROOT
BRANCH   3  18
HETATM   18  O1  UNL     1      26.236   4.120  50.061  1.00  0.00    -0.345 OA
HETATM   19  C4  UNL     1      27.227   4.088  49.019  1.00  0.00     0.211 C 
ENDBRANCH   3  18
BRANCH  11  20
HETATM   20  C12 UNL     1      25.198   1.720  51.438  1.00  0.00    -0.034 A 
HETATM   21  C13 UNL     1      25.020   0.807  52.410  1.00  0.00    -0.048 A 
HETATM   22  C14 UNL     1      23.827   0.270  53.139  1.00  0.00     0.049 C 
HETATM   23  C15 UNL     1      26.455   0.592  52.423  1.00  0.00    -0.051 A 
HETATM   24  C19 UNL     1      26.634   1.504  51.453  1.00  0.00     0.016 A 
BRANCH  23  25
HETATM   25  C16 UNL     1      27.378  -0.282  53.197  1.00  0.00     0.049 C 
BRANCH  25  26
HETATM   26  C17 UNL     1      27.669   0.322  54.561  1.00  0.00     0.114 C 
BRANCH  26  27
HETATM   27  C18 UNL     1      28.831   1.230  54.459  1.00  0.00     0.139 C 
HETATM   28  O2  UNL     1      29.782   0.646  53.865  1.00  0.00    -0.650 OA
BRANCH  27  29
HETATM   29  O3  UNL     1      29.583   2.362  54.603  1.00  0.00    -0.776 OA
HETATM   30  H16 UNL     1      29.613   2.899  55.443  1.00  0.00     0.167 HD
ENDBRANCH  27  29
ENDBRANCH  26  27
ENDBRANCH  25  26
ENDBRANCH  23  25
ENDBRANCH  11  20
TORSDOF 6
ENDMDL
MODEL 5
REMARK VINA RESULT:      -8.2      2.985      4.771
REMARK  6 active torsions:
REMARK  status: ('A' for Active; 'I' for Inactive)
REMARK    1  A    between atoms: C3_3  and  O1_4 
REMARK    2  A    between atoms: C11_13  and  C12_14 
REMARK    3  A    between atoms: C15_17  and  C16_18 
REMARK    4  A    between atoms: C16_18  and  C17_19 
REMARK    5  A    between atoms: C17_19  and  C18_20 
REMARK    6  A    between atoms: C18_20  and  O3_22 
ROOT
HETATM    1  C1  UNL     1      24.903  -0.695  54.538  1.00  0.00     0.020 C 
HETATM    2  C2  UNL     1      24.698   0.121  53.667  1.00  0.00    -0.050 C 
HETATM    3  C3  UNL     1      24.448   1.102  52.659  1.00  0.00     0.150 C 
HETATM    4  C5  UNL     1      23.342   0.985  52.003  1.00  0.00     0.106 C 
HETATM    5  N1  UNL     1      22.247   0.025  52.071  1.00  0.00    -0.256 NA
HETATM    6  C6  UNL     1      20.944   0.299  51.918  1.00  0.00     0.129 C 
HETATM    7  C7  UNL     1      20.442   1.463  51.098  1.00  0.00    -0.017 C 
HETATM    8  C8  UNL     1      21.164   1.816  49.980  1.00  0.00     0.013 C 
HETATM    9  C9  UNL     1      22.656   2.000  49.814  1.00  0.00     0.012 C 
HETATM   10  C10 UNL     1      23.208   2.103  51.065  1.00  0.00    -0.008 C 
HETATM   11  C11 UNL     1      23.582   3.519  51.546  1.00  0.00     0.147 C 
HETATM   12  C20 UNL     1      22.191   4.153  51.271  1.00  0.00     0.234 C 
HETATM   13  O4  UNL     1      21.220   4.809  50.934  1.00  0.00    -0.272 OA
HETATM   14  N2  UNL     1      21.115   3.442  51.861  1.00  0.00    -0.336 N 
HETATM   15  C21 UNL     1      19.739   3.238  52.120  1.00  0.00     0.092 C 
HETATM   16  C22 UNL     1      19.204   2.058  51.698  1.00  0.00     0.030 C 
HETATM   17  H18 UNL     1      21.348   2.639  52.485  1.00  0.00     0.168 HD
ENDROOT
BRANCH   3  18
HETATM   18  O1  UNL     1      25.417   2.056  52.501  1.00  0.00    -0.345 OA
HETATM   19  C4  UNL     1      26.783   1.638  52.331  1.00  0.00     0.211 C 
ENDBRANCH   3  18
BRANCH  11  20
HETATM   20  C12 UNL     1      24.501   4.192  50.675  1.00  0.00    -0.034 A 
HETATM   21  C13 UNL     1      24.853   5.475  50.477  1.00  0.00    -0.048 A 
HETATM   22  C14 UNL     1      24.439   6.782  51.079  1.00  0.00     0.049 C 
HETATM   23  C15 UNL     1      25.779   5.027  49.453  1.00  0.00    -0.051 A 
HETATM   24  C19 UNL     1      25.428   3.745  49.651  1.00  0.00     0.016 A 
BRANCH  23  25
HETATM   25  C16 UNL     1      26.739   5.701  48.537  1.00  0.00     0.049 C 
BRANCH  25  26
HETATM   26  C17 UNL     1      28.076   4.980  48.537  1.00  0.00     0.114 C 
BRANCH  26  27
HETATM   27  C18 UNL     1      29.148   5.932  48.175  1.00  0.00     0.139 C 
HETATM   28  O2  UNL     1      30.275   5.448  48.483  1.00  0.00    -0.650 OA
BRANCH  27  29
HETATM   29  O3  UNL     1      29.739   7.067  47.694  1.00  0.00    -0.776 OA
HETATM   30  H16 UNL     1      30.102   7.147  46.769  1.00  0.00     0.167 HD
ENDBRANCH  27  29
ENDBRANCH  26  27
ENDBRANCH  25  26
ENDBRANCH  23  25
ENDBRANCH  11  20
TORSDOF 6
ENDMDL
MODEL 6
REMARK VINA RESULT:      -8.0      2.699      4.464
REMARK  6 active torsions:
REMARK  status: ('A' for Active; 'I' for Inactive)
REMARK    1  A    between atoms: C3_3  and  O1_4 
REMARK    2  A    between atoms: C11_13  and  C12_14 
REMARK    3  A    between atoms: C15_17  and  C16_18 
REMARK    4  A    between atoms: C16_18  and  C17_19 
REMARK    5  A    between atoms: C17_19  and  C18_20 
REMARK    6  A    between atoms: C18_20  and  O3_22 
ROOT
HETATM    1  C1  UNL     1      22.287  -1.238  54.979  1.00  0.00     0.020 C 
HETATM    2  C2  UNL     1      22.388  -0.438  54.075  1.00  0.00    -0.050 C 
HETATM    3  C3  UNL     1      22.498   0.524  53.025  1.00  0.00     0.150 C 
HETATM    4  C5  UNL     1      21.544   0.541  52.155  1.00  0.00     0.106 C 
HETATM    5  N1  UNL     1      20.327  -0.247  52.006  1.00  0.00    -0.256 NA
HETATM    6  C6  UNL     1      19.138   0.205  51.583  1.00  0.00     0.129 C 
HETATM    7  C7  UNL     1      18.994   1.394  50.663  1.00  0.00    -0.017 C 
HETATM    8  C8  UNL     1      19.973   1.592  49.715  1.00  0.00     0.013 C 
HETATM    9  C9  UNL     1      21.477   1.550  49.860  1.00  0.00     0.012 C 
HETATM   10  C10 UNL     1      21.773   1.626  51.197  1.00  0.00    -0.008 C 
HETATM   11  C11 UNL     1      22.250   2.992  51.729  1.00  0.00     0.147 C 
HETATM   12  C20 UNL     1      21.055   3.809  51.164  1.00  0.00     0.234 C 
HETATM   13  O4  UNL     1      20.282   4.583  50.625  1.00  0.00    -0.272 OA
HETATM   14  N2  UNL     1      19.787   3.286  51.526  1.00  0.00    -0.336 N 
HETATM   15  C21 UNL     1      18.373   3.294  51.496  1.00  0.00     0.092 C 
HETATM   16  C22 UNL     1      17.764   2.187  50.986  1.00  0.00     0.030 C 
HETATM   17  H18 UNL     1      19.765   2.484  52.194  1.00  0.00     0.168 HD
ENDROOT
BRANCH   3  18
HETATM   18  O1  UNL     1      23.611   1.321  53.061  1.00  0.00    -0.345 OA
HETATM   19  C4  UNL     1      24.907   0.702  53.141  1.00  0.00     0.211 C 
ENDBRANCH   3  18
BRANCH  11  20
HETATM   20  C12 UNL     1      23.417   3.487  51.060  1.00  0.00    -0.034 A 
HETATM   21  C13 UNL     1      24.044   4.676  51.003  1.00  0.00    -0.048 A 
HETATM   22  C14 UNL     1      23.802   6.021  51.615  1.00  0.00     0.049 C 
HETATM   23  C15 UNL     1      25.022   4.078  50.112  1.00  0.00    -0.051 A 
HETATM   24  C19 UNL     1      24.396   2.891  50.169  1.00  0.00     0.016 A 
BRANCH  23  25
HETATM   25  C16 UNL     1      26.237   4.569  49.405  1.00  0.00     0.049 C 
BRANCH  25  26
HETATM   26  C17 UNL     1      25.937   5.856  48.656  1.00  0.00     0.114 C 
BRANCH  26  27
HETATM   27  C18 UNL     1      26.815   6.933  49.160  1.00  0.00     0.139 C 
HETATM   28  O2  UNL     1      26.131   7.781  49.801  1.00  0.00    -0.650 OA
BRANCH  27  29
HETATM   29  O3  UNL     1      27.959   7.645  49.391  1.00  0.00    -0.776 OA
HETATM   30  H16 UNL     1      28.765   7.261  49.838  1.00  0.00     0.167 HD
ENDBRANCH  27  29
ENDBRANCH  26  27
ENDBRANCH  25  26
ENDBRANCH  23  25
ENDBRANCH  11  20
TORSDOF 6
ENDMDL
MODEL 7
REMARK VINA RESULT:      -7.5      9.036     12.642
REMARK  6 active torsions:
REMARK  status: ('A' for Active; 'I' for Inactive)
REMARK    1  A    between atoms: C3_3  and  O1_4 
REMARK    2  A    between atoms: C11_13  and  C12_14 
REMARK    3  A    between atoms: C15_17  and  C16_18 
REMARK    4  A    between atoms: C16_18  and  C17_19 
REMARK    5  A    between atoms: C17_19  and  C18_20 
REMARK    6  A    between atoms: C18_20  and  O3_22 
ROOT
HETATM    1  C1  UNL     1      34.225   7.665  42.528  1.00  0.00     0.020 C 
HETATM    2  C2  UNL     1      33.509   7.396  43.468  1.00  0.00    -0.050 C 
HETATM    3  C3  UNL     1      32.678   7.096  44.590  1.00  0.00     0.150 C 
HETATM    4  C5  UNL     1      32.927   5.992  45.212  1.00  0.00     0.106 C 
HETATM    5  N1  UNL     1      33.914   4.939  45.005  1.00  0.00    -0.256 NA
HETATM    6  C6  UNL     1      34.555   4.257  45.964  1.00  0.00     0.129 C 
HETATM    7  C7  UNL     1      33.974   4.034  47.340  1.00  0.00    -0.017 C 
HETATM    8  C8  UNL     1      32.610   3.880  47.441  1.00  0.00     0.013 C 
HETATM    9  C9  UNL     1      31.499   4.692  46.813  1.00  0.00     0.012 C 
HETATM   10  C10 UNL     1      32.039   5.872  46.373  1.00  0.00    -0.008 C 
HETATM   11  C11 UNL     1      31.792   7.120  47.245  1.00  0.00     0.147 C 
HETATM   12  C20 UNL     1      32.308   6.492  48.569  1.00  0.00     0.234 C 
HETATM   13  O4  UNL     1      32.507   6.067  49.695  1.00  0.00    -0.272 OA
HETATM   14  N2  UNL     1      33.601   5.920  48.462  1.00  0.00    -0.336 N 
HETATM   15  C21 UNL     1      34.712   5.223  48.993  1.00  0.00     0.092 C 
HETATM   16  C22 UNL     1      35.043   4.046  48.391  1.00  0.00     0.030 C 
HETATM   17  H18 UNL     1      34.116   6.048  47.563  1.00  0.00     0.168 HD
ENDROOT
BRANCH   3  18
HETATM   18  O1  UNL     1      31.706   8.016  44.877  1.00  0.00    -0.345 OA
HETATM   19  C4  UNL     1      31.260   8.903  43.836  1.00  0.00     0.211 C 
ENDBRANCH   3  18
BRANCH  11  20
HETATM   20  C12 UNL     1      30.402   7.400  47.456  1.00  0.00    -0.034 A 
HETATM   21  C13 UNL     1      29.677   8.520  47.629  1.00  0.00    -0.048 A 
HETATM   22  C14 UNL     1      29.998   9.982  47.677  1.00  0.00     0.049 C 
HETATM   23  C15 UNL     1      28.490   7.692  47.740  1.00  0.00    -0.051 A 
HETATM   24  C19 UNL     1      29.214   6.573  47.568  1.00  0.00     0.016 A 
BRANCH  23  25
HETATM   25  C16 UNL     1      27.042   7.957  47.960  1.00  0.00     0.049 C 
BRANCH  25  26
HETATM   26  C17 UNL     1      26.667   7.709  49.411  1.00  0.00     0.114 C 
BRANCH  26  27
HETATM   27  C18 UNL     1      27.063   8.876  50.228  1.00  0.00     0.139 C 
HETATM   28  O2  UNL     1      26.341   9.872  49.933  1.00  0.00    -0.650 OA
BRANCH  27  29
HETATM   29  O3  UNL     1      27.749   9.615  51.151  1.00  0.00    -0.776 OA
HETATM   30  H16 UNL     1      27.637   9.506  52.136  1.00  0.00     0.167 HD
ENDBRANCH  27  29
ENDBRANCH  26  27
ENDBRANCH  25  26
ENDBRANCH  23  25
ENDBRANCH  11  20
TORSDOF 6
ENDMDL
MODEL 8
REMARK VINA RESULT:      -7.5      2.814      4.217
REMARK  6 active torsions:
REMARK  status: ('A' for Active; 'I' for Inactive)
REMARK    1  A    between atoms: C3_3  and  O1_4 
REMARK    2  A    between atoms: C11_13  and  C12_14 
REMARK    3  A    between atoms: C15_17  and  C16_18 
REMARK    4  A    between atoms: C16_18  and  C17_19 
REMARK    5  A    between atoms: C17_19  and  C18_20 
REMARK    6  A    between atoms: C18_20  and  O3_22 
ROOT
HETATM    1  C1  UNL     1      19.768   3.110  46.752  1.00  0.00     0.020 C 
HETATM    2  C2  UNL     1      20.764   3.242  47.428  1.00  0.00    -0.050 C 
HETATM    3  C3  UNL     1      21.924   3.405  48.246  1.00  0.00     0.150 C 
HETATM    4  C5  UNL     1      22.584   4.505  48.098  1.00  0.00     0.106 C 
HETATM    5  N1  UNL     1      22.395   5.665  47.236  1.00  0.00    -0.256 NA
HETATM    6  C6  UNL     1      22.627   6.943  47.567  1.00  0.00     0.129 C 
HETATM    7  C7  UNL     1      23.638   7.348  48.613  1.00  0.00    -0.017 C 
HETATM    8  C8  UNL     1      24.777   6.583  48.733  1.00  0.00     0.013 C 
HETATM    9  C9  UNL     1      24.926   5.079  48.788  1.00  0.00     0.012 C 
HETATM   10  C10 UNL     1      23.693   4.544  49.056  1.00  0.00    -0.008 C 
HETATM   11  C11 UNL     1      23.434   4.080  50.504  1.00  0.00     0.147 C 
HETATM   12  C20 UNL     1      23.848   5.419  51.175  1.00  0.00     0.234 C 
HETATM   13  O4  UNL     1      24.314   6.336  51.830  1.00  0.00    -0.272 OA
HETATM   14  N2  UNL     1      23.182   6.552  50.642  1.00  0.00    -0.336 N 
HETATM   15  C21 UNL     1      22.935   7.943  50.573  1.00  0.00     0.092 C 
HETATM   16  C22 UNL     1      23.177   8.552  49.378  1.00  0.00     0.030 C 
HETATM   17  H18 UNL     1      22.432   6.387  49.936  1.00  0.00     0.168 HD
ENDROOT
BRANCH   3  18
HETATM   18  O1  UNL     1      22.204   2.370  49.097  1.00  0.00    -0.345 OA
HETATM   19  C4  UNL     1      21.170   1.415  49.394  1.00  0.00     0.211 C 
ENDBRANCH   3  18
BRANCH  11  20
HETATM   20  C12 UNL     1      24.375   3.101  50.964  1.00  0.00    -0.034 A 
HETATM   21  C13 UNL     1      24.314   2.048  51.799  1.00  0.00    -0.048 A 
HETATM   22  C14 UNL     1      23.233   1.424  52.625  1.00  0.00     0.049 C 
HETATM   23  C15 UNL     1      25.722   1.805  51.539  1.00  0.00    -0.051 A 
HETATM   24  C19 UNL     1      25.783   2.857  50.705  1.00  0.00     0.016 A 
BRANCH  23  25
HETATM   25  C16 UNL     1      26.717   0.801  52.004  1.00  0.00     0.049 C 
BRANCH  25  26
HETATM   26  C17 UNL     1      27.667   1.418  53.017  1.00  0.00     0.114 C 
BRANCH  26  27
HETATM   27  C18 UNL     1      28.183   0.362  53.913  1.00  0.00     0.139 C 
HETATM   28  O2  UNL     1      28.356   0.830  55.075  1.00  0.00    -0.650 OA
BRANCH  27  29
HETATM   29  O3  UNL     1      28.620  -0.869  54.317  1.00  0.00    -0.776 OA
HETATM   30  H16 UNL     1      29.542  -1.040  54.658  1.00  0.00     0.167 HD
ENDBRANCH  27  29
ENDBRANCH  26  27
ENDBRANCH  25  26
ENDBRANCH  23  25
ENDBRANCH  11  20
TORSDOF 6
ENDMDL
MODEL 9
REMARK VINA RESULT:      -7.4      4.438      6.669
REMARK  6 active torsions:
REMARK  status: ('A' for Active; 'I' for Inactive)
REMARK    1  A    between atoms: C3_3  and  O1_4 
REMARK    2  A    between atoms: C11_13  and  C12_14 
REMARK    3  A    between atoms: C15_17  and  C16_18 
REMARK    4  A    between atoms: C16_18  and  C17_19 
REMARK    5  A    between atoms: C17_19  and  C18_20 
REMARK    6  A    between atoms: C18_20  and  O3_22 
ROOT
HETATM    1  C1  UNL     1      19.789   3.687  47.198  1.00  0.00     0.020 C 
HETATM    2  C2  UNL     1      20.798   4.054  47.758  1.00  0.00    -0.050 C 
HETATM    3  C3  UNL     1      22.000   4.467  48.410  1.00  0.00     0.150 C 
HETATM    4  C5  UNL     1      22.088   4.215  49.673  1.00  0.00     0.106 C 
HETATM    5  N1  UNL     1      21.183   3.575  50.620  1.00  0.00    -0.256 NA
HETATM    6  C6  UNL     1      21.536   2.766  51.629  1.00  0.00     0.129 C 
HETATM    7  C7  UNL     1      22.882   2.845  52.310  1.00  0.00    -0.017 C 
HETATM    8  C8  UNL     1      23.465   4.087  52.433  1.00  0.00     0.013 C 
HETATM    9  C9  UNL     1      23.624   5.183  51.404  1.00  0.00     0.012 C 
HETATM   10  C10 UNL     1      23.403   4.634  50.167  1.00  0.00    -0.008 C 
HETATM   11  C11 UNL     1      24.646   4.323  49.310  1.00  0.00     0.147 C 
HETATM   12  C20 UNL     1      25.382   3.489  50.395  1.00  0.00     0.234 C 
HETATM   13  O4  UNL     1      26.137   2.980  51.206  1.00  0.00    -0.272 OA
HETATM   14  N2  UNL     1      24.593   2.445  50.943  1.00  0.00    -0.336 N 
HETATM   15  C21 UNL     1      24.386   1.364  51.830  1.00  0.00     0.092 C 
HETATM   16  C22 UNL     1      23.364   1.487  52.722  1.00  0.00     0.030 C 
HETATM   17  H18 UNL     1      23.655   2.273  50.520  1.00  0.00     0.168 HD
ENDROOT
BRANCH   3  18
HETATM   18  O1  UNL     1      22.926   5.089  47.615  1.00  0.00    -0.345 OA
HETATM   19  C4  UNL     1      22.480   6.077  46.670  1.00  0.00     0.211 C 
ENDBRANCH   3  18
BRANCH  11  20
HETATM   20  C12 UNL     1      25.472   5.470  49.068  1.00  0.00    -0.034 A 
HETATM   21  C13 UNL     1      26.768   5.657  48.760  1.00  0.00    -0.048 A 
HETATM   22  C14 UNL     1      27.935   4.747  48.534  1.00  0.00     0.049 C 
HETATM   23  C15 UNL     1      26.523   7.088  48.750  1.00  0.00    -0.051 A 
HETATM   24  C19 UNL     1      25.228   6.901  49.057  1.00  0.00     0.016 A 
BRANCH  23  25
HETATM   25  C16 UNL     1      27.359   8.294  48.504  1.00  0.00     0.049 C 
BRANCH  25  26
HETATM   26  C17 UNL     1      27.373   9.194  49.727  1.00  0.00     0.114 C 
BRANCH  26  27
HETATM   27  C18 UNL     1      28.188  10.395  49.445  1.00  0.00     0.139 C 
HETATM   28  O2  UNL     1      27.435  11.365  49.143  1.00  0.00    -0.650 OA
BRANCH  27  29
HETATM   29  O3  UNL     1      29.298  11.177  49.290  1.00  0.00    -0.776 OA
HETATM   30  H16 UNL     1      29.963  11.050  48.557  1.00  0.00     0.167 HD
ENDBRANCH  27  29
ENDBRANCH  26  27
ENDBRANCH  25  26
ENDBRANCH  23  25
ENDBRANCH  11  20
TORSDOF 6
ENDMDL
