MODEL 1
REMARK VINA RESULT:      -8.1      0.000      0.000
REMARK  5 active torsions:
REMARK  status: ('A' for Active; 'I' for Inactive)
REMARK    1  A    between atoms: C7_7  and  O1_8 
REMARK    2  A    between atoms: O1_8  and  C8_9 
REMARK    3  A    between atoms: C8_9  and  C9_10 
REMARK    4  A    between atoms: C9_10  and  C10_11 
REMARK    5  A    between atoms: C10_11  and  N1_12 
ROOT
HETATM    1  C1  UNL     1      21.914   1.350  49.037  1.00  0.00     0.051 C 
HETATM    2  C2  UNL     1      22.472   2.582  49.706  1.00  0.00    -0.025 A 
HETATM    3  C3  UNL     1      22.194   3.752  49.066  1.00  0.00     0.055 A 
HETATM    4  C4  UNL     1      22.669   4.928  49.610  1.00  0.00     0.120 A 
HETATM    5  C5  UNL     1      23.394   4.903  50.753  1.00  0.00     0.023 A 
HETATM    6  C6  UNL     1      23.638   3.655  51.353  1.00  0.00     0.053 A 
HETATM    7  C7  UNL     1      23.193   2.448  50.862  1.00  0.00     0.075 A 
HETATM    8  C15 UNL     1      24.019   5.718  51.561  1.00  0.00     0.103 C 
HETATM    9  N2  UNL     1      24.400   7.038  51.874  1.00  0.00    -0.365 N 
HETATM   10  C16 UNL     1      24.759   7.312  50.474  1.00  0.00     0.035 A 
HETATM   11  C17 UNL     1      26.024   7.216  49.919  1.00  0.00     0.056 A 
HETATM   12  C18 UNL     1      26.228   7.342  48.550  1.00  0.00     0.077 A 
HETATM   13 CL1  UNL     1      27.858   7.211  47.955  1.00  0.00    -0.081 Cl
HETATM   14  C19 UNL     1      25.142   7.566  47.716  1.00  0.00     0.166 A 
HETATM   15  F1  UNL     1      25.259   7.694  46.384  1.00  0.00    -0.202 F 
HETATM   16  C20 UNL     1      23.933   7.645  48.360  1.00  0.00     0.101 A 
HETATM   17  C21 UNL     1      23.621   7.546  49.697  1.00  0.00     0.064 A 
HETATM   18  N3  UNL     1      22.654   7.646  47.640  1.00  0.00    -0.227 NA
HETATM   19  C22 UNL     1      21.797   6.650  48.012  1.00  0.00     0.300 C 
HETATM   20  N4  UNL     1      22.347   5.906  48.967  1.00  0.00    -0.398 NA
HETATM   21  H21 UNL     1      24.682   7.953  52.000  1.00  0.00     0.165 HD
ENDROOT
BRANCH   7  22
HETATM   22  O1  UNL     1      23.327   1.179  51.297  1.00  0.00    -0.351 OA
BRANCH  22  23
HETATM   23  C8  UNL     1      23.212   0.605  52.541  1.00  0.00     0.177 C 
BRANCH  23  24
HETATM   24  C9  UNL     1      24.413   0.697  53.446  1.00  0.00     0.057 C 
BRANCH  24  25
HETATM   25  C10 UNL     1      25.424  -0.317  52.921  1.00  0.00     0.274 C 
BRANCH  25  26
HETATM   26  N1  UNL     1      26.781   0.145  53.073  1.00  0.00     0.092 N 
HETATM   27  C11 UNL     1      27.168   0.187  54.484  1.00  0.00     0.298 C 
HETATM   28  C12 UNL     1      28.673   0.479  54.590  1.00  0.00     0.198 C 
HETATM   29  O2  UNL     1      29.061   1.319  53.537  1.00  0.00    -0.388 OA
HETATM   30  C13 UNL     1      28.017   2.193  53.217  1.00  0.00     0.198 C 
HETATM   31  C14 UNL     1      26.926   1.446  52.494  1.00  0.00     0.298 C 
ENDBRANCH  25  26
ENDBRANCH  24  25
ENDBRANCH  23  24
ENDBRANCH  22  23
ENDBRANCH   7  22
TORSDOF 5
ENDMDL
MODEL 2
REMARK VINA RESULT:      -7.9      3.135      4.212
REMARK  5 active torsions:
REMARK  status: ('A' for Active; 'I' for Inactive)
REMARK    1  A    between atoms: C7_7  and  O1_8 
REMARK    2  A    between atoms: O1_8  and  C8_9 
REMARK    3  A    between atoms: C8_9  and  C9_10 
REMARK    4  A    between atoms: C9_10  and  C10_11 
REMARK    5  A    between atoms: C10_11  and  N1_12 
ROOT
HETATM    1  C1  UNL     1      21.281  -1.114  53.836  1.00  0.00     0.051 C 
HETATM    2  C2  UNL     1      21.813   0.194  53.307  1.00  0.00    -0.025 A 
HETATM    3  C3  UNL     1      20.856   1.069  52.888  1.00  0.00     0.055 A 
HETATM    4  C4  UNL     1      21.258   2.291  52.387  1.00  0.00     0.120 A 
HETATM    5  C5  UNL     1      22.575   2.597  52.319  1.00  0.00     0.023 A 
HETATM    6  C6  UNL     1      23.499   1.641  52.772  1.00  0.00     0.053 A 
HETATM    7  C7  UNL     1      23.165   0.406  53.282  1.00  0.00     0.075 A 
HETATM    8  C15 UNL     1      23.358   3.566  51.925  1.00  0.00     0.103 C 
HETATM    9  N2  UNL     1      23.486   4.847  51.352  1.00  0.00    -0.365 N 
HETATM   10  C16 UNL     1      22.484   4.533  50.322  1.00  0.00     0.035 A 
HETATM   11  C17 UNL     1      22.741   4.076  49.041  1.00  0.00     0.056 A 
HETATM   12  C18 UNL     1      21.716   3.659  48.199  1.00  0.00     0.077 A 
HETATM   13 CL1  UNL     1      22.146   3.107  46.606  1.00  0.00    -0.081 Cl
HETATM   14  C19 UNL     1      20.405   3.696  48.650  1.00  0.00     0.166 A 
HETATM   15  F1  UNL     1      19.363   3.304  47.898  1.00  0.00    -0.202 F 
HETATM   16  C20 UNL     1      20.253   4.163  49.931  1.00  0.00     0.101 A 
HETATM   17  C21 UNL     1      21.188   4.608  50.840  1.00  0.00     0.064 A 
HETATM   18  N3  UNL     1      18.986   4.063  50.664  1.00  0.00    -0.227 NA
HETATM   19  C22 UNL     1      19.072   3.395  51.852  1.00  0.00     0.300 C 
HETATM   20  N4  UNL     1      20.322   2.993  52.061  1.00  0.00    -0.398 NA
HETATM   21  H21 UNL     1      23.512   5.699  50.898  1.00  0.00     0.165 HD
ENDROOT
BRANCH   7  22
HETATM   22  O1  UNL     1      23.904  -0.617  53.756  1.00  0.00    -0.351 OA
BRANCH  22  23
HETATM   23  C8  UNL     1      25.258  -0.790  53.918  1.00  0.00     0.177 C 
BRANCH  23  24
HETATM   24  C9  UNL     1      26.038  -1.226  52.705  1.00  0.00     0.057 C 
BRANCH  24  25
HETATM   25  C10 UNL     1      27.512  -1.139  53.088  1.00  0.00     0.274 C 
BRANCH  25  26
HETATM   26  N1  UNL     1      27.837   0.124  53.702  1.00  0.00     0.092 N 
HETATM   27  C11 UNL     1      27.815   1.209  52.719  1.00  0.00     0.298 C 
HETATM   28  C12 UNL     1      27.958   2.555  53.446  1.00  0.00     0.198 C 
HETATM   29  O2  UNL     1      28.776   2.394  54.572  1.00  0.00    -0.388 OA
HETATM   30  C13 UNL     1      29.753   1.426  54.315  1.00  0.00     0.198 C 
HETATM   31  C14 UNL     1      29.128   0.055  54.314  1.00  0.00     0.298 C 
ENDBRANCH  25  26
ENDBRANCH  24  25
ENDBRANCH  23  24
ENDBRANCH  22  23
ENDBRANCH   7  22
TORSDOF 5
ENDMDL
MODEL 3
REMARK VINA RESULT:      -7.8      5.526      7.219
REMARK  5 active torsions:
REMARK  status: ('A' for Active; 'I' for Inactive)
REMARK    1  A    between atoms: C7_7  and  O1_8 
REMARK    2  A    between atoms: O1_8  and  C8_9 
REMARK    3  A    between atoms: C8_9  and  C9_10 
REMARK    4  A    between atoms: C9_10  and  C10_11 
REMARK    5  A    between atoms: C10_11  and  N1_12 
ROOT
HETATM    1  C1  UNL     1      26.546   7.777  47.516  1.00  0.00     0.051 C 
HETATM    2  C2  UNL     1      27.887   7.140  47.779  1.00  0.00    -0.025 A 
HETATM    3  C3  UNL     1      28.959   7.926  47.479  1.00  0.00     0.055 A 
HETATM    4  C4  UNL     1      30.226   7.418  47.688  1.00  0.00     0.120 A 
HETATM    5  C5  UNL     1      30.383   6.167  48.179  1.00  0.00     0.023 A 
HETATM    6  C6  UNL     1      29.227   5.419  48.464  1.00  0.00     0.053 A 
HETATM    7  C7  UNL     1      27.939   5.866  48.278  1.00  0.00     0.075 A 
HETATM    8  C15 UNL     1      31.333   5.328  48.497  1.00  0.00     0.103 C 
HETATM    9  N2  UNL     1      32.713   5.055  48.581  1.00  0.00    -0.365 N 
HETATM   10  C16 UNL     1      32.954   5.640  47.253  1.00  0.00     0.035 A 
HETATM   11  C17 UNL     1      33.023   4.950  46.055  1.00  0.00     0.056 A 
HETATM   12  C18 UNL     1      33.096   5.617  44.837  1.00  0.00     0.077 A 
HETATM   13 CL1  UNL     1      33.184   4.656  43.388  1.00  0.00    -0.081 Cl
HETATM   14  C19 UNL     1      33.097   7.004  44.816  1.00  0.00     0.166 A 
HETATM   15  F1  UNL     1      33.160   7.717  43.679  1.00  0.00    -0.202 F 
HETATM   16  C20 UNL     1      33.025   7.594  46.052  1.00  0.00     0.101 A 
HETATM   17  C21 UNL     1      32.960   7.037  47.310  1.00  0.00     0.064 A 
HETATM   18  N3  UNL     1      32.783   9.031  46.229  1.00  0.00    -0.227 NA
HETATM   19  C22 UNL     1      31.690   9.329  46.992  1.00  0.00     0.300 C 
HETATM   20  N4  UNL     1      31.100   8.211  47.403  1.00  0.00    -0.398 NA
HETATM   21  H21 UNL     1      33.667   4.905  48.556  1.00  0.00     0.165 HD
ENDROOT
BRANCH   7  22
HETATM   22  O1  UNL     1      26.734   5.298  48.494  1.00  0.00    -0.351 OA
BRANCH  22  23
HETATM   23  C8  UNL     1      26.204   4.622  49.567  1.00  0.00     0.177 C 
BRANCH  23  24
HETATM   24  C9  UNL     1      26.563   3.165  49.697  1.00  0.00     0.057 C 
BRANCH  24  25
HETATM   25  C10 UNL     1      25.995   2.701  51.035  1.00  0.00     0.274 C 
BRANCH  25  26
HETATM   26  N1  UNL     1      26.767   1.627  51.607  1.00  0.00     0.092 N 
HETATM   27  C11 UNL     1      25.897   0.568  52.122  1.00  0.00     0.298 C 
HETATM   28  C12 UNL     1      26.753  -0.641  52.528  1.00  0.00     0.198 C 
HETATM   29  O2  UNL     1      27.991  -0.196  53.012  1.00  0.00    -0.388 OA
HETATM   30  C13 UNL     1      27.832   1.029  53.669  1.00  0.00     0.198 C 
HETATM   31  C14 UNL     1      27.597   2.125  52.662  1.00  0.00     0.298 C 
ENDBRANCH  25  26
ENDBRANCH  24  25
ENDBRANCH  23  24
ENDBRANCH  22  23
ENDBRANCH   7  22
TORSDOF 5
ENDMDL
MODEL 4
REMARK VINA RESULT:      -7.8      1.554      2.053
REMARK  5 active torsions:
REMARK  status: ('A' for Active; 'I' for Inactive)
REMARK    1  A    between atoms: C7_7  and  O1_8 
REMARK    2  A    between atoms: O1_8  and  C8_9 
REMARK    3  A    between atoms: C8_9  and  C9_10 
REMARK    4  A    between atoms: C9_10  and  C10_11 
REMARK    5  A    between atoms: C10_11  and  N1_12 
ROOT
HETATM    1  C1  UNL     1      22.338   2.865  47.987  1.00  0.00     0.051 C 
HETATM    2  C2  UNL     1      23.187   3.925  48.642  1.00  0.00    -0.025 A 
HETATM    3  C3  UNL     1      23.136   5.147  48.042  1.00  0.00     0.055 A 
HETATM    4  C4  UNL     1      23.886   6.175  48.577  1.00  0.00     0.120 A 
HETATM    5  C5  UNL     1      24.650   5.958  49.674  1.00  0.00     0.023 A 
HETATM    6  C6  UNL     1      24.648   4.669  50.235  1.00  0.00     0.053 A 
HETATM    7  C7  UNL     1      23.924   3.603  49.750  1.00  0.00     0.075 A 
HETATM    8  C15 UNL     1      25.481   6.593  50.457  1.00  0.00     0.103 C 
HETATM    9  N2  UNL     1      26.157   7.789  50.770  1.00  0.00    -0.365 N 
HETATM   10  C16 UNL     1      26.490   8.021  49.355  1.00  0.00     0.035 A 
HETATM   11  C17 UNL     1      27.671   7.671  48.724  1.00  0.00     0.056 A 
HETATM   12  C18 UNL     1      27.821   7.792  47.347  1.00  0.00     0.077 A 
HETATM   13 CL1  UNL     1      29.348   7.328  46.653  1.00  0.00    -0.081 Cl
HETATM   14  C19 UNL     1      26.767   8.271  46.584  1.00  0.00     0.166 A 
HETATM   15  F1  UNL     1      26.835   8.411  45.250  1.00  0.00    -0.202 F 
HETATM   16  C20 UNL     1      25.641   8.590  47.301  1.00  0.00     0.101 A 
HETATM   17  C21 UNL     1      25.389   8.520  48.653  1.00  0.00     0.064 A 
HETATM   18  N3  UNL     1      24.355   8.890  46.660  1.00  0.00    -0.227 NA
HETATM   19  C22 UNL     1      23.323   8.093  47.066  1.00  0.00     0.300 C 
HETATM   20  N4  UNL     1      23.750   7.218  47.971  1.00  0.00    -0.398 NA
HETATM   21  H21 UNL     1      26.638   8.617  50.895  1.00  0.00     0.165 HD
ENDROOT
BRANCH   7  22
HETATM   22  O1  UNL     1      23.802   2.322  50.154  1.00  0.00    -0.351 OA
BRANCH  22  23
HETATM   23  C8  UNL     1      23.505   1.755  51.370  1.00  0.00     0.177 C 
BRANCH  23  24
HETATM   24  C9  UNL     1      24.663   1.225  52.175  1.00  0.00     0.057 C 
BRANCH  24  25
HETATM   25  C10 UNL     1      25.207   2.406  52.972  1.00  0.00     0.274 C 
BRANCH  25  26
HETATM   26  N1  UNL     1      26.363   2.044  53.754  1.00  0.00     0.092 N 
HETATM   27  C11 UNL     1      27.587   2.126  52.954  1.00  0.00     0.298 C 
HETATM   28  C12 UNL     1      28.806   1.938  53.871  1.00  0.00     0.198 C 
HETATM   29  O2  UNL     1      28.480   1.054  54.908  1.00  0.00    -0.388 OA
HETATM   30  C13 UNL     1      27.573   0.094  54.445  1.00  0.00     0.198 C 
HETATM   31  C14 UNL     1      26.212   0.718  54.270  1.00  0.00     0.298 C 
ENDBRANCH  25  26
ENDBRANCH  24  25
ENDBRANCH  23  24
ENDBRANCH  22  23
ENDBRANCH   7  22
TORSDOF 5
ENDMDL
MODEL 5
REMARK VINA RESULT:      -7.6      4.200      6.958
REMARK  5 active torsions:
REMARK  status: ('A' for Active; 'I' for Inactive)
REMARK    1  A    between atoms: C7_7  and  O1_8 
REMARK    2  A    between atoms: O1_8  and  C8_9 
REMARK    3  A    between atoms: C8_9  and  C9_10 
REMARK    4  A    between atoms: C9_10  and  C10_11 
REMARK    5  A    between atoms: C10_11  and  N1_12 
ROOT
HETATM    1  C1  UNL     1      27.899   4.722  48.523  1.00  0.00     0.051 C 
HETATM    2  C2  UNL     1      26.641   4.919  49.331  1.00  0.00    -0.025 A 
HETATM    3  C3  UNL     1      26.217   3.812  50.003  1.00  0.00     0.055 A 
HETATM    4  C4  UNL     1      25.071   3.905  50.766  1.00  0.00     0.120 A 
HETATM    5  C5  UNL     1      24.395   5.076  50.836  1.00  0.00     0.023 A 
HETATM    6  C6  UNL     1      24.898   6.173  50.114  1.00  0.00     0.053 A 
HETATM    7  C7  UNL     1      26.033   6.145  49.336  1.00  0.00     0.075 A 
HETATM    8  C15 UNL     1      23.323   5.582  51.385  1.00  0.00     0.103 C 
HETATM    9  N2  UNL     1      22.188   5.392  52.199  1.00  0.00    -0.365 N 
HETATM   10  C16 UNL     1      21.887   4.106  51.551  1.00  0.00     0.035 A 
HETATM   11  C17 UNL     1      21.007   3.904  50.501  1.00  0.00     0.056 A 
HETATM   12  C18 UNL     1      20.915   2.675  49.857  1.00  0.00     0.077 A 
HETATM   13 CL1  UNL     1      19.774   2.526  48.552  1.00  0.00    -0.081 Cl
HETATM   14  C19 UNL     1      21.721   1.625  50.270  1.00  0.00     0.166 A 
HETATM   15  F1  UNL     1      21.692   0.412  49.695  1.00  0.00    -0.202 F 
HETATM   16  C20 UNL     1      22.558   1.924  51.316  1.00  0.00     0.101 A 
HETATM   17  C21 UNL     1      22.723   3.092  52.027  1.00  0.00     0.064 A 
HETATM   18  N3  UNL     1      23.640   1.029  51.742  1.00  0.00    -0.227 NA
HETATM   19  C22 UNL     1      24.881   1.600  51.732  1.00  0.00     0.300 C 
HETATM   20  N4  UNL     1      24.799   2.865  51.331  1.00  0.00    -0.398 NA
HETATM   21  H21 UNL     1      21.397   5.182  52.712  1.00  0.00     0.165 HD
ENDROOT
BRANCH   7  22
HETATM   22  O1  UNL     1      26.652   7.083  48.590  1.00  0.00    -0.351 OA
BRANCH  22  23
HETATM   23  C8  UNL     1      27.385   8.198  48.918  1.00  0.00     0.177 C 
BRANCH  23  24
HETATM   24  C9  UNL     1      28.334   8.722  47.871  1.00  0.00     0.057 C 
BRANCH  24  25
HETATM   25  C10 UNL     1      29.721   8.709  48.505  1.00  0.00     0.274 C 
BRANCH  25  26
HETATM   26  N1  UNL     1      30.245   7.372  48.631  1.00  0.00     0.092 N 
HETATM   27  C11 UNL     1      31.490   7.364  49.402  1.00  0.00     0.298 C 
HETATM   28  C12 UNL     1      31.900   5.912  49.690  1.00  0.00     0.198 C 
HETATM   29  O2  UNL     1      31.515   5.095  48.619  1.00  0.00    -0.388 OA
HETATM   30  C13 UNL     1      31.603   5.812  47.420  1.00  0.00     0.198 C 
HETATM   31  C14 UNL     1      30.478   6.810  47.335  1.00  0.00     0.298 C 
ENDBRANCH  25  26
ENDBRANCH  24  25
ENDBRANCH  23  24
ENDBRANCH  22  23
ENDBRANCH   7  22
TORSDOF 5
ENDMDL
MODEL 6
REMARK VINA RESULT:      -7.5      4.303      7.193
REMARK  5 active torsions:
REMARK  status: ('A' for Active; 'I' for Inactive)
REMARK    1  A    between atoms: C7_7  and  O1_8 
REMARK    2  A    between atoms: O1_8  and  C8_9 
REMARK    3  A    between atoms: C8_9  and  C9_10 
REMARK    4  A    between atoms: C9_10  and  C10_11 
REMARK    5  A    between atoms: C10_11  and  N1_12 
ROOT
HETATM    1  C1  UNL     1      21.269  -0.133  54.284  1.00  0.00     0.051 C 
HETATM    2  C2  UNL     1      21.457   0.347  52.867  1.00  0.00    -0.025 A 
HETATM    3  C3  UNL     1      22.665   0.927  52.618  1.00  0.00     0.055 A 
HETATM    4  C4  UNL     1      22.920   1.396  51.345  1.00  0.00     0.120 A 
HETATM    5  C5  UNL     1      21.980   1.277  50.377  1.00  0.00     0.023 A 
HETATM    6  C6  UNL     1      20.759   0.667  50.714  1.00  0.00     0.053 A 
HETATM    7  C7  UNL     1      20.444   0.179  51.962  1.00  0.00     0.075 A 
HETATM    8  C15 UNL     1      21.795   1.578  49.119  1.00  0.00     0.103 C 
HETATM    9  N2  UNL     1      22.298   2.160  47.939  1.00  0.00    -0.365 N 
HETATM   10  C16 UNL     1      22.820   3.318  48.682  1.00  0.00     0.035 A 
HETATM   11  C17 UNL     1      22.183   4.534  48.856  1.00  0.00     0.056 A 
HETATM   12  C18 UNL     1      22.694   5.506  49.710  1.00  0.00     0.077 A 
HETATM   13 CL1  UNL     1      21.818   7.003  49.854  1.00  0.00    -0.081 Cl
HETATM   14  C19 UNL     1      23.866   5.255  50.406  1.00  0.00     0.166 A 
HETATM   15  F1  UNL     1      24.418   6.141  51.251  1.00  0.00    -0.202 F 
HETATM   16  C20 UNL     1      24.421   4.023  50.167  1.00  0.00     0.101 A 
HETATM   17  C21 UNL     1      24.010   2.998  49.343  1.00  0.00     0.064 A 
HETATM   18  N3  UNL     1      25.523   3.483  50.972  1.00  0.00    -0.227 NA
HETATM   19  C22 UNL     1      25.256   2.276  51.555  1.00  0.00     0.300 C 
HETATM   20  N4  UNL     1      24.030   1.875  51.236  1.00  0.00    -0.398 NA
HETATM   21  H21 UNL     1      22.672   2.629  47.182  1.00  0.00     0.165 HD
ENDROOT
BRANCH   7  22
HETATM   22  O1  UNL     1      19.344  -0.427  52.455  1.00  0.00    -0.351 OA
BRANCH  22  23
HETATM   23  C8  UNL     1      18.006  -0.121  52.390  1.00  0.00     0.177 C 
BRANCH  23  24
HETATM   24  C9  UNL     1      17.329  -0.312  51.058  1.00  0.00     0.057 C 
BRANCH  24  25
HETATM   25  C10 UNL     1      17.131   1.082  50.472  1.00  0.00     0.274 C 
BRANCH  25  26
HETATM   26  N1  UNL     1      16.723   2.036  51.472  1.00  0.00     0.092 N 
HETATM   27  C11 UNL     1      15.265   2.168  51.511  1.00  0.00     0.298 C 
HETATM   28  C12 UNL     1      14.864   3.026  52.720  1.00  0.00     0.198 C 
HETATM   29  O2  UNL     1      15.849   3.996  52.953  1.00  0.00    -0.388 OA
HETATM   30  C13 UNL     1      16.415   4.398  51.738  1.00  0.00     0.198 C 
HETATM   31  C14 UNL     1      17.315   3.311  51.207  1.00  0.00     0.298 C 
ENDBRANCH  25  26
ENDBRANCH  24  25
ENDBRANCH  23  24
ENDBRANCH  22  23
ENDBRANCH   7  22
TORSDOF 5
ENDMDL
MODEL 7
REMARK VINA RESULT:      -7.5      4.287      7.576
REMARK  5 active torsions:
REMARK  status: ('A' for Active; 'I' for Inactive)
REMARK    1  A    between atoms: C7_7  and  O1_8 
REMARK    2  A    between atoms: O1_8  and  C8_9 
REMARK    3  A    between atoms: C8_9  and  C9_10 
REMARK    4  A    between atoms: C9_10  and  C10_11 
REMARK    5  A    between atoms: C10_11  and  N1_12 
ROOT
HETATM    1  C1  UNL     1      27.761   4.762  48.530  1.00  0.00     0.051 C 
HETATM    2  C2  UNL     1      26.537   4.923  49.397  1.00  0.00    -0.025 A 
HETATM    3  C3  UNL     1      26.168   3.800  50.075  1.00  0.00     0.055 A 
HETATM    4  C4  UNL     1      25.056   3.860  50.890  1.00  0.00     0.120 A 
HETATM    5  C5  UNL     1      24.357   5.014  51.002  1.00  0.00     0.023 A 
HETATM    6  C6  UNL     1      24.802   6.128  50.269  1.00  0.00     0.053 A 
HETATM    7  C7  UNL     1      25.901   6.134  49.440  1.00  0.00     0.075 A 
HETATM    8  C15 UNL     1      23.300   5.490  51.604  1.00  0.00     0.103 C 
HETATM    9  N2  UNL     1      22.207   5.265  52.465  1.00  0.00    -0.365 N 
HETATM   10  C16 UNL     1      21.907   3.979  51.818  1.00  0.00     0.035 A 
HETATM   11  C17 UNL     1      20.986   3.766  50.807  1.00  0.00     0.056 A 
HETATM   12  C18 UNL     1      20.893   2.541  50.156  1.00  0.00     0.077 A 
HETATM   13 CL1  UNL     1      19.698   2.376  48.901  1.00  0.00    -0.081 Cl
HETATM   14  C19 UNL     1      21.741   1.506  50.522  1.00  0.00     0.166 A 
HETATM   15  F1  UNL     1      21.714   0.298  49.936  1.00  0.00    -0.202 F 
HETATM   16  C20 UNL     1      22.617   1.816  51.532  1.00  0.00     0.101 A 
HETATM   17  C21 UNL     1      22.787   2.980  52.247  1.00  0.00     0.064 A 
HETATM   18  N3  UNL     1      23.737   0.942  51.900  1.00  0.00    -0.227 NA
HETATM   19  C22 UNL     1      24.963   1.543  51.840  1.00  0.00     0.300 C 
HETATM   20  N4  UNL     1      24.834   2.809  51.456  1.00  0.00    -0.398 NA
HETATM   21  H21 UNL     1      21.445   5.033  53.011  1.00  0.00     0.165 HD
ENDROOT
BRANCH   7  22
HETATM   22  O1  UNL     1      26.464   7.093  48.677  1.00  0.00    -0.351 OA
BRANCH  22  23
HETATM   23  C8  UNL     1      25.988   8.279  48.172  1.00  0.00     0.177 C 
BRANCH  23  24
HETATM   24  C9  UNL     1      26.379   9.536  48.906  1.00  0.00     0.057 C 
BRANCH  24  25
HETATM   25  C10 UNL     1      27.427   9.123  49.935  1.00  0.00     0.274 C 
BRANCH  25  26
HETATM   26  N1  UNL     1      28.696   9.766  49.701  1.00  0.00     0.092 N 
HETATM   27  C11 UNL     1      28.539  10.953  48.859  1.00  0.00     0.298 C 
HETATM   28  C12 UNL     1      29.870  11.719  48.809  1.00  0.00     0.198 C 
HETATM   29  O2  UNL     1      30.936  10.812  48.874  1.00  0.00    -0.388 OA
HETATM   30  C13 UNL     1      30.584   9.620  48.232  1.00  0.00     0.198 C 
HETATM   31  C14 UNL     1      29.604   8.850  49.080  1.00  0.00     0.298 C 
ENDBRANCH  25  26
ENDBRANCH  24  25
ENDBRANCH  23  24
ENDBRANCH  22  23
ENDBRANCH   7  22
TORSDOF 5
ENDMDL
MODEL 8
REMARK VINA RESULT:      -7.2      4.425      7.921
REMARK  5 active torsions:
REMARK  status: ('A' for Active; 'I' for Inactive)
REMARK    1  A    between atoms: C7_7  and  O1_8 
REMARK    2  A    between atoms: O1_8  and  C8_9 
REMARK    3  A    between atoms: C8_9  and  C9_10 
REMARK    4  A    between atoms: C9_10  and  C10_11 
REMARK    5  A    between atoms: C10_11  and  N1_12 
ROOT
HETATM    1  C1  UNL     1      27.465   8.587  46.273  1.00  0.00     0.051 C 
HETATM    2  C2  UNL     1      26.740   8.216  47.542  1.00  0.00    -0.025 A 
HETATM    3  C3  UNL     1      26.874   6.913  47.915  1.00  0.00     0.055 A 
HETATM    4  C4  UNL     1      26.240   6.489  49.065  1.00  0.00     0.120 A 
HETATM    5  C5  UNL     1      25.504   7.360  49.795  1.00  0.00     0.023 A 
HETATM    6  C6  UNL     1      25.415   8.688  49.344  1.00  0.00     0.053 A 
HETATM    7  C7  UNL     1      26.022   9.173  48.207  1.00  0.00     0.075 A 
HETATM    8  C15 UNL     1      24.764   7.389  50.871  1.00  0.00     0.103 C 
HETATM    9  N2  UNL     1      24.209   6.694  51.964  1.00  0.00    -0.365 N 
HETATM   10  C16 UNL     1      23.842   5.555  51.108  1.00  0.00     0.035 A 
HETATM   11  C17 UNL     1      22.611   5.341  50.513  1.00  0.00     0.056 A 
HETATM   12  C18 UNL     1      22.417   4.316  49.593  1.00  0.00     0.077 A 
HETATM   13 CL1  UNL     1      20.829   4.129  48.907  1.00  0.00    -0.081 Cl
HETATM   14  C19 UNL     1      23.479   3.488  49.260  1.00  0.00     0.166 A 
HETATM   15  F1  UNL     1      23.371   2.481  48.377  1.00  0.00    -0.202 F 
HETATM   16  C20 UNL     1      24.656   3.781  49.902  1.00  0.00     0.101 A 
HETATM   17  C21 UNL     1      24.954   4.756  50.828  1.00  0.00     0.064 A 
HETATM   18  N3  UNL     1      25.936   3.176  49.517  1.00  0.00    -0.227 NA
HETATM   19  C22 UNL     1      26.910   4.077  49.189  1.00  0.00     0.300 C 
HETATM   20  N4  UNL     1      26.444   5.317  49.307  1.00  0.00    -0.398 NA
HETATM   21  H21 UNL     1      23.808   6.150  52.654  1.00  0.00     0.165 HD
ENDROOT
BRANCH   7  22
HETATM   22  O1  UNL     1      26.046  10.394  47.634  1.00  0.00    -0.351 OA
BRANCH  22  23
HETATM   23  C8  UNL     1      26.525  11.611  48.058  1.00  0.00     0.177 C 
BRANCH  23  24
HETATM   24  C9  UNL     1      27.947  11.946  47.692  1.00  0.00     0.057 C 
BRANCH  24  25
HETATM   25  C10 UNL     1      28.747  11.901  48.991  1.00  0.00     0.274 C 
BRANCH  25  26
HETATM   26  N1  UNL     1      29.837  10.962  48.922  1.00  0.00     0.092 N 
HETATM   27  C11 UNL     1      30.270  10.757  47.538  1.00  0.00     0.298 C 
HETATM   28  C12 UNL     1      31.558   9.920  47.527  1.00  0.00     0.198 C 
HETATM   29  O2  UNL     1      31.535   9.010  48.593  1.00  0.00    -0.388 OA
HETATM   30  C13 UNL     1      30.220   8.597  48.835  1.00  0.00     0.198 C 
HETATM   31  C14 UNL     1      29.446   9.710  49.494  1.00  0.00     0.298 C 
ENDBRANCH  25  26
ENDBRANCH  24  25
ENDBRANCH  23  24
ENDBRANCH  22  23
ENDBRANCH   7  22
TORSDOF 5
ENDMDL
MODEL 9
REMARK VINA RESULT:      -7.2      5.903      7.847
REMARK  5 active torsions:
REMARK  status: ('A' for Active; 'I' for Inactive)
REMARK    1  A    between atoms: C7_7  and  O1_8 
REMARK    2  A    between atoms: O1_8  and  C8_9 
REMARK    3  A    between atoms: C8_9  and  C9_10 
REMARK    4  A    between atoms: C9_10  and  C10_11 
REMARK    5  A    between atoms: C10_11  and  N1_12 
ROOT
HETATM    1  C1  UNL     1      27.262   8.288  47.672  1.00  0.00     0.051 C 
HETATM    2  C2  UNL     1      28.478   7.405  47.802  1.00  0.00    -0.025 A 
HETATM    3  C3  UNL     1      29.664   8.031  47.564  1.00  0.00     0.055 A 
HETATM    4  C4  UNL     1      30.827   7.294  47.660  1.00  0.00     0.120 A 
HETATM    5  C5  UNL     1      30.774   5.980  47.982  1.00  0.00     0.023 A 
HETATM    6  C6  UNL     1      29.511   5.408  48.212  1.00  0.00     0.053 A 
HETATM    7  C7  UNL     1      28.316   6.087  48.133  1.00  0.00     0.075 A 
HETATM    8  C15 UNL     1      31.570   4.959  48.155  1.00  0.00     0.103 C 
HETATM    9  N2  UNL     1      32.883   4.448  48.153  1.00  0.00    -0.365 N 
HETATM   10  C16 UNL     1      33.201   5.153  46.902  1.00  0.00     0.035 A 
HETATM   11  C17 UNL     1      33.133   4.625  45.624  1.00  0.00     0.056 A 
HETATM   12  C18 UNL     1      33.302   5.424  44.498  1.00  0.00     0.077 A 
HETATM   13 CL1  UNL     1      33.202   4.661  42.937  1.00  0.00    -0.081 Cl
HETATM   14  C19 UNL     1      33.541   6.782  44.654  1.00  0.00     0.166 A 
HETATM   15  F1  UNL     1      33.709   7.617  43.615  1.00  0.00    -0.202 F 
HETATM   16  C20 UNL     1      33.590   7.208  45.957  1.00  0.00     0.101 A 
HETATM   17  C21 UNL     1      33.449   6.509  47.136  1.00  0.00     0.064 A 
HETATM   18  N3  UNL     1      33.603   8.629  46.323  1.00  0.00    -0.227 NA
HETATM   19  C22 UNL     1      32.589   9.005  47.158  1.00  0.00     0.300 C 
HETATM   20  N4  UNL     1      31.821   7.958  47.445  1.00  0.00    -0.398 NA
HETATM   21  H21 UNL     1      33.796   4.144  48.073  1.00  0.00     0.165 HD
ENDROOT
BRANCH   7  22
HETATM   22  O1  UNL     1      27.035   5.707  48.319  1.00  0.00    -0.351 OA
BRANCH  22  23
HETATM   23  C8  UNL     1      26.408   5.016  49.329  1.00  0.00     0.177 C 
BRANCH  23  24
HETATM   24  C9  UNL     1      24.938   4.737  49.150  1.00  0.00     0.057 C 
BRANCH  24  25
HETATM   25  C10 UNL     1      24.709   3.312  49.643  1.00  0.00     0.274 C 
BRANCH  25  26
HETATM   26  N1  UNL     1      24.917   3.191  51.064  1.00  0.00     0.092 N 
HETATM   27  C11 UNL     1      25.818   2.079  51.373  1.00  0.00     0.298 C 
HETATM   28  C12 UNL     1      26.177   2.116  52.866  1.00  0.00     0.198 C 
HETATM   29  O2  UNL     1      25.087   2.604  53.598  1.00  0.00    -0.388 OA
HETATM   30  C13 UNL     1      23.891   2.204  52.992  1.00  0.00     0.198 C 
HETATM   31  C14 UNL     1      23.665   2.997  51.730  1.00  0.00     0.298 C 
ENDBRANCH  25  26
ENDBRANCH  24  25
ENDBRANCH  23  24
ENDBRANCH  22  23
ENDBRANCH   7  22
TORSDOF 5
ENDMDL
