MODEL 1
REMARK VINA RESULT:      -8.6      0.000      0.000
REMARK  8 active torsions:
REMARK  status: ('A' for Active; 'I' for Inactive)
REMARK    1  A    between atoms: O1_2  and  C2_3 
REMARK    2  A    between atoms: C6_9  and  N3_10 
REMARK    3  A    between atoms: N3_10  and  C7_11 
REMARK    4  A    between atoms: C15_21  and  C16_22 
REMARK    5  A    between atoms: C16_22  and  N4_23 
REMARK    6  A    between atoms: N4_23  and  C17_24 
REMARK    7  A    between atoms: C17_24  and  C19_26 
REMARK    8  A    between atoms: C19_26  and  N5_28 
ROOT
HETATM    1  C2  UNL     1      24.102  -0.053  53.638  1.00  0.00     0.078 A 
HETATM    2  C3  UNL     1      22.978   0.700  53.362  1.00  0.00     0.070 A 
HETATM    3  C4  UNL     1      23.041   1.614  52.341  1.00  0.00     0.074 A 
HETATM    4  N1  UNL     1      21.912   2.317  52.116  1.00  0.00    -0.241 NA
HETATM    5  C5  UNL     1      21.920   3.224  51.122  1.00  0.00     0.236 A 
HETATM    6  N2  UNL     1      23.014   3.424  50.379  1.00  0.00    -0.224 NA
HETATM    7  C6  UNL     1      24.155   2.763  50.551  1.00  0.00     0.142 A 
HETATM    8  C13 UNL     1      24.158   1.839  51.558  1.00  0.00     0.039 A 
HETATM    9  C14 UNL     1      25.224   1.044  51.908  1.00  0.00     0.029 A 
HETATM   10  C15 UNL     1      25.299   0.077  52.921  1.00  0.00    -0.006 A 
ENDROOT
BRANCH   7  11
HETATM   11  N3  UNL     1      25.329   2.947  49.785  1.00  0.00    -0.340 N 
HETATM   12  H6  UNL     1      25.925   2.170  49.506  1.00  0.00     0.167 HD
BRANCH  11  13
HETATM   13  C7  UNL     1      25.857   4.169  49.295  1.00  0.00     0.035 A 
HETATM   14  C8  UNL     1      25.098   5.297  49.082  1.00  0.00     0.032 A 
HETATM   15  C9  UNL     1      25.598   6.493  48.613  1.00  0.00     0.046 A 
HETATM   16  C10 UNL     1      26.932   6.616  48.328  1.00  0.00     0.138 A 
HETATM   17  F1  UNL     1      27.518   7.744  47.864  1.00  0.00    -0.204 F 
HETATM   18  C11 UNL     1      27.746   5.525  48.519  1.00  0.00     0.074 A 
HETATM   19 CL1  UNL     1      29.441   5.610  48.178  1.00  0.00    -0.081 Cl
HETATM   20  C12 UNL     1      27.186   4.361  48.989  1.00  0.00     0.056 A 
ENDBRANCH  11  13
ENDBRANCH   7  11
BRANCH  10  21
HETATM   21  C16 UNL     1      26.549  -0.656  53.175  1.00  0.00     0.156 C 
BRANCH  21  22
HETATM   22  N4  UNL     1      27.375  -0.301  54.210  1.00  0.00    -0.411 N 
HETATM   23  H13 UNL     1      27.145  -0.911  55.057  1.00  0.00     0.153 HD
BRANCH  22  24
HETATM   24  C17 UNL     1      28.699   0.084  54.224  1.00  0.00     0.105 C 
HETATM   25  C18 UNL     1      29.727  -0.929  53.742  1.00  0.00     0.034 C 
BRANCH  24  26
HETATM   26  C19 UNL     1      29.072   1.485  53.861  1.00  0.00     0.235 C 
HETATM   27  C20 UNL     1      28.034   2.413  53.408  1.00  0.00     0.044 C 
BRANCH  26  28
HETATM   28  N5  UNL     1      29.839   2.049  54.969  1.00  0.00     0.084 N 
HETATM   29  H22 UNL     1      30.535   2.735  54.561  1.00  0.00     0.313 HD
HETATM   30  H23 UNL     1      29.195   2.665  55.552  1.00  0.00     0.313 HD
ENDBRANCH  26  28
ENDBRANCH  24  26
ENDBRANCH  22  24
ENDBRANCH  21  22
ENDBRANCH  10  21
BRANCH   1  31
HETATM   31  O1  UNL     1      24.048  -0.968  54.646  1.00  0.00    -0.355 OA
HETATM   32  C1  UNL     1      22.918  -1.375  55.374  1.00  0.00     0.210 C 
ENDBRANCH   1  31
TORSDOF 8
ENDMDL
MODEL 2
REMARK VINA RESULT:      -8.6      3.666      6.837
REMARK  8 active torsions:
REMARK  status: ('A' for Active; 'I' for Inactive)
REMARK    1  A    between atoms: O1_2  and  C2_3 
REMARK    2  A    between atoms: C6_9  and  N3_10 
REMARK    3  A    between atoms: N3_10  and  C7_11 
REMARK    4  A    between atoms: C15_21  and  C16_22 
REMARK    5  A    between atoms: C16_22  and  N4_23 
REMARK    6  A    between atoms: N4_23  and  C17_24 
REMARK    7  A    between atoms: C17_24  and  C19_26 
REMARK    8  A    between atoms: C19_26  and  N5_28 
ROOT
HETATM    1  C2  UNL     1      23.535   3.229  49.408  1.00  0.00     0.078 A 
HETATM    2  C3  UNL     1      22.649   2.291  49.898  1.00  0.00     0.070 A 
HETATM    3  C4  UNL     1      22.947   1.670  51.086  1.00  0.00     0.074 A 
HETATM    4  N1  UNL     1      22.043   0.766  51.516  1.00  0.00    -0.241 NA
HETATM    5  C5  UNL     1      22.288   0.133  52.677  1.00  0.00     0.236 A 
HETATM    6  N2  UNL     1      23.393   0.390  53.385  1.00  0.00    -0.224 NA
HETATM    7  C6  UNL     1      24.320   1.269  53.014  1.00  0.00     0.142 A 
HETATM    8  C13 UNL     1      24.082   1.919  51.835  1.00  0.00     0.039 A 
HETATM    9  C14 UNL     1      24.902   2.866  51.267  1.00  0.00     0.029 A 
HETATM   10  C15 UNL     1      24.722   3.573  50.069  1.00  0.00    -0.006 A 
ENDROOT
BRANCH   7  11
HETATM   11  N3  UNL     1      25.499   1.567  53.736  1.00  0.00    -0.340 N 
HETATM   12  H6  UNL     1      25.542   2.319  54.421  1.00  0.00     0.167 HD
BRANCH  11  13
HETATM   13  C7  UNL     1      26.755   0.915  53.644  1.00  0.00     0.035 A 
HETATM   14  C8  UNL     1      27.959   1.543  53.863  1.00  0.00     0.032 A 
HETATM   15  C9  UNL     1      29.187   0.921  53.784  1.00  0.00     0.046 A 
HETATM   16  C10 UNL     1      29.264  -0.411  53.469  1.00  0.00     0.138 A 
HETATM   17  F1  UNL     1      30.417  -1.110  53.366  1.00  0.00    -0.204 F 
HETATM   18  C11 UNL     1      28.095  -1.097  53.238  1.00  0.00     0.074 A 
HETATM   19 CL1  UNL     1      28.119  -2.781  52.835  1.00  0.00    -0.081 Cl
HETATM   20  C12 UNL     1      26.904  -0.419  53.332  1.00  0.00     0.056 A 
ENDBRANCH  11  13
ENDBRANCH   7  11
BRANCH  10  21
HETATM   21  C16 UNL     1      25.734   4.530  49.597  1.00  0.00     0.156 C 
BRANCH  21  22
HETATM   22  N4  UNL     1      25.813   5.790  50.133  1.00  0.00    -0.411 N 
HETATM   23  H13 UNL     1      26.842   6.067  50.209  1.00  0.00     0.153 HD
BRANCH  22  24
HETATM   24  C17 UNL     1      25.015   6.902  49.958  1.00  0.00     0.105 C 
HETATM   25  C18 UNL     1      24.541   7.208  48.545  1.00  0.00     0.034 C 
BRANCH  24  26
HETATM   26  C19 UNL     1      23.989   7.252  50.988  1.00  0.00     0.235 C 
HETATM   27  C20 UNL     1      22.570   7.040  50.693  1.00  0.00     0.044 C 
BRANCH  26  28
HETATM   28  N5  UNL     1      24.371   6.607  52.242  1.00  0.00     0.084 N 
HETATM   29  H22 UNL     1      24.346   5.560  52.084  1.00  0.00     0.313 HD
HETATM   30  H23 UNL     1      25.399   6.807  52.431  1.00  0.00     0.313 HD
ENDBRANCH  26  28
ENDBRANCH  24  26
ENDBRANCH  22  24
ENDBRANCH  21  22
ENDBRANCH  10  21
BRANCH   1  31
HETATM   31  O1  UNL     1      23.244   3.855  48.233  1.00  0.00    -0.355 OA
HETATM   32  C1  UNL     1      22.251   3.512  47.302  1.00  0.00     0.210 C 
ENDBRANCH   1  31
TORSDOF 8
ENDMDL
MODEL 3
REMARK VINA RESULT:      -8.6      3.313      6.238
REMARK  8 active torsions:
REMARK  status: ('A' for Active; 'I' for Inactive)
REMARK    1  A    between atoms: O1_2  and  C2_3 
REMARK    2  A    between atoms: C6_9  and  N3_10 
REMARK    3  A    between atoms: N3_10  and  C7_11 
REMARK    4  A    between atoms: C15_21  and  C16_22 
REMARK    5  A    between atoms: C16_22  and  N4_23 
REMARK    6  A    between atoms: N4_23  and  C17_24 
REMARK    7  A    between atoms: C17_24  and  C19_26 
REMARK    8  A    between atoms: C19_26  and  N5_28 
ROOT
HETATM    1  C2  UNL     1      21.068   2.266  51.581  1.00  0.00     0.078 A 
HETATM    2  C3  UNL     1      20.683   1.593  52.723  1.00  0.00     0.070 A 
HETATM    3  C4  UNL     1      21.576   0.723  53.298  1.00  0.00     0.074 A 
HETATM    4  N1  UNL     1      21.145   0.097  54.412  1.00  0.00    -0.241 NA
HETATM    5  C5  UNL     1      21.985  -0.764  55.017  1.00  0.00     0.236 A 
HETATM    6  N2  UNL     1      23.209  -0.992  54.529  1.00  0.00    -0.224 NA
HETATM    7  C6  UNL     1      23.690  -0.407  53.436  1.00  0.00     0.142 A 
HETATM    8  C13 UNL     1      22.846   0.470  52.814  1.00  0.00     0.039 A 
HETATM    9  C14 UNL     1      23.137   1.186  51.677  1.00  0.00     0.029 A 
HETATM   10  C15 UNL     1      22.327   2.100  50.987  1.00  0.00    -0.006 A 
ENDROOT
BRANCH   7  11
HETATM   11  N3  UNL     1      24.977  -0.623  52.893  1.00  0.00    -0.340 N 
HETATM   12  H6  UNL     1      25.149  -1.295  52.149  1.00  0.00     0.167 HD
BRANCH  11  13
HETATM   13  C7  UNL     1      26.188   0.017  53.264  1.00  0.00     0.035 A 
HETATM   14  C8  UNL     1      26.275   1.347  53.603  1.00  0.00     0.032 A 
HETATM   15  C9  UNL     1      27.443   1.982  53.971  1.00  0.00     0.046 A 
HETATM   16  C10 UNL     1      28.620   1.281  54.018  1.00  0.00     0.138 A 
HETATM   17  F1  UNL     1      29.815   1.811  54.366  1.00  0.00    -0.204 F 
HETATM   18  C11 UNL     1      28.601  -0.053  53.690  1.00  0.00     0.074 A 
HETATM   19 CL1  UNL     1      30.051  -0.998  53.727  1.00  0.00    -0.081 Cl
HETATM   20  C12 UNL     1      27.404  -0.626  53.331  1.00  0.00     0.056 A 
ENDBRANCH  11  13
ENDBRANCH   7  11
BRANCH  10  21
HETATM   21  C16 UNL     1      22.799   2.749  49.754  1.00  0.00     0.156 C 
BRANCH  21  22
HETATM   22  N4  UNL     1      23.155   4.073  49.749  1.00  0.00    -0.411 N 
HETATM   23  H13 UNL     1      22.283   4.661  49.565  1.00  0.00     0.153 HD
BRANCH  22  24
HETATM   24  C17 UNL     1      24.068   4.770  50.512  1.00  0.00     0.105 C 
HETATM   25  C18 UNL     1      25.155   5.538  49.774  1.00  0.00     0.034 C 
BRANCH  24  26
HETATM   26  C19 UNL     1      23.621   5.473  51.753  1.00  0.00     0.235 C 
HETATM   27  C20 UNL     1      23.578   4.741  53.020  1.00  0.00     0.044 C 
BRANCH  26  28
HETATM   28  N5  UNL     1      24.399   6.704  51.879  1.00  0.00     0.084 N 
HETATM   29  H22 UNL     1      24.552   7.087  50.903  1.00  0.00     0.313 HD
HETATM   30  H23 UNL     1      23.794   7.444  52.346  1.00  0.00     0.313 HD
ENDBRANCH  26  28
ENDBRANCH  24  26
ENDBRANCH  22  24
ENDBRANCH  21  22
ENDBRANCH  10  21
BRANCH   1  31
HETATM   31  O1  UNL     1      20.192   3.137  51.006  1.00  0.00    -0.355 OA
HETATM   32  C1  UNL     1      18.828   2.931  50.743  1.00  0.00     0.210 C 
ENDBRANCH   1  31
TORSDOF 8
ENDMDL
MODEL 4
REMARK VINA RESULT:      -8.5      3.616      6.568
REMARK  8 active torsions:
REMARK  status: ('A' for Active; 'I' for Inactive)
REMARK    1  A    between atoms: O1_2  and  C2_3 
REMARK    2  A    between atoms: C6_9  and  N3_10 
REMARK    3  A    between atoms: N3_10  and  C7_11 
REMARK    4  A    between atoms: C15_21  and  C16_22 
REMARK    5  A    between atoms: C16_22  and  N4_23 
REMARK    6  A    between atoms: N4_23  and  C17_24 
REMARK    7  A    between atoms: C17_24  and  C19_26 
REMARK    8  A    between atoms: C19_26  and  N5_28 
ROOT
HETATM    1  C2  UNL     1      20.179   0.167  52.383  1.00  0.00     0.078 A 
HETATM    2  C3  UNL     1      20.428  -0.484  53.574  1.00  0.00     0.070 A 
HETATM    3  C4  UNL     1      21.734  -0.645  53.968  1.00  0.00     0.074 A 
HETATM    4  N1  UNL     1      21.915  -1.285  55.141  1.00  0.00    -0.241 NA
HETATM    5  C5  UNL     1      23.177  -1.464  55.573  1.00  0.00     0.236 A 
HETATM    6  N2  UNL     1      24.220  -1.022  54.862  1.00  0.00    -0.224 NA
HETATM    7  C6  UNL     1      24.106  -0.385  53.700  1.00  0.00     0.142 A 
HETATM    8  C13 UNL     1      22.828  -0.196  53.251  1.00  0.00     0.039 A 
HETATM    9  C14 UNL     1      22.479   0.438  52.083  1.00  0.00     0.029 A 
HETATM   10  C15 UNL     1      21.198   0.669  51.562  1.00  0.00    -0.006 A 
ENDROOT
BRANCH   7  11
HETATM   11  N3  UNL     1      25.184   0.098  52.924  1.00  0.00    -0.340 N 
HETATM   12  H6  UNL     1      25.044   0.651  52.082  1.00  0.00     0.167 HD
BRANCH  11  13
HETATM   13  C7  UNL     1      26.570  -0.090  53.162  1.00  0.00     0.035 A 
HETATM   14  C8  UNL     1      27.237  -1.264  52.897  1.00  0.00     0.032 A 
HETATM   15  C9  UNL     1      28.584  -1.459  53.116  1.00  0.00     0.046 A 
HETATM   16  C10 UNL     1      29.351  -0.446  53.630  1.00  0.00     0.138 A 
HETATM   17  F1  UNL     1      30.677  -0.538  53.882  1.00  0.00    -0.204 F 
HETATM   18  C11 UNL     1      28.744   0.753  53.917  1.00  0.00     0.074 A 
HETATM   19 CL1  UNL     1      29.652   2.075  54.569  1.00  0.00    -0.081 Cl
HETATM   20  C12 UNL     1      27.397   0.884  53.676  1.00  0.00     0.056 A 
ENDBRANCH  11  13
ENDBRANCH   7  11
BRANCH  10  21
HETATM   21  C16 UNL     1      21.018   1.338  50.264  1.00  0.00     0.156 C 
BRANCH  21  22
HETATM   22  N4  UNL     1      21.394   2.646  50.090  1.00  0.00    -0.411 N 
HETATM   23  H13 UNL     1      20.654   3.277  50.532  1.00  0.00     0.153 HD
BRANCH  22  24
HETATM   24  C17 UNL     1      22.636   3.245  50.123  1.00  0.00     0.105 C 
HETATM   25  C18 UNL     1      23.276   3.602  48.790  1.00  0.00     0.034 C 
BRANCH  24  26
HETATM   26  C19 UNL     1      22.955   4.243  51.190  1.00  0.00     0.235 C 
HETATM   27  C20 UNL     1      22.014   4.442  52.294  1.00  0.00     0.044 C 
BRANCH  26  28
HETATM   28  N5  UNL     1      24.300   3.959  51.685  1.00  0.00     0.084 N 
HETATM   29  H22 UNL     1      24.430   4.502  52.586  1.00  0.00     0.313 HD
HETATM   30  H23 UNL     1      24.343   2.943  51.997  1.00  0.00     0.313 HD
ENDBRANCH  26  28
ENDBRANCH  24  26
ENDBRANCH  22  24
ENDBRANCH  21  22
ENDBRANCH  10  21
BRANCH   1  31
HETATM   31  O1  UNL     1      18.886   0.336  51.987  1.00  0.00    -0.355 OA
HETATM   32  C1  UNL     1      17.811  -0.548  52.167  1.00  0.00     0.210 C 
ENDBRANCH   1  31
TORSDOF 8
ENDMDL
MODEL 5
REMARK VINA RESULT:      -8.5      1.496      1.933
REMARK  8 active torsions:
REMARK  status: ('A' for Active; 'I' for Inactive)
REMARK    1  A    between atoms: O1_2  and  C2_3 
REMARK    2  A    between atoms: C6_9  and  N3_10 
REMARK    3  A    between atoms: N3_10  and  C7_11 
REMARK    4  A    between atoms: C15_21  and  C16_22 
REMARK    5  A    between atoms: C16_22  and  N4_23 
REMARK    6  A    between atoms: N4_23  and  C17_24 
REMARK    7  A    between atoms: C17_24  and  C19_26 
REMARK    8  A    between atoms: C19_26  and  N5_28 
ROOT
HETATM    1  C2  UNL     1      22.689  -0.436  52.820  1.00  0.00     0.078 A 
HETATM    2  C3  UNL     1      21.840   0.051  51.847  1.00  0.00     0.070 A 
HETATM    3  C4  UNL     1      22.266   1.108  51.081  1.00  0.00     0.074 A 
HETATM    4  N1  UNL     1      21.396   1.538  50.145  1.00  0.00    -0.241 NA
HETATM    5  C5  UNL     1      21.768   2.569  49.365  1.00  0.00     0.236 A 
HETATM    6  N2  UNL     1      22.963   3.151  49.511  1.00  0.00    -0.224 NA
HETATM    7  C6  UNL     1      23.863   2.773  50.415  1.00  0.00     0.142 A 
HETATM    8  C13 UNL     1      23.496   1.725  51.213  1.00  0.00     0.039 A 
HETATM    9  C14 UNL     1      24.269   1.171  52.206  1.00  0.00     0.029 A 
HETATM   10  C15 UNL     1      23.962   0.100  53.059  1.00  0.00    -0.006 A 
ENDROOT
BRANCH   7  11
HETATM   11  N3  UNL     1      25.135   3.362  50.597  1.00  0.00    -0.340 N 
HETATM   12  H6  UNL     1      25.770   3.068  51.336  1.00  0.00     0.167 HD
BRANCH  11  13
HETATM   13  C7  UNL     1      25.720   4.404  49.833  1.00  0.00     0.035 A 
HETATM   14  C8  UNL     1      25.075   5.581  49.527  1.00  0.00     0.032 A 
HETATM   15  C9  UNL     1      25.633   6.605  48.792  1.00  0.00     0.046 A 
HETATM   16  C10 UNL     1      26.912   6.490  48.313  1.00  0.00     0.138 A 
HETATM   17  F1  UNL     1      27.547   7.435  47.583  1.00  0.00    -0.204 F 
HETATM   18  C11 UNL     1      27.611   5.337  48.584  1.00  0.00     0.074 A 
HETATM   19 CL1  UNL     1      29.230   5.125  48.008  1.00  0.00    -0.081 Cl
HETATM   20  C12 UNL     1      26.998   4.353  49.322  1.00  0.00     0.056 A 
ENDBRANCH  11  13
ENDBRANCH   7  11
BRANCH  10  21
HETATM   21  C16 UNL     1      24.909  -0.334  54.097  1.00  0.00     0.156 C 
BRANCH  21  22
HETATM   22  N4  UNL     1      26.065  -0.991  53.763  1.00  0.00    -0.411 N 
HETATM   23  H13 UNL     1      25.826  -1.788  53.093  1.00  0.00     0.153 HD
BRANCH  22  24
HETATM   24  C17 UNL     1      27.342  -0.520  53.534  1.00  0.00     0.105 C 
HETATM   25  C18 UNL     1      27.889   0.518  54.502  1.00  0.00     0.034 C 
BRANCH  24  26
HETATM   26  C19 UNL     1      28.403  -1.452  53.044  1.00  0.00     0.235 C 
HETATM   27  C20 UNL     1      29.750  -1.372  53.611  1.00  0.00     0.044 C 
BRANCH  26  28
HETATM   28  N5  UNL     1      27.877  -2.813  53.119  1.00  0.00     0.084 N 
HETATM   29  H22 UNL     1      26.911  -2.808  52.685  1.00  0.00     0.313 HD
HETATM   30  H23 UNL     1      28.441  -3.435  52.464  1.00  0.00     0.313 HD
ENDBRANCH  26  28
ENDBRANCH  24  26
ENDBRANCH  22  24
ENDBRANCH  21  22
ENDBRANCH  10  21
BRANCH   1  31
HETATM   31  O1  UNL     1      22.277  -1.488  53.582  1.00  0.00    -0.355 OA
HETATM   32  C1  UNL     1      21.305  -1.485  54.595  1.00  0.00     0.210 C 
ENDBRANCH   1  31
TORSDOF 8
ENDMDL
MODEL 6
REMARK VINA RESULT:      -8.5      1.666      2.190
REMARK  8 active torsions:
REMARK  status: ('A' for Active; 'I' for Inactive)
REMARK    1  A    between atoms: O1_2  and  C2_3 
REMARK    2  A    between atoms: C6_9  and  N3_10 
REMARK    3  A    between atoms: N3_10  and  C7_11 
REMARK    4  A    between atoms: C15_21  and  C16_22 
REMARK    5  A    between atoms: C16_22  and  N4_23 
REMARK    6  A    between atoms: N4_23  and  C17_24 
REMARK    7  A    between atoms: C17_24  and  C19_26 
REMARK    8  A    between atoms: C19_26  and  N5_28 
ROOT
HETATM    1  C2  UNL     1      23.679   1.240  53.092  1.00  0.00     0.078 A 
HETATM    2  C3  UNL     1      22.373   1.505  52.731  1.00  0.00     0.070 A 
HETATM    3  C4  UNL     1      22.062   2.769  52.296  1.00  0.00     0.074 A 
HETATM    4  N1  UNL     1      20.772   2.967  51.954  1.00  0.00    -0.241 NA
HETATM    5  C5  UNL     1      20.416   4.189  51.517  1.00  0.00     0.236 A 
HETATM    6  N2  UNL     1      21.312   5.177  51.423  1.00  0.00    -0.224 NA
HETATM    7  C6  UNL     1      22.596   5.044  51.744  1.00  0.00     0.142 A 
HETATM    8  C13 UNL     1      22.969   3.806  52.190  1.00  0.00     0.039 A 
HETATM    9  C14 UNL     1      24.240   3.447  52.571  1.00  0.00     0.029 A 
HETATM   10  C15 UNL     1      24.696   2.203  53.033  1.00  0.00    -0.006 A 
ENDROOT
BRANCH   7  11
HETATM   11  N3  UNL     1      23.570   6.064  51.657  1.00  0.00    -0.340 N 
HETATM   12  H6  UNL     1      23.827   6.642  52.454  1.00  0.00     0.167 HD
BRANCH  11  13
HETATM   13  C7  UNL     1      24.320   6.445  50.514  1.00  0.00     0.035 A 
HETATM   14  C8  UNL     1      24.023   7.542  49.738  1.00  0.00     0.032 A 
HETATM   15  C9  UNL     1      24.746   7.928  48.629  1.00  0.00     0.046 A 
HETATM   16  C10 UNL     1      25.841   7.204  48.236  1.00  0.00     0.138 A 
HETATM   17  F1  UNL     1      26.613   7.500  47.165  1.00  0.00    -0.204 F 
HETATM   18  C11 UNL     1      26.190   6.096  48.969  1.00  0.00     0.074 A 
HETATM   19 CL1  UNL     1      27.561   5.135  48.528  1.00  0.00    -0.081 Cl
HETATM   20  C12 UNL     1      25.429   5.763  50.064  1.00  0.00     0.056 A 
ENDBRANCH  11  13
ENDBRANCH   7  11
BRANCH  10  21
HETATM   21  C16 UNL     1      26.098   2.013  53.433  1.00  0.00     0.156 C 
BRANCH  21  22
HETATM   22  N4  UNL     1      26.441   1.063  54.361  1.00  0.00    -0.411 N 
HETATM   23  H13 UNL     1      25.585   0.844  54.961  1.00  0.00     0.153 HD
BRANCH  22  24
HETATM   24  C17 UNL     1      27.274  -0.034  54.271  1.00  0.00     0.105 C 
HETATM   25  C18 UNL     1      27.092  -0.955  53.074  1.00  0.00     0.034 C 
BRANCH  24  26
HETATM   26  C19 UNL     1      28.706   0.082  54.685  1.00  0.00     0.235 C 
HETATM   27  C20 UNL     1      29.749  -0.506  53.841  1.00  0.00     0.044 C 
BRANCH  26  28
HETATM   28  N5  UNL     1      28.982   1.489  54.964  1.00  0.00     0.084 N 
HETATM   29  H22 UNL     1      29.987   1.679  54.686  1.00  0.00     0.313 HD
HETATM   30  H23 UNL     1      28.419   2.089  54.291  1.00  0.00     0.313 HD
ENDBRANCH  26  28
ENDBRANCH  24  26
ENDBRANCH  22  24
ENDBRANCH  21  22
ENDBRANCH  10  21
BRANCH   1  31
HETATM   31  O1  UNL     1      23.999  -0.014  53.520  1.00  0.00    -0.355 OA
HETATM   32  C1  UNL     1      23.222  -0.874  54.311  1.00  0.00     0.210 C 
ENDBRANCH   1  31
TORSDOF 8
ENDMDL
MODEL 7
REMARK VINA RESULT:      -8.5      1.539      2.075
REMARK  8 active torsions:
REMARK  status: ('A' for Active; 'I' for Inactive)
REMARK    1  A    between atoms: O1_2  and  C2_3 
REMARK    2  A    between atoms: C6_9  and  N3_10 
REMARK    3  A    between atoms: N3_10  and  C7_11 
REMARK    4  A    between atoms: C15_21  and  C16_22 
REMARK    5  A    between atoms: C16_22  and  N4_23 
REMARK    6  A    between atoms: N4_23  and  C17_24 
REMARK    7  A    between atoms: C17_24  and  C19_26 
REMARK    8  A    between atoms: C19_26  and  N5_28 
ROOT
HETATM    1  C2  UNL     1      23.761   0.895  52.772  1.00  0.00     0.078 A 
HETATM    2  C3  UNL     1      22.906   0.853  51.690  1.00  0.00     0.070 A 
HETATM    3  C4  UNL     1      22.901   1.916  50.821  1.00  0.00     0.074 A 
HETATM    4  N1  UNL     1      22.048   1.818  49.781  1.00  0.00    -0.241 NA
HETATM    5  C5  UNL     1      22.009   2.832  48.899  1.00  0.00     0.236 A 
HETATM    6  N2  UNL     1      22.791   3.907  49.046  1.00  0.00    -0.224 NA
HETATM    7  C6  UNL     1      23.651   4.062  50.049  1.00  0.00     0.142 A 
HETATM    8  C13 UNL     1      23.700   3.037  50.952  1.00  0.00     0.039 A 
HETATM    9  C14 UNL     1      24.515   2.987  52.057  1.00  0.00     0.029 A 
HETATM   10  C15 UNL     1      24.621   1.973  53.021  1.00  0.00    -0.006 A 
ENDROOT
BRANCH   7  11
HETATM   11  N3  UNL     1      24.494   5.182  50.236  1.00  0.00    -0.340 N 
HETATM   12  H6  UNL     1      24.285   5.914  50.911  1.00  0.00     0.167 HD
BRANCH  11  13
HETATM   13  C7  UNL     1      25.707   5.471  49.559  1.00  0.00     0.035 A 
HETATM   14  C8  UNL     1      26.650   4.521  49.245  1.00  0.00     0.032 A 
HETATM   15  C9  UNL     1      27.830   4.786  48.583  1.00  0.00     0.046 A 
HETATM   16  C10 UNL     1      28.126   6.065  48.190  1.00  0.00     0.138 A 
HETATM   17  F1  UNL     1      29.254   6.426  47.537  1.00  0.00    -0.204 F 
HETATM   18  C11 UNL     1      27.224   7.062  48.474  1.00  0.00     0.074 A 
HETATM   19 CL1  UNL     1      27.534   8.700  48.008  1.00  0.00    -0.081 Cl
HETATM   20  C12 UNL     1      26.066   6.733  49.138  1.00  0.00     0.056 A 
ENDBRANCH  11  13
ENDBRANCH   7  11
BRANCH  10  21
HETATM   21  C16 UNL     1      25.533   2.112  54.167  1.00  0.00     0.156 C 
BRANCH  21  22
HETATM   22  N4  UNL     1      26.872   1.850  54.036  1.00  0.00    -0.411 N 
HETATM   23  H13 UNL     1      27.418   2.542  54.641  1.00  0.00     0.153 HD
BRANCH  22  24
HETATM   24  C17 UNL     1      27.556   0.659  53.910  1.00  0.00     0.105 C 
HETATM   25  C18 UNL     1      27.298  -0.167  52.658  1.00  0.00     0.034 C 
BRANCH  24  26
HETATM   26  C19 UNL     1      28.975   0.561  54.370  1.00  0.00     0.235 C 
HETATM   27  C20 UNL     1      29.903  -0.323  53.663  1.00  0.00     0.044 C 
BRANCH  26  28
HETATM   28  N5  UNL     1      29.510   1.917  54.473  1.00  0.00     0.084 N 
HETATM   29  H22 UNL     1      30.362   1.973  53.845  1.00  0.00     0.313 HD
HETATM   30  H23 UNL     1      28.822   2.592  54.021  1.00  0.00     0.313 HD
ENDBRANCH  26  28
ENDBRANCH  24  26
ENDBRANCH  22  24
ENDBRANCH  21  22
ENDBRANCH  10  21
BRANCH   1  31
HETATM   31  O1  UNL     1      23.777  -0.158  53.636  1.00  0.00    -0.355 OA
HETATM   32  C1  UNL     1      22.675  -0.846  54.169  1.00  0.00     0.210 C 
ENDBRANCH   1  31
TORSDOF 8
ENDMDL
MODEL 8
REMARK VINA RESULT:      -8.4      3.489      6.247
REMARK  8 active torsions:
REMARK  status: ('A' for Active; 'I' for Inactive)
REMARK    1  A    between atoms: O1_2  and  C2_3 
REMARK    2  A    between atoms: C6_9  and  N3_10 
REMARK    3  A    between atoms: N3_10  and  C7_11 
REMARK    4  A    between atoms: C15_21  and  C16_22 
REMARK    5  A    between atoms: C16_22  and  N4_23 
REMARK    6  A    between atoms: N4_23  and  C17_24 
REMARK    7  A    between atoms: C17_24  and  C19_26 
REMARK    8  A    between atoms: C19_26  and  N5_28 
ROOT
HETATM    1  C2  UNL     1      27.101   1.733  53.024  1.00  0.00     0.078 A 
HETATM    2  C3  UNL     1      26.836   0.917  54.106  1.00  0.00     0.070 A 
HETATM    3  C4  UNL     1      25.639   0.246  54.137  1.00  0.00     0.074 A 
HETATM    4  N1  UNL     1      25.438  -0.538  55.216  1.00  0.00    -0.241 NA
HETATM    5  C5  UNL     1      24.281  -1.221  55.292  1.00  0.00     0.236 A 
HETATM    6  N2  UNL     1      23.358  -1.126  54.330  1.00  0.00    -0.224 NA
HETATM    7  C6  UNL     1      23.498  -0.371  53.243  1.00  0.00     0.142 A 
HETATM    8  C13 UNL     1      24.670   0.327  53.155  1.00  0.00     0.039 A 
HETATM    9  C14 UNL     1      25.024   1.162  52.122  1.00  0.00     0.029 A 
HETATM   10  C15 UNL     1      26.203   1.905  51.962  1.00  0.00    -0.006 A 
ENDROOT
BRANCH   7  11
HETATM   11  N3  UNL     1      22.546  -0.248  52.206  1.00  0.00    -0.340 N 
HETATM   12  H6  UNL     1      22.374  -0.991  51.533  1.00  0.00     0.167 HD
BRANCH  11  13
HETATM   13  C7  UNL     1      21.709   0.865  51.932  1.00  0.00     0.035 A 
HETATM   14  C8  UNL     1      21.048   1.581  52.903  1.00  0.00     0.032 A 
HETATM   15  C9  UNL     1      20.238   2.667  52.652  1.00  0.00     0.046 A 
HETATM   16  C10 UNL     1      20.048   3.101  51.366  1.00  0.00     0.138 A 
HETATM   17  F1  UNL     1      19.273   4.154  51.017  1.00  0.00    -0.204 F 
HETATM   18  C11 UNL     1      20.680   2.428  50.348  1.00  0.00     0.074 A 
HETATM   19 CL1  UNL     1      20.483   2.921  48.700  1.00  0.00    -0.081 Cl
HETATM   20  C12 UNL     1      21.475   1.352  50.664  1.00  0.00     0.056 A 
ENDBRANCH  11  13
ENDBRANCH   7  11
BRANCH  10  21
HETATM   21  C16 UNL     1      26.392   2.782  50.796  1.00  0.00     0.156 C 
BRANCH  21  22
HETATM   22  N4  UNL     1      25.945   4.078  50.812  1.00  0.00    -0.411 N 
HETATM   23  H13 UNL     1      26.750   4.722  50.534  1.00  0.00     0.153 HD
BRANCH  22  24
HETATM   24  C17 UNL     1      24.730   4.622  50.450  1.00  0.00     0.105 C 
HETATM   25  C18 UNL     1      23.934   3.903  49.372  1.00  0.00     0.034 C 
BRANCH  24  26
HETATM   26  C19 UNL     1      23.849   5.236  51.491  1.00  0.00     0.235 C 
HETATM   27  C20 UNL     1      23.478   4.455  52.673  1.00  0.00     0.044 C 
BRANCH  26  28
HETATM   28  N5  UNL     1      24.426   6.524  51.867  1.00  0.00     0.084 N 
HETATM   29  H22 UNL     1      25.045   6.843  51.069  1.00  0.00     0.313 HD
HETATM   30  H23 UNL     1      23.651   7.253  51.889  1.00  0.00     0.313 HD
ENDBRANCH  26  28
ENDBRANCH  24  26
ENDBRANCH  22  24
ENDBRANCH  21  22
ENDBRANCH  10  21
BRANCH   1  31
HETATM   31  O1  UNL     1      28.290   2.399  52.981  1.00  0.00    -0.355 OA
HETATM   32  C1  UNL     1      29.337   2.345  53.914  1.00  0.00     0.210 C 
ENDBRANCH   1  31
TORSDOF 8
ENDMDL
MODEL 9
REMARK VINA RESULT:      -8.4      4.140      7.607
REMARK  8 active torsions:
REMARK  status: ('A' for Active; 'I' for Inactive)
REMARK    1  A    between atoms: O1_2  and  C2_3 
REMARK    2  A    between atoms: C6_9  and  N3_10 
REMARK    3  A    between atoms: N3_10  and  C7_11 
REMARK    4  A    between atoms: C15_21  and  C16_22 
REMARK    5  A    between atoms: C16_22  and  N4_23 
REMARK    6  A    between atoms: N4_23  and  C17_24 
REMARK    7  A    between atoms: C17_24  and  C19_26 
REMARK    8  A    between atoms: C19_26  and  N5_28 
ROOT
HETATM    1  C2  UNL     1      26.484   6.533  48.471  1.00  0.00     0.078 A 
HETATM    2  C3  UNL     1      25.182   6.375  48.902  1.00  0.00     0.070 A 
HETATM    3  C4  UNL     1      24.838   5.196  49.515  1.00  0.00     0.074 A 
HETATM    4  N1  UNL     1      23.554   5.100  49.917  1.00  0.00    -0.241 NA
HETATM    5  C5  UNL     1      23.167   3.966  50.528  1.00  0.00     0.236 A 
HETATM    6  N2  UNL     1      24.027   2.963  50.732  1.00  0.00    -0.224 NA
HETATM    7  C6  UNL     1      25.303   2.997  50.359  1.00  0.00     0.142 A 
HETATM    8  C13 UNL     1      25.708   4.145  49.737  1.00  0.00     0.039 A 
HETATM    9  C14 UNL     1      26.978   4.396  49.275  1.00  0.00     0.029 A 
HETATM   10  C15 UNL     1      27.465   5.544  48.634  1.00  0.00    -0.006 A 
ENDROOT
BRANCH   7  11
HETATM   11  N3  UNL     1      26.241   1.957  50.559  1.00  0.00    -0.340 N 
HETATM   12  H6  UNL     1      26.712   1.493  49.785  1.00  0.00     0.167 HD
BRANCH  11  13
HETATM   13  C7  UNL     1      26.668   1.407  51.794  1.00  0.00     0.035 A 
HETATM   14  C8  UNL     1      26.097   0.298  52.374  1.00  0.00     0.032 A 
HETATM   15  C9  UNL     1      26.505  -0.252  53.571  1.00  0.00     0.046 A 
HETATM   16  C10 UNL     1      27.546   0.308  54.264  1.00  0.00     0.138 A 
HETATM   17  F1  UNL     1      28.021  -0.155  55.444  1.00  0.00    -0.204 F 
HETATM   18  C11 UNL     1      28.161   1.419  53.738  1.00  0.00     0.074 A 
HETATM   19 CL1  UNL     1      29.482   2.177  54.562  1.00  0.00    -0.081 Cl
HETATM   20  C12 UNL     1      27.706   1.919  52.542  1.00  0.00     0.056 A 
ENDBRANCH  11  13
ENDBRANCH   7  11
BRANCH  10  21
HETATM   21  C16 UNL     1      28.859   5.619  48.171  1.00  0.00     0.156 C 
BRANCH  21  22
HETATM   22  N4  UNL     1      29.759   6.453  48.784  1.00  0.00    -0.411 N 
HETATM   23  H13 UNL     1      30.461   5.859  49.328  1.00  0.00     0.153 HD
BRANCH  22  24
HETATM   24  C17 UNL     1      30.333   7.634  48.363  1.00  0.00     0.105 C 
HETATM   25  C18 UNL     1      30.213   7.984  46.887  1.00  0.00     0.034 C 
BRANCH  24  26
HETATM   26  C19 UNL     1      30.276   8.844  49.238  1.00  0.00     0.235 C 
HETATM   27  C20 UNL     1      30.787  10.122  48.736  1.00  0.00     0.044 C 
BRANCH  26  28
HETATM   28  N5  UNL     1      28.907   8.979  49.732  1.00  0.00     0.084 N 
HETATM   29  H22 UNL     1      28.892   8.627  50.731  1.00  0.00     0.313 HD
HETATM   30  H23 UNL     1      28.678  10.014  49.828  1.00  0.00     0.313 HD
ENDBRANCH  26  28
ENDBRANCH  24  26
ENDBRANCH  22  24
ENDBRANCH  21  22
ENDBRANCH  10  21
BRANCH   1  31
HETATM   31  O1  UNL     1      26.837   7.701  47.866  1.00  0.00    -0.355 OA
HETATM   32  C1  UNL     1      26.327   8.237  46.673  1.00  0.00     0.210 C 
ENDBRANCH   1  31
TORSDOF 8
ENDMDL
