MODEL 1
REMARK VINA RESULT:      -7.5      0.000      0.000
REMARK  4 active torsions:
REMARK  status: ('A' for Active; 'I' for Inactive)
REMARK    1  A    between atoms: C4_4  and  N1_5 
REMARK    2  A    between atoms: N1_5  and  C5_6 
REMARK    3  A    between atoms: C8_9  and  S1_10 
REMARK    4  A    between atoms: S1_10  and  C9_11 
ROOT
HETATM    1  C1  UNL     1      29.081   0.790  54.372  1.00  0.00     0.070 C 
HETATM    2  C2  UNL     1      27.648   0.549  54.074  1.00  0.00     0.032 A 
HETATM    3  C3  UNL     1      27.131   1.186  52.960  1.00  0.00     0.057 A 
HETATM    4  C4  UNL     1      25.795   1.032  52.584  1.00  0.00     0.057 A 
HETATM    5  C14 UNL     1      25.035   0.201  53.402  1.00  0.00     0.088 A 
HETATM    6  C15 UNL     1      23.641  -0.037  53.122  1.00  0.00     0.103 C 
HETATM    7  N3  UNL     1      22.525  -0.234  52.881  1.00  0.00    -0.191 NA
HETATM    8  C16 UNL     1      25.537  -0.437  54.512  1.00  0.00     0.142 A 
HETATM    9  N4  UNL     1      26.834  -0.234  54.801  1.00  0.00    -0.264 NA
ENDROOT
BRANCH   4  10
HETATM   10  N1  UNL     1      25.230   1.672  51.447  1.00  0.00    -0.355 N 
HETATM   11  H5  UNL     1      24.561   0.956  51.099  1.00  0.00     0.166 HD
BRANCH  10  12
HETATM   12  C5  UNL     1      25.399   2.930  50.807  1.00  0.00     0.034 A 
HETATM   13  C6  UNL     1      26.434   3.061  49.908  1.00  0.00     0.031 A 
HETATM   14  C7  UNL     1      26.537   4.306  49.323  1.00  0.00     0.023 A 
HETATM   15  C8  UNL     1      25.704   5.374  49.579  1.00  0.00     0.029 A 
HETATM   16  C12 UNL     1      24.680   5.209  50.484  1.00  0.00     0.053 A 
HETATM   17 CL1  UNL     1      23.596   6.531  50.843  1.00  0.00    -0.083 Cl
HETATM   18  C13 UNL     1      24.535   3.961  51.102  1.00  0.00     0.054 A 
BRANCH  15  19
HETATM   19  S1  UNL     1      25.871   6.967  48.803  1.00  0.00    -0.062 SA
BRANCH  19  20
HETATM   20  C9  UNL     1      27.606   7.473  48.756  1.00  0.00     0.139 A 
HETATM   21  N2  UNL     1      28.684   6.875  48.301  1.00  0.00    -0.246 NA
HETATM   22  C10 UNL     1      29.814   7.581  48.446  1.00  0.00     0.126 A 
HETATM   23  C11 UNL     1      29.884   8.822  49.013  1.00  0.00     0.071 A 
HETATM   24  S2  UNL     1      28.147   9.165  49.456  1.00  0.00    -0.073 SA
ENDBRANCH  19  20
ENDBRANCH  15  19
ENDBRANCH  10  12
ENDBRANCH   4  10
TORSDOF 4
ENDMDL
MODEL 2
REMARK VINA RESULT:      -7.3      3.072      4.455
REMARK  4 active torsions:
REMARK  status: ('A' for Active; 'I' for Inactive)
REMARK    1  A    between atoms: C4_4  and  N1_5 
REMARK    2  A    between atoms: N1_5  and  C5_6 
REMARK    3  A    between atoms: C8_9  and  S1_10 
REMARK    4  A    between atoms: S1_10  and  C9_11 
ROOT
HETATM    1  C1  UNL     1      20.881  -1.502  54.278  1.00  0.00     0.070 C 
HETATM    2  C2  UNL     1      22.322  -1.193  54.453  1.00  0.00     0.032 A 
HETATM    3  C3  UNL     1      22.941  -0.518  53.417  1.00  0.00     0.057 A 
HETATM    4  C4  UNL     1      24.293  -0.175  53.473  1.00  0.00     0.057 A 
HETATM    5  C14 UNL     1      24.960  -0.557  54.634  1.00  0.00     0.088 A 
HETATM    6  C15 UNL     1      26.360  -0.263  54.812  1.00  0.00     0.103 C 
HETATM    7  N3  UNL     1      27.482  -0.010  54.952  1.00  0.00    -0.191 NA
HETATM    8  C16 UNL     1      24.355  -1.228  55.670  1.00  0.00     0.142 A 
HETATM    9  N4  UNL     1      23.051  -1.519  55.534  1.00  0.00    -0.264 NA
ENDROOT
BRANCH   4  10
HETATM   10  N1  UNL     1      24.963   0.517  52.427  1.00  0.00    -0.355 N 
HETATM   11  H5  UNL     1      25.599  -0.214  52.049  1.00  0.00     0.166 HD
BRANCH  10  12
HETATM   12  C5  UNL     1      24.916   1.834  51.894  1.00  0.00     0.034 A 
HETATM   13  C6  UNL     1      23.932   2.681  52.355  1.00  0.00     0.031 A 
HETATM   14  C7  UNL     1      23.946   3.942  51.797  1.00  0.00     0.023 A 
HETATM   15  C8  UNL     1      24.847   4.379  50.850  1.00  0.00     0.029 A 
HETATM   16  C12 UNL     1      25.818   3.508  50.411  1.00  0.00     0.053 A 
HETATM   17 CL1  UNL     1      26.984   4.014  49.212  1.00  0.00    -0.083 Cl
HETATM   18  C13 UNL     1      25.843   2.216  50.950  1.00  0.00     0.054 A 
BRANCH  15  19
HETATM   19  S1  UNL     1      24.833   6.017  50.153  1.00  0.00    -0.062 SA
BRANCH  19  20
HETATM   20  C9  UNL     1      23.839   6.058  48.644  1.00  0.00     0.139 A 
HETATM   21  N2  UNL     1      22.977   5.206  48.135  1.00  0.00    -0.246 NA
HETATM   22  C10 UNL     1      22.431   5.595  46.975  1.00  0.00     0.126 A 
HETATM   23  C11 UNL     1      22.717   6.770  46.340  1.00  0.00     0.071 A 
HETATM   24  S2  UNL     1      23.940   7.546  47.451  1.00  0.00    -0.073 SA
ENDBRANCH  19  20
ENDBRANCH  15  19
ENDBRANCH  10  12
ENDBRANCH   4  10
TORSDOF 4
ENDMDL
MODEL 3
REMARK VINA RESULT:      -7.3      2.397      3.907
REMARK  4 active torsions:
REMARK  status: ('A' for Active; 'I' for Inactive)
REMARK    1  A    between atoms: C4_4  and  N1_5 
REMARK    2  A    between atoms: N1_5  and  C5_6 
REMARK    3  A    between atoms: C8_9  and  S1_10 
REMARK    4  A    between atoms: S1_10  and  C9_11 
ROOT
HETATM    1  C1  UNL     1      20.703  -1.770  54.293  1.00  0.00     0.070 C 
HETATM    2  C2  UNL     1      22.110  -1.326  54.450  1.00  0.00     0.032 A 
HETATM    3  C3  UNL     1      22.594  -0.452  53.494  1.00  0.00     0.057 A 
HETATM    4  C4  UNL     1      23.904   0.031  53.541  1.00  0.00     0.057 A 
HETATM    5  C14 UNL     1      24.672  -0.427  54.608  1.00  0.00     0.088 A 
HETATM    6  C15 UNL     1      26.041  -0.003  54.768  1.00  0.00     0.103 C 
HETATM    7  N3  UNL     1      27.135   0.354  54.895  1.00  0.00    -0.191 NA
HETATM    8  C16 UNL     1      24.202  -1.296  55.564  1.00  0.00     0.142 A 
HETATM    9  N4  UNL     1      22.930  -1.711  55.443  1.00  0.00    -0.264 NA
ENDROOT
BRANCH   4  10
HETATM   10  N1  UNL     1      24.435   0.929  52.576  1.00  0.00    -0.355 N 
HETATM   11  H5  UNL     1      25.256   0.403  52.213  1.00  0.00     0.166 HD
BRANCH  10  12
HETATM   12  C5  UNL     1      24.087   2.222  52.098  1.00  0.00     0.034 A 
HETATM   13  C6  UNL     1      24.014   3.249  53.013  1.00  0.00     0.031 A 
HETATM   14  C7  UNL     1      23.674   4.474  52.481  1.00  0.00     0.023 A 
HETATM   15  C8  UNL     1      23.414   4.715  51.148  1.00  0.00     0.029 A 
HETATM   16  C12 UNL     1      23.497   3.667  50.261  1.00  0.00     0.053 A 
HETATM   17 CL1  UNL     1      23.178   3.920  48.561  1.00  0.00    -0.083 Cl
HETATM   18  C13 UNL     1      23.839   2.403  50.755  1.00  0.00     0.054 A 
BRANCH  15  19
HETATM   19  S1  UNL     1      22.978   6.314  50.499  1.00  0.00    -0.062 SA
BRANCH  19  20
HETATM   20  C9  UNL     1      24.462   7.277  50.129  1.00  0.00     0.139 A 
HETATM   21  N2  UNL     1      24.752   8.547  50.301  1.00  0.00    -0.246 NA
HETATM   22  C10 UNL     1      25.980   8.897  49.894  1.00  0.00     0.126 A 
HETATM   23  C11 UNL     1      26.886   8.037  49.342  1.00  0.00     0.071 A 
HETATM   24  S2  UNL     1      25.989   6.447  49.339  1.00  0.00    -0.073 SA
ENDBRANCH  19  20
ENDBRANCH  15  19
ENDBRANCH  10  12
ENDBRANCH   4  10
TORSDOF 4
ENDMDL
MODEL 4
REMARK VINA RESULT:      -7.2      1.142      2.935
REMARK  4 active torsions:
REMARK  status: ('A' for Active; 'I' for Inactive)
REMARK    1  A    between atoms: C4_4  and  N1_5 
REMARK    2  A    between atoms: N1_5  and  C5_6 
REMARK    3  A    between atoms: C8_9  and  S1_10 
REMARK    4  A    between atoms: S1_10  and  C9_11 
ROOT
HETATM    1  C1  UNL     1      20.577   0.335  51.364  1.00  0.00     0.070 C 
HETATM    2  C2  UNL     1      21.856   0.191  52.102  1.00  0.00     0.032 A 
HETATM    3  C3  UNL     1      22.904   0.991  51.687  1.00  0.00     0.057 A 
HETATM    4  C4  UNL     1      24.154   0.941  52.308  1.00  0.00     0.057 A 
HETATM    5  C14 UNL     1      24.262   0.036  53.362  1.00  0.00     0.088 A 
HETATM    6  C15 UNL     1      25.501  -0.113  54.083  1.00  0.00     0.103 C 
HETATM    7  N3  UNL     1      26.497  -0.215  54.666  1.00  0.00    -0.191 NA
HETATM    8  C16 UNL     1      23.227  -0.764  53.783  1.00  0.00     0.142 A 
HETATM    9  N4  UNL     1      22.058  -0.651  53.129  1.00  0.00    -0.264 NA
ENDROOT
BRANCH   4  10
HETATM   10  N1  UNL     1      25.254   1.747  51.908  1.00  0.00    -0.355 N 
HETATM   11  H5  UNL     1      26.056   1.272  52.368  1.00  0.00     0.166 HD
BRANCH  10  12
HETATM   12  C5  UNL     1      25.415   2.912  51.108  1.00  0.00     0.034 A 
HETATM   13  C6  UNL     1      26.428   2.917  50.175  1.00  0.00     0.031 A 
HETATM   14  C7  UNL     1      26.525   4.076  49.434  1.00  0.00     0.023 A 
HETATM   15  C8  UNL     1      25.705   5.175  49.570  1.00  0.00     0.029 A 
HETATM   16  C12 UNL     1      24.702   5.136  50.512  1.00  0.00     0.053 A 
HETATM   17 CL1  UNL     1      23.635   6.503  50.724  1.00  0.00    -0.083 Cl
HETATM   18  C13 UNL     1      24.564   3.979  51.289  1.00  0.00     0.054 A 
BRANCH  15  19
HETATM   19  S1  UNL     1      25.863   6.655  48.593  1.00  0.00    -0.062 SA
BRANCH  19  20
HETATM   20  C9  UNL     1      27.561   7.273  48.646  1.00  0.00     0.139 A 
HETATM   21  N2  UNL     1      28.703   6.738  48.277  1.00  0.00    -0.246 NA
HETATM   22  C10 UNL     1      29.773   7.521  48.477  1.00  0.00     0.126 A 
HETATM   23  C11 UNL     1      29.724   8.775  49.015  1.00  0.00     0.071 A 
HETATM   24  S2  UNL     1      27.943   9.012  49.336  1.00  0.00    -0.073 SA
ENDBRANCH  19  20
ENDBRANCH  15  19
ENDBRANCH  10  12
ENDBRANCH   4  10
TORSDOF 4
ENDMDL
MODEL 5
REMARK VINA RESULT:      -7.0      2.244      2.699
REMARK  4 active torsions:
REMARK  status: ('A' for Active; 'I' for Inactive)
REMARK    1  A    between atoms: C4_4  and  N1_5 
REMARK    2  A    between atoms: N1_5  and  C5_6 
REMARK    3  A    between atoms: C8_9  and  S1_10 
REMARK    4  A    between atoms: S1_10  and  C9_11 
ROOT
HETATM    1  C1  UNL     1      28.760   0.592  54.581  1.00  0.00     0.070 C 
HETATM    2  C2  UNL     1      27.333   0.310  54.286  1.00  0.00     0.032 A 
HETATM    3  C3  UNL     1      26.790   0.949  53.187  1.00  0.00     0.057 A 
HETATM    4  C4  UNL     1      25.457   0.759  52.816  1.00  0.00     0.057 A 
HETATM    5  C14 UNL     1      24.729  -0.110  53.624  1.00  0.00     0.088 A 
HETATM    6  C15 UNL     1      23.342  -0.388  53.348  1.00  0.00     0.103 C 
HETATM    7  N3  UNL     1      22.231  -0.616  53.109  1.00  0.00    -0.191 NA
HETATM    8  C16 UNL     1      25.258  -0.751  54.719  1.00  0.00     0.142 A 
HETATM    9  N4  UNL     1      26.549  -0.511  55.005  1.00  0.00    -0.264 NA
ENDROOT
BRANCH   4  10
HETATM   10  N1  UNL     1      24.864   1.400  51.694  1.00  0.00    -0.355 N 
HETATM   11  H5  UNL     1      24.908   0.658  50.966  1.00  0.00     0.166 HD
BRANCH  10  12
HETATM   12  C5  UNL     1      24.309   2.684  51.440  1.00  0.00     0.034 A 
HETATM   13  C6  UNL     1      24.101   3.520  52.514  1.00  0.00     0.031 A 
HETATM   14  C7  UNL     1      23.563   4.748  52.195  1.00  0.00     0.023 A 
HETATM   15  C8  UNL     1      23.236   5.164  50.922  1.00  0.00     0.029 A 
HETATM   16  C12 UNL     1      23.457   4.304  49.871  1.00  0.00     0.053 A 
HETATM   17 CL1  UNL     1      23.060   4.783  48.238  1.00  0.00    -0.083 Cl
HETATM   18  C13 UNL     1      24.003   3.045  50.147  1.00  0.00     0.054 A 
BRANCH  15  19
HETATM   19  S1  UNL     1      22.541   6.761  50.551  1.00  0.00    -0.062 SA
BRANCH  19  20
HETATM   20  C9  UNL     1      23.783   7.833  49.792  1.00  0.00     0.139 A 
HETATM   21  N2  UNL     1      23.682   8.833  48.945  1.00  0.00    -0.246 NA
HETATM   22  C10 UNL     1      24.851   9.394  48.606  1.00  0.00     0.126 A 
HETATM   23  C11 UNL     1      26.068   8.992  49.078  1.00  0.00     0.071 A 
HETATM   24  S2  UNL     1      25.637   7.608  50.187  1.00  0.00    -0.073 SA
ENDBRANCH  19  20
ENDBRANCH  15  19
ENDBRANCH  10  12
ENDBRANCH   4  10
TORSDOF 4
ENDMDL
MODEL 6
REMARK VINA RESULT:      -7.0      2.132      2.670
REMARK  4 active torsions:
REMARK  status: ('A' for Active; 'I' for Inactive)
REMARK    1  A    between atoms: C4_4  and  N1_5 
REMARK    2  A    between atoms: N1_5  and  C5_6 
REMARK    3  A    between atoms: C8_9  and  S1_10 
REMARK    4  A    between atoms: S1_10  and  C9_11 
ROOT
HETATM    1  C1  UNL     1      28.720   0.495  54.600  1.00  0.00     0.070 C 
HETATM    2  C2  UNL     1      27.297   0.285  54.237  1.00  0.00     0.032 A 
HETATM    3  C3  UNL     1      26.832   0.971  53.130  1.00  0.00     0.057 A 
HETATM    4  C4  UNL     1      25.510   0.849  52.696  1.00  0.00     0.057 A 
HETATM    5  C14 UNL     1      24.708  -0.001  53.452  1.00  0.00     0.088 A 
HETATM    6  C15 UNL     1      23.324  -0.209  53.109  1.00  0.00     0.103 C 
HETATM    7  N3  UNL     1      22.216  -0.382  52.817  1.00  0.00    -0.191 NA
HETATM    8  C16 UNL     1      25.159  -0.688  54.555  1.00  0.00     0.142 A 
HETATM    9  N4  UNL     1      26.445  -0.513  54.902  1.00  0.00    -0.264 NA
ENDROOT
BRANCH   4  10
HETATM   10  N1  UNL     1      24.998   1.539  51.563  1.00  0.00    -0.355 N 
HETATM   11  H5  UNL     1      24.314   0.857  51.179  1.00  0.00     0.166 HD
BRANCH  10  12
HETATM   12  C5  UNL     1      25.229   2.807  50.962  1.00  0.00     0.034 A 
HETATM   13  C6  UNL     1      26.280   2.920  50.080  1.00  0.00     0.031 A 
HETATM   14  C7  UNL     1      26.444   4.175  49.533  1.00  0.00     0.023 A 
HETATM   15  C8  UNL     1      25.653   5.270  49.810  1.00  0.00     0.029 A 
HETATM   16  C12 UNL     1      24.610   5.122  50.697  1.00  0.00     0.053 A 
HETATM   17 CL1  UNL     1      23.578   6.478  51.081  1.00  0.00    -0.083 Cl
HETATM   18  C13 UNL     1      24.405   3.865  51.277  1.00  0.00     0.054 A 
BRANCH  15  19
HETATM   19  S1  UNL     1      25.897   6.876  49.083  1.00  0.00    -0.062 SA
BRANCH  19  20
HETATM   20  C9  UNL     1      24.682   7.176  47.780  1.00  0.00     0.139 A 
HETATM   21  N2  UNL     1      23.564   6.562  47.462  1.00  0.00    -0.246 NA
HETATM   22  C10 UNL     1      22.922   7.088  46.410  1.00  0.00     0.126 A 
HETATM   23  C11 UNL     1      23.356   8.171  45.700  1.00  0.00     0.071 A 
HETATM   24  S2  UNL     1      24.910   8.616  46.547  1.00  0.00    -0.073 SA
ENDBRANCH  19  20
ENDBRANCH  15  19
ENDBRANCH  10  12
ENDBRANCH   4  10
TORSDOF 4
ENDMDL
MODEL 7
REMARK VINA RESULT:      -6.9      2.883      3.618
REMARK  4 active torsions:
REMARK  status: ('A' for Active; 'I' for Inactive)
REMARK    1  A    between atoms: C4_4  and  N1_5 
REMARK    2  A    between atoms: N1_5  and  C5_6 
REMARK    3  A    between atoms: C8_9  and  S1_10 
REMARK    4  A    between atoms: S1_10  and  C9_11 
ROOT
HETATM    1  C1  UNL     1      24.506  -1.303  55.581  1.00  0.00     0.070 C 
HETATM    2  C2  UNL     1      23.269  -1.033  54.807  1.00  0.00     0.032 A 
HETATM    3  C3  UNL     1      23.415  -0.302  53.642  1.00  0.00     0.057 A 
HETATM    4  C4  UNL     1      22.320   0.012  52.833  1.00  0.00     0.057 A 
HETATM    5  C14 UNL     1      21.089  -0.460  53.283  1.00  0.00     0.088 A 
HETATM    6  C15 UNL     1      19.882  -0.201  52.540  1.00  0.00     0.103 C 
HETATM    7  N3  UNL     1      18.920   0.001  51.928  1.00  0.00    -0.191 NA
HETATM    8  C16 UNL     1      20.932  -1.187  54.440  1.00  0.00     0.142 A 
HETATM    9  N4  UNL     1      22.039  -1.444  55.157  1.00  0.00    -0.264 NA
ENDROOT
BRANCH   4  10
HETATM   10  N1  UNL     1      22.431   0.761  51.631  1.00  0.00    -0.355 N 
HETATM   11  H5  UNL     1      22.067   0.095  50.920  1.00  0.00     0.166 HD
BRANCH  10  12
HETATM   12  C5  UNL     1      22.886   2.065  51.291  1.00  0.00     0.034 A 
HETATM   13  C6  UNL     1      23.506   2.807  52.272  1.00  0.00     0.031 A 
HETATM   14  C7  UNL     1      23.923   4.059  51.872  1.00  0.00     0.023 A 
HETATM   15  C8  UNL     1      23.761   4.583  50.608  1.00  0.00     0.029 A 
HETATM   16  C12 UNL     1      23.138   3.814  49.651  1.00  0.00     0.053 A 
HETATM   17 CL1  UNL     1      22.908   4.431  48.033  1.00  0.00    -0.083 Cl
HETATM   18  C13 UNL     1      22.697   2.535  50.010  1.00  0.00     0.054 A 
BRANCH  15  19
HETATM   19  S1  UNL     1      24.314   6.206  50.130  1.00  0.00    -0.062 SA
BRANCH  19  20
HETATM   20  C9  UNL     1      25.945   6.120  49.357  1.00  0.00     0.139 A 
HETATM   21  N2  UNL     1      26.712   7.040  48.816  1.00  0.00    -0.246 NA
HETATM   22  C10 UNL     1      27.877   6.582  48.338  1.00  0.00     0.126 A 
HETATM   23  C11 UNL     1      28.274   5.276  48.389  1.00  0.00     0.071 A 
HETATM   24  S2  UNL     1      26.871   4.456  49.220  1.00  0.00    -0.073 SA
ENDBRANCH  19  20
ENDBRANCH  15  19
ENDBRANCH  10  12
ENDBRANCH   4  10
TORSDOF 4
ENDMDL
MODEL 8
REMARK VINA RESULT:      -6.9      2.483      7.970
REMARK  4 active torsions:
REMARK  status: ('A' for Active; 'I' for Inactive)
REMARK    1  A    between atoms: C4_4  and  N1_5 
REMARK    2  A    between atoms: N1_5  and  C5_6 
REMARK    3  A    between atoms: C8_9  and  S1_10 
REMARK    4  A    between atoms: S1_10  and  C9_11 
ROOT
HETATM    1  C1  UNL     1      32.773   6.058  48.450  1.00  0.00     0.070 C 
HETATM    2  C2  UNL     1      31.679   7.037  48.669  1.00  0.00     0.032 A 
HETATM    3  C3  UNL     1      30.393   6.596  48.416  1.00  0.00     0.057 A 
HETATM    4  C4  UNL     1      29.287   7.430  48.588  1.00  0.00     0.057 A 
HETATM    5  C14 UNL     1      29.573   8.721  49.026  1.00  0.00     0.088 A 
HETATM    6  C15 UNL     1      28.518   9.680  49.239  1.00  0.00     0.103 C 
HETATM    7  N3  UNL     1      27.662  10.438  49.421  1.00  0.00    -0.191 NA
HETATM    8  C16 UNL     1      30.848   9.170  49.280  1.00  0.00     0.142 A 
HETATM    9  N4  UNL     1      31.854   8.301  49.088  1.00  0.00    -0.264 NA
ENDROOT
BRANCH   4  10
HETATM   10  N1  UNL     1      27.952   7.012  48.337  1.00  0.00    -0.355 N 
HETATM   11  H5  UNL     1      27.689   7.590  47.514  1.00  0.00     0.166 HD
BRANCH  10  12
HETATM   12  C5  UNL     1      27.056   6.080  48.931  1.00  0.00     0.034 A 
HETATM   13  C6  UNL     1      27.299   4.739  48.736  1.00  0.00     0.031 A 
HETATM   14  C7  UNL     1      26.394   3.893  49.340  1.00  0.00     0.023 A 
HETATM   15  C8  UNL     1      25.311   4.298  50.092  1.00  0.00     0.029 A 
HETATM   16  C12 UNL     1      25.097   5.646  50.267  1.00  0.00     0.053 A 
HETATM   17 CL1  UNL     1      23.739   6.210  51.211  1.00  0.00    -0.083 Cl
HETATM   18  C13 UNL     1      25.992   6.543  49.672  1.00  0.00     0.054 A 
BRANCH  15  19
HETATM   19  S1  UNL     1      24.162   3.173  50.857  1.00  0.00    -0.062 SA
BRANCH  19  20
HETATM   20  C9  UNL     1      25.044   1.824  51.676  1.00  0.00     0.139 A 
HETATM   21  N2  UNL     1      26.295   1.426  51.614  1.00  0.00    -0.246 NA
HETATM   22  C10 UNL     1      26.578   0.366  52.384  1.00  0.00     0.126 A 
HETATM   23  C11 UNL     1      25.674  -0.276  53.181  1.00  0.00     0.071 A 
HETATM   24  S2  UNL     1      24.137   0.665  52.892  1.00  0.00    -0.073 SA
ENDBRANCH  19  20
ENDBRANCH  15  19
ENDBRANCH  10  12
ENDBRANCH   4  10
TORSDOF 4
ENDMDL
MODEL 9
REMARK VINA RESULT:      -6.8      4.378      6.146
REMARK  4 active torsions:
REMARK  status: ('A' for Active; 'I' for Inactive)
REMARK    1  A    between atoms: C4_4  and  N1_5 
REMARK    2  A    between atoms: N1_5  and  C5_6 
REMARK    3  A    between atoms: C8_9  and  S1_10 
REMARK    4  A    between atoms: S1_10  and  C9_11 
ROOT
HETATM    1  C1  UNL     1      29.004   0.707  54.549  1.00  0.00     0.070 C 
HETATM    2  C2  UNL     1      27.577   0.387  54.293  1.00  0.00     0.032 A 
HETATM    3  C3  UNL     1      27.010   0.945  53.162  1.00  0.00     0.057 A 
HETATM    4  C4  UNL     1      25.676   0.712  52.822  1.00  0.00     0.057 A 
HETATM    5  C14 UNL     1      24.971  -0.113  53.695  1.00  0.00     0.088 A 
HETATM    6  C15 UNL     1      23.585  -0.428  53.456  1.00  0.00     0.103 C 
HETATM    7  N3  UNL     1      22.475  -0.687  53.248  1.00  0.00    -0.191 NA
HETATM    8  C16 UNL     1      25.524  -0.673  54.822  1.00  0.00     0.142 A 
HETATM    9  N4  UNL     1      26.815  -0.397  55.074  1.00  0.00    -0.264 NA
ENDROOT
BRANCH   4  10
HETATM   10  N1  UNL     1      25.060   1.270  51.669  1.00  0.00    -0.355 N 
HETATM   11  H5  UNL     1      25.582   0.812  50.895  1.00  0.00     0.166 HD
BRANCH  10  12
HETATM   12  C5  UNL     1      24.012   2.202  51.434  1.00  0.00     0.034 A 
HETATM   13  C6  UNL     1      23.782   3.167  52.389  1.00  0.00     0.031 A 
HETATM   14  C7  UNL     1      22.754   4.038  52.095  1.00  0.00     0.023 A 
HETATM   15  C8  UNL     1      21.982   3.996  50.954  1.00  0.00     0.029 A 
HETATM   16  C12 UNL     1      22.239   3.019  50.020  1.00  0.00     0.053 A 
HETATM   17 CL1  UNL     1      21.289   2.924  48.556  1.00  0.00    -0.083 Cl
HETATM   18  C13 UNL     1      23.274   2.112  50.274  1.00  0.00     0.054 A 
BRANCH  15  19
HETATM   19  S1  UNL     1      20.662   5.141  50.611  1.00  0.00    -0.062 SA
BRANCH  19  20
HETATM   20  C9  UNL     1      19.056   4.338  50.815  1.00  0.00     0.139 A 
HETATM   21  N2  UNL     1      18.531   3.662  51.813  1.00  0.00    -0.246 NA
HETATM   22  C10 UNL     1      17.289   3.213  51.587  1.00  0.00     0.126 A 
HETATM   23  C11 UNL     1      16.589   3.419  50.432  1.00  0.00     0.071 A 
HETATM   24  S2  UNL     1      17.756   4.388  49.417  1.00  0.00    -0.073 SA
ENDBRANCH  19  20
ENDBRANCH  15  19
ENDBRANCH  10  12
ENDBRANCH   4  10
TORSDOF 4
ENDMDL
