MODEL 1
REMARK VINA RESULT:      -9.2      0.000      0.000
REMARK  5 active torsions:
REMARK  status: ('A' for Active; 'I' for Inactive)
REMARK    1  A    between atoms: C4_6  and  N3_7 
REMARK    2  A    between atoms: N3_7  and  C5_8 
REMARK    3  A    between atoms: C12_16  and  N4_17 
REMARK    4  A    between atoms: N4_17  and  C13_18 
REMARK    5  A    between atoms: C14_19  and  O1_20 
ROOT
HETATM    1  N1  UNL     1      18.625  -0.894  53.264  1.00  0.00    -0.191 NA
HETATM    2  C1  UNL     1      19.779  -0.758  53.440  1.00  0.00     0.101 C 
HETATM    3  C2  UNL     1      21.198  -0.605  53.653  1.00  0.00     0.062 A 
HETATM    4  C3  UNL     1      21.794   0.149  52.717  1.00  0.00     0.141 A 
HETATM    5  N2  UNL     1      23.137   0.200  53.057  1.00  0.00    -0.246 NA
HETATM    6  C4  UNL     1      24.035   0.778  52.416  1.00  0.00     0.109 A 
HETATM    7  C11 UNL     1      25.324   0.589  53.130  1.00  0.00     0.135 A 
HETATM    8  C12 UNL     1      25.259  -0.239  54.340  1.00  0.00     0.016 A 
HETATM    9  C18 UNL     1      24.423  -0.942  55.130  1.00  0.00     0.025 A 
HETATM   10  C19 UNL     1      23.029  -1.374  55.345  1.00  0.00     0.003 A 
HETATM   11  C20 UNL     1      21.811  -1.261  54.810  1.00  0.00     0.024 A 
ENDROOT
BRANCH   6  12
HETATM   12  N3  UNL     1      24.160   1.543  51.232  1.00  0.00    -0.344 N 
HETATM   13  H2  UNL     1      24.303   1.129  50.285  1.00  0.00     0.167 HD
BRANCH  12  14
HETATM   14  C5  UNL     1      24.093   2.939  51.336  1.00  0.00     0.034 A 
HETATM   15  C6  UNL     1      23.260   3.456  52.336  1.00  0.00     0.029 A 
HETATM   16  C7  UNL     1      23.132   4.803  52.481  1.00  0.00     0.004 A 
HETATM   17  C8  UNL     1      23.838   5.632  51.624  1.00  0.00     0.019 A 
HETATM   18  C9  UNL     1      24.656   5.119  50.641  1.00  0.00     0.013 A 
HETATM   19 BR1  UNL     1      25.644   6.211  49.440  1.00  0.00    -0.051 Br
HETATM   20  C10 UNL     1      24.822   3.742  50.451  1.00  0.00     0.048 A 
ENDBRANCH  12  14
ENDBRANCH   6  12
BRANCH   8  21
HETATM   21  N4  UNL     1      26.643  -0.255  54.775  1.00  0.00    -0.360 N 
HETATM   22  H9  UNL     1      26.797   0.006  55.772  1.00  0.00     0.165 HD
BRANCH  21  23
HETATM   23  C13 UNL     1      27.877  -0.544  54.167  1.00  0.00     0.046 A 
HETATM   24  C14 UNL     1      28.319  -1.574  53.465  1.00  0.00     0.088 A 
HETATM   25  C15 UNL     1      29.696  -1.307  53.094  1.00  0.00     0.035 A 
HETATM   26  C16 UNL     1      30.089  -0.134  53.562  1.00  0.00    -0.018 A 
HETATM   27  C17 UNL     1      28.943   0.483  54.307  1.00  0.00     0.087 A 
BRANCH  24  28
HETATM   28  O1  UNL     1      27.803  -2.785  53.025  1.00  0.00    -0.359 OA
HETATM   29  H10 UNL     1      27.327  -2.874  52.142  1.00  0.00     0.217 HD
ENDBRANCH  24  28
ENDBRANCH  21  23
ENDBRANCH   8  21
TORSDOF 5
ENDMDL
MODEL 2
REMARK VINA RESULT:      -8.9      2.796      3.902
REMARK  5 active torsions:
REMARK  status: ('A' for Active; 'I' for Inactive)
REMARK    1  A    between atoms: C4_6  and  N3_7 
REMARK    2  A    between atoms: N3_7  and  C5_8 
REMARK    3  A    between atoms: C12_16  and  N4_17 
REMARK    4  A    between atoms: N4_17  and  C13_18 
REMARK    5  A    between atoms: C14_19  and  O1_20 
ROOT
HETATM    1  N1  UNL     1      20.181   2.718  48.610  1.00  0.00    -0.191 NA
HETATM    2  C1  UNL     1      21.124   2.585  49.298  1.00  0.00     0.101 C 
HETATM    3  C2  UNL     1      22.281   2.406  50.141  1.00  0.00     0.062 A 
HETATM    4  C3  UNL     1      23.422   2.816  49.566  1.00  0.00     0.141 A 
HETATM    5  N2  UNL     1      24.428   2.582  50.490  1.00  0.00    -0.246 NA
HETATM    6  C4  UNL     1      25.644   2.798  50.321  1.00  0.00     0.109 A 
HETATM    7  C11 UNL     1      26.370   2.412  51.559  1.00  0.00     0.135 A 
HETATM    8  C12 UNL     1      25.538   1.843  52.626  1.00  0.00     0.016 A 
HETATM    9  C18 UNL     1      24.273   1.518  52.959  1.00  0.00     0.025 A 
HETATM   10  C19 UNL     1      22.867   1.496  52.515  1.00  0.00     0.003 A 
HETATM   11  C20 UNL     1      22.100   1.821  51.471  1.00  0.00     0.024 A 
ENDROOT
BRANCH   6  12
HETATM   12  N3  UNL     1      26.496   3.296  49.306  1.00  0.00    -0.344 N 
HETATM   13  H2  UNL     1      27.039   2.689  48.654  1.00  0.00     0.167 HD
BRANCH  12  14
HETATM   14  C5  UNL     1      26.623   4.685  49.172  1.00  0.00     0.034 A 
HETATM   15  C6  UNL     1      27.767   5.152  48.513  1.00  0.00     0.029 A 
HETATM   16  C7  UNL     1      27.964   6.490  48.365  1.00  0.00     0.004 A 
HETATM   17  C8  UNL     1      27.015   7.361  48.877  1.00  0.00     0.019 A 
HETATM   18  C9  UNL     1      25.891   6.896  49.525  1.00  0.00     0.013 A 
HETATM   19 BR1  UNL     1      24.561   8.047  50.245  1.00  0.00    -0.051 Br
HETATM   20  C10 UNL     1      25.642   5.531  49.703  1.00  0.00     0.048 A 
ENDBRANCH  12  14
ENDBRANCH   6  12
BRANCH   8  21
HETATM   21  N4  UNL     1      26.518   1.550  53.654  1.00  0.00    -0.360 N 
HETATM   22  H9  UNL     1      26.280   1.901  54.607  1.00  0.00     0.165 HD
BRANCH  21  23
HETATM   23  C13 UNL     1      27.758   0.889  53.693  1.00  0.00     0.046 A 
HETATM   24  C14 UNL     1      28.974   1.269  54.047  1.00  0.00     0.088 A 
HETATM   25  C15 UNL     1      29.866   0.138  53.875  1.00  0.00     0.035 A 
HETATM   26  C16 UNL     1      29.207  -0.915  53.424  1.00  0.00    -0.018 A 
HETATM   27  C17 UNL     1      27.766  -0.534  53.260  1.00  0.00     0.087 A 
BRANCH  24  28
HETATM   28  O1  UNL     1      29.565   2.433  54.518  1.00  0.00    -0.359 OA
HETATM   29  H10 UNL     1      30.335   2.418  55.166  1.00  0.00     0.217 HD
ENDBRANCH  24  28
ENDBRANCH  21  23
ENDBRANCH   8  21
TORSDOF 5
ENDMDL
MODEL 3
REMARK VINA RESULT:      -8.8      2.031      2.552
REMARK  5 active torsions:
REMARK  status: ('A' for Active; 'I' for Inactive)
REMARK    1  A    between atoms: C4_6  and  N3_7 
REMARK    2  A    between atoms: N3_7  and  C5_8 
REMARK    3  A    between atoms: C12_16  and  N4_17 
REMARK    4  A    between atoms: N4_17  and  C13_18 
REMARK    5  A    between atoms: C14_19  and  O1_20 
ROOT
HETATM    1  N1  UNL     1      19.315   0.523  51.050  1.00  0.00    -0.191 NA
HETATM    2  C1  UNL     1      20.368   0.625  51.562  1.00  0.00     0.101 C 
HETATM    3  C2  UNL     1      21.667   0.743  52.179  1.00  0.00     0.062 A 
HETATM    4  C3  UNL     1      22.148   1.995  52.163  1.00  0.00     0.141 A 
HETATM    5  N2  UNL     1      23.385   1.944  52.785  1.00  0.00    -0.246 NA
HETATM    6  C4  UNL     1      24.169   2.900  52.940  1.00  0.00     0.109 A 
HETATM    7  C11 UNL     1      25.376   2.412  53.657  1.00  0.00     0.135 A 
HETATM    8  C12 UNL     1      25.393   0.976  53.956  1.00  0.00     0.016 A 
HETATM    9  C18 UNL     1      24.685  -0.166  53.841  1.00  0.00     0.025 A 
HETATM   10  C19 UNL     1      23.435  -0.777  53.351  1.00  0.00     0.003 A 
HETATM   11  C20 UNL     1      22.296  -0.459  52.730  1.00  0.00     0.024 A 
ENDROOT
BRANCH   6  12
HETATM   12  N3  UNL     1      24.223   4.281  52.632  1.00  0.00    -0.344 N 
HETATM   13  H2  UNL     1      24.408   5.026  53.338  1.00  0.00     0.167 HD
BRANCH  12  14
HETATM   14  C5  UNL     1      24.012   4.671  51.302  1.00  0.00     0.034 A 
HETATM   15  C6  UNL     1      24.925   4.194  50.355  1.00  0.00     0.029 A 
HETATM   16  C7  UNL     1      24.792   4.549  49.047  1.00  0.00     0.004 A 
HETATM   17  C8  UNL     1      23.743   5.382  48.691  1.00  0.00     0.019 A 
HETATM   18  C9  UNL     1      22.847   5.849  49.628  1.00  0.00     0.013 A 
HETATM   19 BR1  UNL     1      21.394   6.993  49.191  1.00  0.00    -0.051 Br
HETATM   20  C10 UNL     1      22.940   5.513  50.983  1.00  0.00     0.048 A 
ENDBRANCH  12  14
ENDBRANCH   6  12
BRANCH   8  21
HETATM   21  N4  UNL     1      26.677   0.815  54.612  1.00  0.00    -0.360 N 
HETATM   22  H9  UNL     1      26.678   1.001  55.638  1.00  0.00     0.165 HD
BRANCH  21  23
HETATM   23  C13 UNL     1      27.972   0.460  54.197  1.00  0.00     0.046 A 
HETATM   24  C14 UNL     1      29.126   1.106  54.186  1.00  0.00     0.088 A 
HETATM   25  C15 UNL     1      30.133   0.218  53.637  1.00  0.00     0.035 A 
HETATM   26  C16 UNL     1      29.604  -0.951  53.318  1.00  0.00    -0.018 A 
HETATM   27  C17 UNL     1      28.143  -0.913  53.652  1.00  0.00     0.087 A 
BRANCH  24  28
HETATM   28  O1  UNL     1      29.575   2.367  54.555  1.00  0.00    -0.359 OA
HETATM   29  H10 UNL     1      28.965   3.050  54.974  1.00  0.00     0.217 HD
ENDBRANCH  24  28
ENDBRANCH  21  23
ENDBRANCH   8  21
TORSDOF 5
ENDMDL
MODEL 4
REMARK VINA RESULT:      -8.7      3.014      6.098
REMARK  5 active torsions:
REMARK  status: ('A' for Active; 'I' for Inactive)
REMARK    1  A    between atoms: C4_6  and  N3_7 
REMARK    2  A    between atoms: N3_7  and  C5_8 
REMARK    3  A    between atoms: C12_16  and  N4_17 
REMARK    4  A    between atoms: N4_17  and  C13_18 
REMARK    5  A    between atoms: C14_19  and  O1_20 
ROOT
HETATM    1  N1  UNL     1      20.922  -1.633  54.588  1.00  0.00    -0.191 NA
HETATM    2  C1  UNL     1      21.460  -0.893  53.850  1.00  0.00     0.101 C 
HETATM    3  C2  UNL     1      22.108   0.025  52.946  1.00  0.00     0.062 A 
HETATM    4  C3  UNL     1      23.227   0.563  53.452  1.00  0.00     0.141 A 
HETATM    5  N2  UNL     1      23.726   1.411  52.476  1.00  0.00    -0.246 NA
HETATM    6  C4  UNL     1      24.742   2.127  52.574  1.00  0.00     0.109 A 
HETATM    7  C11 UNL     1      24.921   2.872  51.302  1.00  0.00     0.135 A 
HETATM    8  C12 UNL     1      23.884   2.649  50.288  1.00  0.00     0.016 A 
HETATM    9  C18 UNL     1      22.747   1.970  50.029  1.00  0.00     0.025 A 
HETATM   10  C19 UNL     1      21.764   1.003  50.551  1.00  0.00     0.003 A 
HETATM   11  C20 UNL     1      21.504   0.265  51.633  1.00  0.00     0.024 A 
ENDROOT
BRANCH   6  12
HETATM   12  N3  UNL     1      25.741   2.414  53.535  1.00  0.00    -0.344 N 
HETATM   13  H2  UNL     1      25.666   3.179  54.240  1.00  0.00     0.167 HD
BRANCH  12  14
HETATM   14  C5  UNL     1      26.901   1.627  53.537  1.00  0.00     0.034 A 
HETATM   15  C6  UNL     1      28.106   2.284  53.816  1.00  0.00     0.029 A 
HETATM   16  C7  UNL     1      29.274   1.585  53.816  1.00  0.00     0.004 A 
HETATM   17  C8  UNL     1      29.235   0.229  53.535  1.00  0.00     0.019 A 
HETATM   18  C9  UNL     1      28.046  -0.413  53.260  1.00  0.00     0.013 A 
HETATM   19 BR1  UNL     1      27.937  -2.270  52.869  1.00  0.00    -0.051 Br
HETATM   20  C10 UNL     1      26.819   0.260  53.249  1.00  0.00     0.048 A 
ENDBRANCH  12  14
ENDBRANCH   6  12
BRANCH   8  21
HETATM   21  N4  UNL     1      24.317   3.516  49.209  1.00  0.00    -0.360 N 
HETATM   22  H9  UNL     1      24.065   3.192  48.251  1.00  0.00     0.165 HD
BRANCH  21  23
HETATM   23  C13 UNL     1      25.022   4.730  49.125  1.00  0.00     0.046 A 
HETATM   24  C14 UNL     1      26.307   5.033  49.180  1.00  0.00     0.088 A 
HETATM   25  C15 UNL     1      26.436   6.470  49.032  1.00  0.00     0.035 A 
HETATM   26  C16 UNL     1      25.249   7.036  48.889  1.00  0.00    -0.018 A 
HETATM   27  C17 UNL     1      24.207   5.959  48.935  1.00  0.00     0.087 A 
BRANCH  24  28
HETATM   28  O1  UNL     1      27.498   4.337  49.337  1.00  0.00    -0.359 OA
HETATM   29  H10 UNL     1      27.530   3.419  49.748  1.00  0.00     0.217 HD
ENDBRANCH  24  28
ENDBRANCH  21  23
ENDBRANCH   8  21
TORSDOF 5
ENDMDL
MODEL 5
REMARK VINA RESULT:      -8.5      3.227      6.073
REMARK  5 active torsions:
REMARK  status: ('A' for Active; 'I' for Inactive)
REMARK    1  A    between atoms: C4_6  and  N3_7 
REMARK    2  A    between atoms: N3_7  and  C5_8 
REMARK    3  A    between atoms: C12_16  and  N4_17 
REMARK    4  A    between atoms: N4_17  and  C13_18 
REMARK    5  A    between atoms: C14_19  and  O1_20 
ROOT
HETATM    1  N1  UNL     1      23.620   8.070  48.135  1.00  0.00    -0.191 NA
HETATM    2  C1  UNL     1      24.012   7.091  48.654  1.00  0.00     0.101 C 
HETATM    3  C2  UNL     1      24.503   5.898  49.299  1.00  0.00     0.062 A 
HETATM    4  C3  UNL     1      23.626   5.365  50.163  1.00  0.00     0.141 A 
HETATM    5  N2  UNL     1      24.238   4.240  50.692  1.00  0.00    -0.246 NA
HETATM    6  C4  UNL     1      23.759   3.484  51.561  1.00  0.00     0.109 A 
HETATM    7  C11 UNL     1      24.738   2.402  51.838  1.00  0.00     0.135 A 
HETATM    8  C12 UNL     1      26.005   2.494  51.103  1.00  0.00     0.016 A 
HETATM    9  C18 UNL     1      26.681   3.223  50.192  1.00  0.00     0.025 A 
HETATM   10  C19 UNL     1      26.644   4.406  49.312  1.00  0.00     0.003 A 
HETATM   11  C20 UNL     1      25.845   5.416  48.962  1.00  0.00     0.024 A 
ENDROOT
BRANCH   6  12
HETATM   12  N3  UNL     1      22.576   3.377  52.330  1.00  0.00    -0.344 N 
HETATM   13  H2  UNL     1      22.249   4.109  52.996  1.00  0.00     0.167 HD
BRANCH  12  14
HETATM   14  C5  UNL     1      21.800   2.218  52.191  1.00  0.00     0.034 A 
HETATM   15  C6  UNL     1      20.947   2.161  51.083  1.00  0.00     0.029 A 
HETATM   16  C7  UNL     1      20.150   1.073  50.897  1.00  0.00     0.004 A 
HETATM   17  C8  UNL     1      20.209   0.043  51.822  1.00  0.00     0.019 A 
HETATM   18  C9  UNL     1      21.050   0.104  52.912  1.00  0.00     0.013 A 
HETATM   19 BR1  UNL     1      21.169  -1.281  54.208  1.00  0.00    -0.051 Br
HETATM   20  C10 UNL     1      21.889   1.199  53.147  1.00  0.00     0.048 A 
ENDBRANCH  12  14
ENDBRANCH   6  12
BRANCH   8  21
HETATM   21  N4  UNL     1      26.734   1.343  51.603  1.00  0.00    -0.360 N 
HETATM   22  H9  UNL     1      26.644   0.478  51.029  1.00  0.00     0.165 HD
BRANCH  21  23
HETATM   23  C13 UNL     1      27.561   1.090  52.711  1.00  0.00     0.046 A 
HETATM   24  C14 UNL     1      28.532   1.776  53.288  1.00  0.00     0.088 A 
HETATM   25  C15 UNL     1      29.026   1.000  54.410  1.00  0.00     0.035 A 
HETATM   26  C16 UNL     1      28.367  -0.142  54.516  1.00  0.00    -0.018 A 
HETATM   27  C17 UNL     1      27.345  -0.199  53.420  1.00  0.00     0.087 A 
BRANCH  24  28
HETATM   28  O1  UNL     1      29.157   2.999  53.084  1.00  0.00    -0.359 OA
HETATM   29  H10 UNL     1      28.936   3.587  52.297  1.00  0.00     0.217 HD
ENDBRANCH  24  28
ENDBRANCH  21  23
ENDBRANCH   8  21
TORSDOF 5
ENDMDL
MODEL 6
REMARK VINA RESULT:      -8.4      3.748      6.687
REMARK  5 active torsions:
REMARK  status: ('A' for Active; 'I' for Inactive)
REMARK    1  A    between atoms: C4_6  and  N3_7 
REMARK    2  A    between atoms: N3_7  and  C5_8 
REMARK    3  A    between atoms: C12_16  and  N4_17 
REMARK    4  A    between atoms: N4_17  and  C13_18 
REMARK    5  A    between atoms: C14_19  and  O1_20 
ROOT
HETATM    1  N1  UNL     1      20.408   0.831  53.044  1.00  0.00    -0.191 NA
HETATM    2  C1  UNL     1      21.369   1.247  52.509  1.00  0.00     0.101 C 
HETATM    3  C2  UNL     1      22.542   1.771  51.854  1.00  0.00     0.062 A 
HETATM    4  C3  UNL     1      23.625   1.791  52.645  1.00  0.00     0.141 A 
HETATM    5  N2  UNL     1      24.655   2.314  51.879  1.00  0.00    -0.246 NA
HETATM    6  C4  UNL     1      25.821   2.526  52.265  1.00  0.00     0.109 A 
HETATM    7  C11 UNL     1      26.601   3.086  51.130  1.00  0.00     0.135 A 
HETATM    8  C12 UNL     1      25.844   3.301  49.891  1.00  0.00     0.016 A 
HETATM    9  C18 UNL     1      24.627   3.169  49.325  1.00  0.00     0.025 A 
HETATM   10  C19 UNL     1      23.233   2.734  49.529  1.00  0.00     0.003 A 
HETATM   11  C20 UNL     1      22.433   2.210  50.461  1.00  0.00     0.024 A 
ENDROOT
BRANCH   6  12
HETATM   12  N3  UNL     1      26.584   2.383  53.449  1.00  0.00    -0.344 N 
HETATM   13  H2  UNL     1      26.482   3.001  54.283  1.00  0.00     0.167 HD
BRANCH  12  14
HETATM   14  C5  UNL     1      27.534   1.354  53.503  1.00  0.00     0.034 A 
HETATM   15  C6  UNL     1      28.823   1.710  53.916  1.00  0.00     0.029 A 
HETATM   16  C7  UNL     1      29.801   0.765  53.973  1.00  0.00     0.004 A 
HETATM   17  C8  UNL     1      29.487  -0.537  53.615  1.00  0.00     0.019 A 
HETATM   18  C9  UNL     1      28.215  -0.882  53.209  1.00  0.00     0.013 A 
HETATM   19 BR1  UNL     1      27.732  -2.650  52.708  1.00  0.00    -0.051 Br
HETATM   20  C10 UNL     1      27.176   0.052  53.134  1.00  0.00     0.048 A 
ENDBRANCH  12  14
ENDBRANCH   6  12
BRANCH   8  21
HETATM   21  N4  UNL     1      26.851   3.867  49.013  1.00  0.00    -0.360 N 
HETATM   22  H9  UNL     1      27.431   3.170  48.497  1.00  0.00     0.165 HD
BRANCH  21  23
HETATM   23  C13 UNL     1      27.258   5.167  48.668  1.00  0.00     0.046 A 
HETATM   24  C14 UNL     1      26.625   6.326  48.607  1.00  0.00     0.088 A 
HETATM   25  C15 UNL     1      27.575   7.336  48.184  1.00  0.00     0.035 A 
HETATM   26  C16 UNL     1      28.770   6.804  47.989  1.00  0.00    -0.018 A 
HETATM   27  C17 UNL     1      28.685   5.336  48.285  1.00  0.00     0.087 A 
BRANCH  24  28
HETATM   28  O1  UNL     1      25.333   6.778  48.840  1.00  0.00    -0.359 OA
HETATM   29  H10 UNL     1      25.148   7.653  49.301  1.00  0.00     0.217 HD
ENDBRANCH  24  28
ENDBRANCH  21  23
ENDBRANCH   8  21
TORSDOF 5
ENDMDL
MODEL 7
REMARK VINA RESULT:      -8.3      2.493      6.187
REMARK  5 active torsions:
REMARK  status: ('A' for Active; 'I' for Inactive)
REMARK    1  A    between atoms: C4_6  and  N3_7 
REMARK    2  A    between atoms: N3_7  and  C5_8 
REMARK    3  A    between atoms: C12_16  and  N4_17 
REMARK    4  A    between atoms: N4_17  and  C13_18 
REMARK    5  A    between atoms: C14_19  and  O1_20 
ROOT
HETATM    1  N1  UNL     1      28.702   0.737  54.976  1.00  0.00    -0.191 NA
HETATM    2  C1  UNL     1      27.625   0.809  54.510  1.00  0.00     0.101 C 
HETATM    3  C2  UNL     1      26.298   0.894  53.952  1.00  0.00     0.062 A 
HETATM    4  C3  UNL     1      25.951   2.141  53.601  1.00  0.00     0.141 A 
HETATM    5  N2  UNL     1      24.666   2.057  53.088  1.00  0.00    -0.246 NA
HETATM    6  C4  UNL     1      23.975   3.011  52.680  1.00  0.00     0.109 A 
HETATM    7  C11 UNL     1      22.668   2.482  52.212  1.00  0.00     0.135 A 
HETATM    8  C12 UNL     1      22.477   1.036  52.377  1.00  0.00     0.016 A 
HETATM    9  C18 UNL     1      23.072  -0.095  52.808  1.00  0.00     0.025 A 
HETATM   10  C19 UNL     1      24.289  -0.678  53.401  1.00  0.00     0.003 A 
HETATM   11  C20 UNL     1      25.503  -0.331  53.836  1.00  0.00     0.024 A 
ENDROOT
BRANCH   6  12
HETATM   12  N3  UNL     1      24.090   4.415  52.544  1.00  0.00    -0.344 N 
HETATM   13  H2  UNL     1      24.148   5.073  53.351  1.00  0.00     0.167 HD
BRANCH  12  14
HETATM   14  C5  UNL     1      24.122   4.953  51.250  1.00  0.00     0.034 A 
HETATM   15  C6  UNL     1      25.098   4.447  50.383  1.00  0.00     0.029 A 
HETATM   16  C7  UNL     1      25.200   4.939  49.118  1.00  0.00     0.004 A 
HETATM   17  C8  UNL     1      24.323   5.937  48.722  1.00  0.00     0.019 A 
HETATM   18  C9  UNL     1      23.365   6.432  49.580  1.00  0.00     0.013 A 
HETATM   19 BR1  UNL     1      22.140   7.799  49.088  1.00  0.00    -0.051 Br
HETATM   20  C10 UNL     1      23.219   5.960  50.889  1.00  0.00     0.048 A 
ENDBRANCH  12  14
ENDBRANCH   6  12
BRANCH   8  21
HETATM   21  N4  UNL     1      21.132   0.844  51.868  1.00  0.00    -0.360 N 
HETATM   22  H9  UNL     1      20.923   1.335  50.972  1.00  0.00     0.165 HD
BRANCH  21  23
HETATM   23  C13 UNL     1      19.994   0.139  52.295  1.00  0.00     0.046 A 
HETATM   24  C14 UNL     1      19.725  -0.570  53.379  1.00  0.00     0.088 A 
HETATM   25  C15 UNL     1      18.367  -1.067  53.264  1.00  0.00     0.035 A 
HETATM   26  C16 UNL     1      17.815  -0.668  52.130  1.00  0.00    -0.018 A 
HETATM   27  C17 UNL     1      18.819   0.158  51.384  1.00  0.00     0.087 A 
BRANCH  24  28
HETATM   28  O1  UNL     1      20.400  -0.931  54.536  1.00  0.00    -0.359 OA
HETATM   29  H10 UNL     1      21.336  -1.301  54.516  1.00  0.00     0.217 HD
ENDBRANCH  24  28
ENDBRANCH  21  23
ENDBRANCH   8  21
TORSDOF 5
ENDMDL
MODEL 8
REMARK VINA RESULT:      -8.3      3.023      6.540
REMARK  5 active torsions:
REMARK  status: ('A' for Active; 'I' for Inactive)
REMARK    1  A    between atoms: C4_6  and  N3_7 
REMARK    2  A    between atoms: N3_7  and  C5_8 
REMARK    3  A    between atoms: C12_16  and  N4_17 
REMARK    4  A    between atoms: N4_17  and  C13_18 
REMARK    5  A    between atoms: C14_19  and  O1_20 
ROOT
HETATM    1  N1  UNL     1      28.654  -3.124  53.223  1.00  0.00    -0.191 NA
HETATM    2  C1  UNL     1      27.995  -2.153  53.160  1.00  0.00     0.101 C 
HETATM    3  C2  UNL     1      27.188  -0.961  53.067  1.00  0.00     0.062 A 
HETATM    4  C3  UNL     1      25.882  -1.190  53.274  1.00  0.00     0.141 A 
HETATM    5  N2  UNL     1      25.249   0.037  53.154  1.00  0.00    -0.246 NA
HETATM    6  C4  UNL     1      24.023   0.243  53.245  1.00  0.00     0.109 A 
HETATM    7  C11 UNL     1      23.771   1.695  53.058  1.00  0.00     0.135 A 
HETATM    8  C12 UNL     1      24.958   2.509  52.768  1.00  0.00     0.016 A 
HETATM    9  C18 UNL     1      26.296   2.457  52.605  1.00  0.00     0.025 A 
HETATM   10  C19 UNL     1      27.487   1.588  52.598  1.00  0.00     0.003 A 
HETATM   11  C20 UNL     1      27.845   0.313  52.767  1.00  0.00     0.024 A 
ENDROOT
BRANCH   6  12
HETATM   12  N3  UNL     1      22.842  -0.503  53.473  1.00  0.00    -0.344 N 
HETATM   13  H2  UNL     1      22.771  -1.281  54.165  1.00  0.00     0.167 HD
BRANCH  12  14
HETATM   14  C5  UNL     1      21.702  -0.182  52.723  1.00  0.00     0.034 A 
HETATM   15  C6  UNL     1      20.463  -0.451  53.317  1.00  0.00     0.029 A 
HETATM   16  C7  UNL     1      19.315  -0.183  52.637  1.00  0.00     0.004 A 
HETATM   17  C8  UNL     1      19.408   0.354  51.363  1.00  0.00     0.019 A 
HETATM   18  C9  UNL     1      20.631   0.616  50.783  1.00  0.00     0.013 A 
HETATM   19 BR1  UNL     1      20.815   1.351  49.040  1.00  0.00    -0.051 Br
HETATM   20  C10 UNL     1      21.840   0.359  51.440  1.00  0.00     0.048 A 
ENDBRANCH  12  14
ENDBRANCH   6  12
BRANCH   8  21
HETATM   21  N4  UNL     1      24.390   3.834  52.613  1.00  0.00    -0.360 N 
HETATM   22  H9  UNL     1      24.192   4.339  53.503  1.00  0.00     0.165 HD
BRANCH  21  23
HETATM   23  C13 UNL     1      24.024   4.642  51.522  1.00  0.00     0.046 A 
HETATM   24  C14 UNL     1      24.029   5.949  51.324  1.00  0.00     0.088 A 
HETATM   25  C15 UNL     1      23.534   6.203  49.985  1.00  0.00     0.035 A 
HETATM   26  C16 UNL     1      23.231   5.070  49.374  1.00  0.00    -0.018 A 
HETATM   27  C17 UNL     1      23.520   3.937  50.313  1.00  0.00     0.087 A 
BRANCH  24  28
HETATM   28  O1  UNL     1      24.377   7.074  52.058  1.00  0.00    -0.359 OA
HETATM   29  H10 UNL     1      24.060   7.996  51.807  1.00  0.00     0.217 HD
ENDBRANCH  24  28
ENDBRANCH  21  23
ENDBRANCH   8  21
TORSDOF 5
ENDMDL
MODEL 9
REMARK VINA RESULT:      -8.2      2.547      6.375
REMARK  5 active torsions:
REMARK  status: ('A' for Active; 'I' for Inactive)
REMARK    1  A    between atoms: C4_6  and  N3_7 
REMARK    2  A    between atoms: N3_7  and  C5_8 
REMARK    3  A    between atoms: C12_16  and  N4_17 
REMARK    4  A    between atoms: N4_17  and  C13_18 
REMARK    5  A    between atoms: C14_19  and  O1_20 
ROOT
HETATM    1  N1  UNL     1      27.798  -0.593  53.984  1.00  0.00    -0.191 NA
HETATM    2  C1  UNL     1      26.624  -0.551  53.944  1.00  0.00     0.101 C 
HETATM    3  C2  UNL     1      25.184  -0.489  53.907  1.00  0.00     0.062 A 
HETATM    4  C3  UNL     1      24.710   0.158  52.832  1.00  0.00     0.141 A 
HETATM    5  N2  UNL     1      23.328   0.132  52.940  1.00  0.00    -0.246 NA
HETATM    6  C4  UNL     1      22.520   0.659  52.151  1.00  0.00     0.109 A 
HETATM    7  C11 UNL     1      21.142   0.388  52.635  1.00  0.00     0.135 A 
HETATM    8  C12 UNL     1      21.051  -0.354  53.898  1.00  0.00     0.016 A 
HETATM    9  C18 UNL     1      21.782  -0.948  54.863  1.00  0.00     0.025 A 
HETATM   10  C19 UNL     1      23.142  -1.267  55.335  1.00  0.00     0.003 A 
HETATM   11  C20 UNL     1      24.424  -1.108  54.996  1.00  0.00     0.024 A 
ENDROOT
BRANCH   6  12
HETATM   12  N3  UNL     1      22.554   1.418  50.958  1.00  0.00    -0.344 N 
HETATM   13  H2  UNL     1      22.216   1.067  50.036  1.00  0.00     0.167 HD
BRANCH  12  14
HETATM   14  C5  UNL     1      23.075   2.718  51.016  1.00  0.00     0.034 A 
HETATM   15  C6  UNL     1      22.417   3.623  51.857  1.00  0.00     0.029 A 
HETATM   16  C7  UNL     1      22.858   4.908  51.947  1.00  0.00     0.004 A 
HETATM   17  C8  UNL     1      23.958   5.285  51.193  1.00  0.00     0.019 A 
HETATM   18  C9  UNL     1      24.602   4.391  50.365  1.00  0.00     0.013 A 
HETATM   19 BR1  UNL     1      26.113   4.857  49.311  1.00  0.00    -0.051 Br
HETATM   20  C10 UNL     1      24.189   3.060  50.239  1.00  0.00     0.048 A 
ENDBRANCH  12  14
ENDBRANCH   6  12
BRANCH   8  21
HETATM   21  N4  UNL     1      19.617  -0.428  54.107  1.00  0.00    -0.360 N 
HETATM   22  H9  UNL     1      19.272   0.031  54.978  1.00  0.00     0.165 HD
BRANCH  21  23
HETATM   23  C13 UNL     1      18.533  -0.984  53.408  1.00  0.00     0.046 A 
HETATM   24  C14 UNL     1      17.767  -0.539  52.426  1.00  0.00     0.088 A 
HETATM   25  C15 UNL     1      16.797  -1.570  52.109  1.00  0.00     0.035 A 
HETATM   26  C16 UNL     1      16.968  -2.628  52.884  1.00  0.00    -0.018 A 
HETATM   27  C17 UNL     1      18.116  -2.355  53.808  1.00  0.00     0.087 A 
BRANCH  24  28
HETATM   28  O1  UNL     1      17.677   0.621  51.670  1.00  0.00    -0.359 OA
HETATM   29  H10 UNL     1      16.838   0.873  51.173  1.00  0.00     0.217 HD
ENDBRANCH  24  28
ENDBRANCH  21  23
ENDBRANCH   8  21
TORSDOF 5
ENDMDL
