MODEL 1
REMARK VINA RESULT:      -8.2      0.000      0.000
REMARK  6 active torsions:
REMARK  status: ('A' for Active; 'I' for Inactive)
REMARK    1  A    between atoms: N1_2  and  C2_3 
REMARK    2  A    between atoms: C3_5  and  N3_6 
REMARK    3  A    between atoms: N4_7  and  C4_8 
REMARK    4  A    between atoms: C4_8  and  C5_9 
REMARK    5  A    between atoms: C8_12  and  O1_13 
REMARK    6  A    between atoms: C11_17  and  N6_18 
ROOT
HETATM    1  C2  UNL     1      23.619   2.803  51.144  1.00  0.00     0.753 A 
HETATM    2  N2  UNL     1      24.666   3.117  51.928  1.00  0.00     0.134 NA
HETATM    3  C3  UNL     1      24.795   2.517  53.101  1.00  0.00     0.798 A 
HETATM    4  N5  UNL     1      23.877   1.623  53.456  1.00  0.00     0.135 NA
HETATM    5  C11 UNL     1      22.807   1.262  52.725  1.00  0.00     0.760 A 
HETATM    6  N7  UNL     1      22.720   1.900  51.542  1.00  0.00     0.131 NA
ENDROOT
BRANCH   3   7
HETATM    7  N3  UNL     1      25.814   2.687  54.089  1.00  0.00     0.042 NA
HETATM    8  N4  UNL     1      26.972   2.274  53.776  1.00  0.00    -0.172 NA
BRANCH   8   9
HETATM    9  C4  UNL     1      27.148   1.676  52.467  1.00  0.00     0.212 C 
BRANCH   9  10
HETATM   10  C5  UNL     1      27.647   0.280  52.733  1.00  0.00    -0.037 A 
HETATM   11  C6  UNL     1      28.872  -0.042  53.283  1.00  0.00     0.012 A 
HETATM   12  C7  UNL     1      29.193  -1.373  53.469  1.00  0.00     0.037 A 
HETATM   13  C8  UNL     1      28.322  -2.393  53.121  1.00  0.00     0.065 A 
HETATM   14  C9  UNL     1      27.112  -2.031  52.576  1.00  0.00     0.037 A 
HETATM   15  C10 UNL     1      26.738  -0.717  52.367  1.00  0.00     0.012 A 
BRANCH  13  16
HETATM   16  O1  UNL     1      28.672  -3.720  53.320  1.00  0.00    -0.361 OA
HETATM   17  H9  UNL     1      28.192  -4.411  52.737  1.00  0.00     0.217 HD
ENDBRANCH  13  16
ENDBRANCH   9  10
ENDBRANCH   8   9
ENDBRANCH   3   7
BRANCH   1  18
HETATM   18  N1  UNL     1      23.486   3.453  49.885  1.00  0.00    -0.226 N 
HETATM   19  C1  UNL     1      24.615   4.170  49.328  1.00  0.00     0.165 C 
HETATM   20  H4  UNL     1      22.599   3.425  49.352  1.00  0.00     0.177 HD
ENDBRANCH   1  18
BRANCH   5  21
HETATM   21  N6  UNL     1      21.855   0.295  53.162  1.00  0.00    -0.185 N 
HETATM   22  C12 UNL     1      22.354  -0.784  53.945  1.00  0.00     0.109 A 
HETATM   23  C13 UNL     1      21.476  -1.683  54.353  1.00  0.00     0.018 A 
HETATM   24  C14 UNL     1      20.051  -1.627  54.049  1.00  0.00    -0.001 A 
HETATM   25  C15 UNL     1      19.672  -0.605  53.326  1.00  0.00    -0.006 A 
HETATM   26  C16 UNL     1      20.475   0.511  52.764  1.00  0.00     0.174 A 
ENDBRANCH   5  21
TORSDOF 6
ENDMDL
MODEL 2
REMARK VINA RESULT:      -8.1      1.562      1.804
REMARK  6 active torsions:
REMARK  status: ('A' for Active; 'I' for Inactive)
REMARK    1  A    between atoms: N1_2  and  C2_3 
REMARK    2  A    between atoms: C3_5  and  N3_6 
REMARK    3  A    between atoms: N4_7  and  C4_8 
REMARK    4  A    between atoms: C4_8  and  C5_9 
REMARK    5  A    between atoms: C8_12  and  O1_13 
REMARK    6  A    between atoms: C11_17  and  N6_18 
ROOT
HETATM    1  C2  UNL     1      23.275   4.519  51.945  1.00  0.00     0.753 A 
HETATM    2  N2  UNL     1      24.378   4.329  51.199  1.00  0.00     0.134 NA
HETATM    3  C3  UNL     1      24.836   3.099  51.028  1.00  0.00     0.798 A 
HETATM    4  N5  UNL     1      24.182   2.096  51.604  1.00  0.00     0.135 NA
HETATM    5  C11 UNL     1      23.076   2.212  52.361  1.00  0.00     0.760 A 
HETATM    6  N7  UNL     1      22.649   3.481  52.506  1.00  0.00     0.131 NA
ENDROOT
BRANCH   3   7
HETATM    7  N3  UNL     1      25.977   2.662  50.284  1.00  0.00     0.042 NA
HETATM    8  N4  UNL     1      26.883   2.069  50.945  1.00  0.00    -0.172 NA
BRANCH   8   9
HETATM    9  C4  UNL     1      26.679   1.895  52.371  1.00  0.00     0.212 C 
BRANCH   9  10
HETATM   10  C5  UNL     1      27.305   0.565  52.702  1.00  0.00    -0.037 A 
HETATM   11  C6  UNL     1      28.492   0.386  53.383  1.00  0.00     0.012 A 
HETATM   12  C7  UNL     1      28.943  -0.899  53.614  1.00  0.00     0.037 A 
HETATM   13  C8  UNL     1      28.239  -2.012  53.184  1.00  0.00     0.065 A 
HETATM   14  C9  UNL     1      27.061  -1.791  52.509  1.00  0.00     0.037 A 
HETATM   15  C10 UNL     1      26.562  -0.529  52.250  1.00  0.00     0.012 A 
BRANCH  13  16
HETATM   16  O1  UNL     1      28.716  -3.290  53.431  1.00  0.00    -0.361 OA
HETATM   17  H9  UNL     1      28.048  -4.057  53.320  1.00  0.00     0.217 HD
ENDBRANCH  13  16
ENDBRANCH   9  10
ENDBRANCH   8   9
ENDBRANCH   3   7
BRANCH   1  18
HETATM   18  N1  UNL     1      22.788   5.843  52.125  1.00  0.00    -0.226 N 
HETATM   19  C1  UNL     1      21.890   6.415  51.143  1.00  0.00     0.165 C 
HETATM   20  H4  UNL     1      23.060   6.413  52.946  1.00  0.00     0.177 HD
ENDBRANCH   1  18
BRANCH   5  21
HETATM   21  N6  UNL     1      22.417   1.095  52.954  1.00  0.00    -0.185 N 
HETATM   22  C12 UNL     1      23.244   0.017  53.377  1.00  0.00     0.109 A 
HETATM   23  C13 UNL     1      22.640  -1.021  53.928  1.00  0.00     0.018 A 
HETATM   24  C14 UNL     1      21.198  -1.115  54.121  1.00  0.00    -0.001 A 
HETATM   25  C15 UNL     1      20.508  -0.084  53.706  1.00  0.00    -0.006 A 
HETATM   26  C16 UNL     1      20.971   1.173  53.066  1.00  0.00     0.174 A 
ENDBRANCH   5  21
TORSDOF 6
ENDMDL
MODEL 3
REMARK VINA RESULT:      -7.9      2.838      6.446
REMARK  6 active torsions:
REMARK  status: ('A' for Active; 'I' for Inactive)
REMARK    1  A    between atoms: N1_2  and  C2_3 
REMARK    2  A    between atoms: C3_5  and  N3_6 
REMARK    3  A    between atoms: N4_7  and  C4_8 
REMARK    4  A    between atoms: C4_8  and  C5_9 
REMARK    5  A    between atoms: C8_12  and  O1_13 
REMARK    6  A    between atoms: C11_17  and  N6_18 
ROOT
HETATM    1  C2  UNL     1      23.471   0.105  53.050  1.00  0.00     0.753 A 
HETATM    2  N2  UNL     1      23.101   1.397  53.004  1.00  0.00     0.134 NA
HETATM    3  C3  UNL     1      24.031   2.336  53.078  1.00  0.00     0.798 A 
HETATM    4  N5  UNL     1      25.300   1.959  53.195  1.00  0.00     0.135 NA
HETATM    5  C11 UNL     1      25.741   0.689  53.248  1.00  0.00     0.760 A 
HETATM    6  N7  UNL     1      24.758  -0.229  53.170  1.00  0.00     0.131 NA
ENDROOT
BRANCH   3   7
HETATM    7  N3  UNL     1      23.876   3.757  53.048  1.00  0.00     0.042 NA
HETATM    8  N4  UNL     1      23.971   4.308  51.909  1.00  0.00    -0.172 NA
BRANCH   8   9
HETATM    9  C4  UNL     1      24.225   3.456  50.763  1.00  0.00     0.212 C 
BRANCH   9  10
HETATM   10  C5  UNL     1      25.319   4.148  49.991  1.00  0.00    -0.037 A 
HETATM   11  C6  UNL     1      26.533   3.588  49.647  1.00  0.00     0.012 A 
HETATM   12  C7  UNL     1      27.441   4.348  48.934  1.00  0.00     0.037 A 
HETATM   13  C8  UNL     1      27.168   5.652  48.554  1.00  0.00     0.065 A 
HETATM   14  C9  UNL     1      25.948   6.173  48.916  1.00  0.00     0.037 A 
HETATM   15  C10 UNL     1      25.002   5.460  49.629  1.00  0.00     0.012 A 
BRANCH  13  16
HETATM   16  O1  UNL     1      28.099   6.390  47.838  1.00  0.00    -0.361 OA
HETATM   17  H9  UNL     1      29.007   5.946  47.676  1.00  0.00     0.217 HD
ENDBRANCH  13  16
ENDBRANCH   9  10
ENDBRANCH   8   9
ENDBRANCH   3   7
BRANCH   1  18
HETATM   18  N1  UNL     1      22.466  -0.900  52.970  1.00  0.00    -0.226 N 
HETATM   19  C1  UNL     1      21.855  -1.398  54.186  1.00  0.00     0.165 C 
HETATM   20  H4  UNL     1      22.157  -1.286  52.060  1.00  0.00     0.177 HD
ENDBRANCH   1  18
BRANCH   5  21
HETATM   21  N6  UNL     1      27.119   0.347  53.375  1.00  0.00    -0.185 N 
HETATM   22  C12 UNL     1      27.472  -1.001  53.084  1.00  0.00     0.109 A 
HETATM   23  C13 UNL     1      28.748  -1.324  53.200  1.00  0.00     0.018 A 
HETATM   24  C14 UNL     1      29.791  -0.389  53.603  1.00  0.00    -0.001 A 
HETATM   25  C15 UNL     1      29.386   0.829  53.853  1.00  0.00    -0.006 A 
HETATM   26  C16 UNL     1      28.020   1.408  53.789  1.00  0.00     0.174 A 
ENDBRANCH   5  21
TORSDOF 6
ENDMDL
MODEL 4
REMARK VINA RESULT:      -7.8      2.283      5.612
REMARK  6 active torsions:
REMARK  status: ('A' for Active; 'I' for Inactive)
REMARK    1  A    between atoms: N1_2  and  C2_3 
REMARK    2  A    between atoms: C3_5  and  N3_6 
REMARK    3  A    between atoms: N4_7  and  C4_8 
REMARK    4  A    between atoms: C4_8  and  C5_9 
REMARK    5  A    between atoms: C8_12  and  O1_13 
REMARK    6  A    between atoms: C11_17  and  N6_18 
ROOT
HETATM    1  C2  UNL     1      26.276   3.939  50.023  1.00  0.00     0.753 A 
HETATM    2  N2  UNL     1      25.103   4.382  50.512  1.00  0.00     0.134 NA
HETATM    3  C3  UNL     1      24.631   3.854  51.629  1.00  0.00     0.798 A 
HETATM    4  N5  UNL     1      25.341   2.902  52.227  1.00  0.00     0.135 NA
HETATM    5  C11 UNL     1      26.517   2.412  51.796  1.00  0.00     0.760 A 
HETATM    6  N7  UNL     1      26.955   2.979  50.656  1.00  0.00     0.131 NA
ENDROOT
BRANCH   3   7
HETATM    7  N3  UNL     1      23.422   4.163  52.327  1.00  0.00     0.042 NA
HETATM    8  N4  UNL     1      22.510   3.282  52.287  1.00  0.00    -0.172 NA
BRANCH   8   9
HETATM    9  C4  UNL     1      22.778   2.063  51.547  1.00  0.00     0.212 C 
BRANCH   9  10
HETATM   10  C5  UNL     1      22.371   0.943  52.468  1.00  0.00    -0.037 A 
HETATM   11  C6  UNL     1      23.234   0.059  53.084  1.00  0.00     0.012 A 
HETATM   12  C7  UNL     1      22.713  -0.922  53.906  1.00  0.00     0.037 A 
HETATM   13  C8  UNL     1      21.352  -1.043  54.132  1.00  0.00     0.065 A 
HETATM   14  C9  UNL     1      20.525  -0.143  53.500  1.00  0.00     0.037 A 
HETATM   15  C10 UNL     1      20.990   0.857  52.667  1.00  0.00     0.012 A 
BRANCH  13  16
HETATM   16  O1  UNL     1      20.858  -2.037  54.962  1.00  0.00    -0.361 OA
HETATM   17  H9  UNL     1      20.954  -3.000  54.629  1.00  0.00     0.217 HD
ENDBRANCH  13  16
ENDBRANCH   9  10
ENDBRANCH   8   9
ENDBRANCH   3   7
BRANCH   1  18
HETATM   18  N1  UNL     1      26.778   4.511  48.820  1.00  0.00    -0.226 N 
HETATM   19  C1  UNL     1      26.843   5.952  48.686  1.00  0.00     0.165 C 
HETATM   20  H4  UNL     1      27.100   3.920  48.033  1.00  0.00     0.177 HD
ENDBRANCH   1  18
BRANCH   5  21
HETATM   21  N6  UNL     1      27.233   1.387  52.482  1.00  0.00    -0.185 N 
HETATM   22  C12 UNL     1      26.797   0.050  52.266  1.00  0.00     0.109 A 
HETATM   23  C13 UNL     1      27.456  -0.904  52.899  1.00  0.00     0.018 A 
HETATM   24  C14 UNL     1      28.586  -0.661  53.789  1.00  0.00    -0.001 A 
HETATM   25  C15 UNL     1      28.925   0.593  53.934  1.00  0.00    -0.006 A 
HETATM   26  C16 UNL     1      28.333   1.814  53.329  1.00  0.00     0.174 A 
ENDBRANCH   5  21
TORSDOF 6
ENDMDL
MODEL 5
REMARK VINA RESULT:      -7.6      2.756      5.506
REMARK  6 active torsions:
REMARK  status: ('A' for Active; 'I' for Inactive)
REMARK    1  A    between atoms: N1_2  and  C2_3 
REMARK    2  A    between atoms: C3_5  and  N3_6 
REMARK    3  A    between atoms: N4_7  and  C4_8 
REMARK    4  A    between atoms: C4_8  and  C5_9 
REMARK    5  A    between atoms: C8_12  and  O1_13 
REMARK    6  A    between atoms: C11_17  and  N6_18 
ROOT
HETATM    1  C2  UNL     1      23.057   2.917  49.908  1.00  0.00     0.753 A 
HETATM    2  N2  UNL     1      23.260   2.489  51.167  1.00  0.00     0.134 NA
HETATM    3  C3  UNL     1      24.343   2.887  51.816  1.00  0.00     0.798 A 
HETATM    4  N5  UNL     1      25.190   3.699  51.192  1.00  0.00     0.135 NA
HETATM    5  C11 UNL     1      25.051   4.165  49.937  1.00  0.00     0.760 A 
HETATM    6  N7  UNL     1      23.937   3.732  49.319  1.00  0.00     0.131 NA
ENDROOT
BRANCH   3   7
HETATM    7  N3  UNL     1      24.761   2.565  53.145  1.00  0.00     0.042 NA
HETATM    8  N4  UNL     1      25.685   1.703  53.249  1.00  0.00    -0.172 NA
BRANCH   8   9
HETATM    9  C4  UNL     1      26.220   1.133  52.027  1.00  0.00     0.212 C 
BRANCH   9  10
HETATM   10  C5  UNL     1      27.056  -0.040  52.470  1.00  0.00    -0.037 A 
HETATM   11  C6  UNL     1      28.267   0.043  53.127  1.00  0.00     0.012 A 
HETATM   12  C7  UNL     1      28.922  -1.124  53.473  1.00  0.00     0.037 A 
HETATM   13  C8  UNL     1      28.399  -2.373  53.180  1.00  0.00     0.065 A 
HETATM   14  C9  UNL     1      27.191  -2.413  52.524  1.00  0.00     0.037 A 
HETATM   15  C10 UNL     1      26.492  -1.279  52.155  1.00  0.00     0.012 A 
BRANCH  13  16
HETATM   16  O1  UNL     1      29.079  -3.527  53.539  1.00  0.00    -0.361 OA
HETATM   17  H9  UNL     1      28.655  -4.414  53.255  1.00  0.00     0.217 HD
ENDBRANCH  13  16
ENDBRANCH   9  10
ENDBRANCH   8   9
ENDBRANCH   3   7
BRANCH   1  18
HETATM   18  N1  UNL     1      21.892   2.486  49.215  1.00  0.00    -0.226 N 
HETATM   19  C1  UNL     1      22.028   1.696  48.008  1.00  0.00     0.165 C 
HETATM   20  H4  UNL     1      20.942   2.722  49.554  1.00  0.00     0.177 HD
ENDBRANCH   1  18
BRANCH   5  21
HETATM   21  N6  UNL     1      25.998   5.035  49.320  1.00  0.00    -0.185 N 
HETATM   22  C12 UNL     1      25.591   6.385  49.125  1.00  0.00     0.109 A 
HETATM   23  C13 UNL     1      26.464   7.196  48.554  1.00  0.00     0.018 A 
HETATM   24  C14 UNL     1      27.795   6.787  48.123  1.00  0.00    -0.001 A 
HETATM   25  C15 UNL     1      28.093   5.532  48.338  1.00  0.00    -0.006 A 
HETATM   26  C16 UNL     1      27.278   4.455  48.956  1.00  0.00     0.174 A 
ENDBRANCH   5  21
TORSDOF 6
ENDMDL
MODEL 6
REMARK VINA RESULT:      -7.5      1.612      4.512
REMARK  6 active torsions:
REMARK  status: ('A' for Active; 'I' for Inactive)
REMARK    1  A    between atoms: N1_2  and  C2_3 
REMARK    2  A    between atoms: C3_5  and  N3_6 
REMARK    3  A    between atoms: N4_7  and  C4_8 
REMARK    4  A    between atoms: C4_8  and  C5_9 
REMARK    5  A    between atoms: C8_12  and  O1_13 
REMARK    6  A    between atoms: C11_17  and  N6_18 
ROOT
HETATM    1  C2  UNL     1      22.873   1.585  52.091  1.00  0.00     0.753 A 
HETATM    2  N2  UNL     1      23.836   1.502  53.027  1.00  0.00     0.134 NA
HETATM    3  C3  UNL     1      24.587   2.563  53.274  1.00  0.00     0.798 A 
HETATM    4  N5  UNL     1      24.357   3.674  52.581  1.00  0.00     0.135 NA
HETATM    5  C11 UNL     1      23.415   3.828  51.634  1.00  0.00     0.760 A 
HETATM    6  N7  UNL     1      22.677   2.722  51.418  1.00  0.00     0.131 NA
ENDROOT
BRANCH   3   7
HETATM    7  N3  UNL     1      25.656   2.707  54.212  1.00  0.00     0.042 NA
HETATM    8  N4  UNL     1      26.787   2.263  53.847  1.00  0.00    -0.172 NA
BRANCH   8   9
HETATM    9  C4  UNL     1      26.885   1.660  52.531  1.00  0.00     0.212 C 
BRANCH   9  10
HETATM   10  C5  UNL     1      27.461   0.288  52.767  1.00  0.00    -0.037 A 
HETATM   11  C6  UNL     1      28.705   0.022  53.303  1.00  0.00     0.012 A 
HETATM   12  C7  UNL     1      29.098  -1.293  53.461  1.00  0.00     0.037 A 
HETATM   13  C8  UNL     1      28.281  -2.352  53.099  1.00  0.00     0.065 A 
HETATM   14  C9  UNL     1      27.050  -2.045  52.569  1.00  0.00     0.037 A 
HETATM   15  C10 UNL     1      26.604  -0.749  52.388  1.00  0.00     0.012 A 
BRANCH  13  16
HETATM   16  O1  UNL     1      28.703  -3.661  53.270  1.00  0.00    -0.361 OA
HETATM   17  H9  UNL     1      28.388  -4.338  52.570  1.00  0.00     0.217 HD
ENDBRANCH  13  16
ENDBRANCH   9  10
ENDBRANCH   8   9
ENDBRANCH   3   7
BRANCH   1  18
HETATM   18  N1  UNL     1      22.069   0.440  51.830  1.00  0.00    -0.226 N 
HETATM   19  C1  UNL     1      22.039  -0.646  52.788  1.00  0.00     0.165 C 
HETATM   20  H4  UNL     1      21.501   0.363  50.968  1.00  0.00     0.177 HD
ENDBRANCH   1  18
BRANCH   5  21
HETATM   21  N6  UNL     1      23.216   5.049  50.923  1.00  0.00    -0.185 N 
HETATM   22  C12 UNL     1      22.100   5.841  51.315  1.00  0.00     0.109 A 
HETATM   23  C13 UNL     1      21.911   6.973  50.660  1.00  0.00     0.018 A 
HETATM   24  C14 UNL     1      22.770   7.442  49.579  1.00  0.00    -0.001 A 
HETATM   25  C15 UNL     1      23.773   6.658  49.280  1.00  0.00    -0.006 A 
HETATM   26  C16 UNL     1      24.172   5.357  49.874  1.00  0.00     0.174 A 
ENDBRANCH   5  21
TORSDOF 6
ENDMDL
MODEL 7
REMARK VINA RESULT:      -7.5      3.247      6.948
REMARK  6 active torsions:
REMARK  status: ('A' for Active; 'I' for Inactive)
REMARK    1  A    between atoms: N1_2  and  C2_3 
REMARK    2  A    between atoms: C3_5  and  N3_6 
REMARK    3  A    between atoms: N4_7  and  C4_8 
REMARK    4  A    between atoms: C4_8  and  C5_9 
REMARK    5  A    between atoms: C8_12  and  O1_13 
REMARK    6  A    between atoms: C11_17  and  N6_18 
ROOT
HETATM    1  C2  UNL     1      23.469  -0.156  53.286  1.00  0.00     0.753 A 
HETATM    2  N2  UNL     1      23.096   1.116  53.055  1.00  0.00     0.134 NA
HETATM    3  C3  UNL     1      24.026   2.049  52.938  1.00  0.00     0.798 A 
HETATM    4  N5  UNL     1      25.300   1.687  53.055  1.00  0.00     0.135 NA
HETATM    5  C11 UNL     1      25.744   0.439  53.286  1.00  0.00     0.760 A 
HETATM    6  N7  UNL     1      24.761  -0.474  53.398  1.00  0.00     0.131 NA
ENDROOT
BRANCH   3   7
HETATM    7  N3  UNL     1      23.868   3.449  52.694  1.00  0.00     0.042 NA
HETATM    8  N4  UNL     1      23.896   3.812  51.479  1.00  0.00    -0.172 NA
BRANCH   8   9
HETATM    9  C4  UNL     1      24.086   2.788  50.469  1.00  0.00     0.212 C 
BRANCH   9  10
HETATM   10  C5  UNL     1      22.833   2.821  49.632  1.00  0.00    -0.037 A 
HETATM   11  C6  UNL     1      22.322   3.936  48.999  1.00  0.00     0.012 A 
HETATM   12  C7  UNL     1      21.159   3.812  48.262  1.00  0.00     0.037 A 
HETATM   13  C8  UNL     1      20.493   2.603  48.140  1.00  0.00     0.065 A 
HETATM   14  C9  UNL     1      21.035   1.517  48.786  1.00  0.00     0.037 A 
HETATM   15  C10 UNL     1      22.194   1.581  49.536  1.00  0.00     0.012 A 
BRANCH  13  16
HETATM   16  O1  UNL     1      19.329   2.510  47.394  1.00  0.00    -0.361 OA
HETATM   17  H9  UNL     1      19.249   3.139  46.590  1.00  0.00     0.217 HD
ENDBRANCH  13  16
ENDBRANCH   9  10
ENDBRANCH   8   9
ENDBRANCH   3   7
BRANCH   1  18
HETATM   18  N1  UNL     1      22.463  -1.155  53.412  1.00  0.00    -0.226 N 
HETATM   19  C1  UNL     1      21.685  -1.237  54.632  1.00  0.00     0.165 C 
HETATM   20  H4  UNL     1      22.270  -1.828  52.649  1.00  0.00     0.177 HD
ENDBRANCH   1  18
BRANCH   5  21
HETATM   21  N6  UNL     1      27.128   0.113  53.402  1.00  0.00    -0.185 N 
HETATM   22  C12 UNL     1      27.991   1.146  53.865  1.00  0.00     0.109 A 
HETATM   23  C13 UNL     1      29.274   0.850  53.974  1.00  0.00     0.018 A 
HETATM   24  C14 UNL     1      29.839  -0.455  53.652  1.00  0.00    -0.001 A 
HETATM   25  C15 UNL     1      28.981  -1.349  53.235  1.00  0.00    -0.006 A 
HETATM   26  C16 UNL     1      27.514  -1.239  53.036  1.00  0.00     0.174 A 
ENDBRANCH   5  21
TORSDOF 6
ENDMDL
MODEL 8
REMARK VINA RESULT:      -7.5      2.833      6.336
REMARK  6 active torsions:
REMARK  status: ('A' for Active; 'I' for Inactive)
REMARK    1  A    between atoms: N1_2  and  C2_3 
REMARK    2  A    between atoms: C3_5  and  N3_6 
REMARK    3  A    between atoms: N4_7  and  C4_8 
REMARK    4  A    between atoms: C4_8  and  C5_9 
REMARK    5  A    between atoms: C8_12  and  O1_13 
REMARK    6  A    between atoms: C11_17  and  N6_18 
ROOT
HETATM    1  C2  UNL     1      22.640   5.687  50.729  1.00  0.00     0.753 A 
HETATM    2  N2  UNL     1      22.224   4.408  50.736  1.00  0.00     0.134 NA
HETATM    3  C3  UNL     1      23.015   3.471  50.239  1.00  0.00     0.798 A 
HETATM    4  N5  UNL     1      24.196   3.836  49.750  1.00  0.00     0.135 NA
HETATM    5  C11 UNL     1      24.675   5.092  49.709  1.00  0.00     0.760 A 
HETATM    6  N7  UNL     1      23.835   6.009  50.225  1.00  0.00     0.131 NA
ENDROOT
BRANCH   3   7
HETATM    7  N3  UNL     1      22.787   2.062  50.143  1.00  0.00     0.042 NA
HETATM    8  N4  UNL     1      22.909   1.400  51.218  1.00  0.00    -0.172 NA
BRANCH   8   9
HETATM    9  C4  UNL     1      23.264   2.124  52.424  1.00  0.00     0.212 C 
BRANCH   9  10
HETATM   10  C5  UNL     1      24.417   1.359  53.020  1.00  0.00    -0.037 A 
HETATM   11  C6  UNL     1      24.483  -0.013  53.154  1.00  0.00     0.012 A 
HETATM   12  C7  UNL     1      25.610  -0.576  53.722  1.00  0.00     0.037 A 
HETATM   13  C8  UNL     1      26.675   0.195  54.160  1.00  0.00     0.065 A 
HETATM   14  C9  UNL     1      26.570   1.558  54.008  1.00  0.00     0.037 A 
HETATM   15  C10 UNL     1      25.468   2.176  53.447  1.00  0.00     0.012 A 
BRANCH  13  16
HETATM   16  O1  UNL     1      27.793  -0.398  54.726  1.00  0.00    -0.361 OA
HETATM   17  H9  UNL     1      27.763  -1.414  54.838  1.00  0.00     0.217 HD
ENDBRANCH  13  16
ENDBRANCH   9  10
ENDBRANCH   8   9
ENDBRANCH   3   7
BRANCH   1  18
HETATM   18  N1  UNL     1      21.785   6.690  51.265  1.00  0.00    -0.226 N 
HETATM   19  C1  UNL     1      21.277   7.735  50.398  1.00  0.00     0.165 C 
HETATM   20  H4  UNL     1      21.514   6.693  52.264  1.00  0.00     0.177 HD
ENDBRANCH   1  18
BRANCH   5  21
HETATM   21  N6  UNL     1      25.953   5.422  49.169  1.00  0.00    -0.185 N 
HETATM   22  C12 UNL     1      26.131   6.761  48.722  1.00  0.00     0.109 A 
HETATM   23  C13 UNL     1      27.313   7.073  48.221  1.00  0.00     0.018 A 
HETATM   24  C14 UNL     1      28.422   6.133  48.106  1.00  0.00    -0.001 A 
HETATM   25  C15 UNL     1      28.179   4.924  48.539  1.00  0.00    -0.006 A 
HETATM   26  C16 UNL     1      26.941   4.358  49.132  1.00  0.00     0.174 A 
ENDBRANCH   5  21
TORSDOF 6
ENDMDL
MODEL 9
REMARK VINA RESULT:      -7.4      1.747      2.581
REMARK  6 active torsions:
REMARK  status: ('A' for Active; 'I' for Inactive)
REMARK    1  A    between atoms: N1_2  and  C2_3 
REMARK    2  A    between atoms: C3_5  and  N3_6 
REMARK    3  A    between atoms: N4_7  and  C4_8 
REMARK    4  A    between atoms: C4_8  and  C5_9 
REMARK    5  A    between atoms: C8_12  and  O1_13 
REMARK    6  A    between atoms: C11_17  and  N6_18 
ROOT
HETATM    1  C2  UNL     1      22.200   1.882  49.347  1.00  0.00     0.753 A 
HETATM    2  N2  UNL     1      23.089   2.879  49.510  1.00  0.00     0.134 NA
HETATM    3  C3  UNL     1      23.675   3.034  50.686  1.00  0.00     0.798 A 
HETATM    4  N5  UNL     1      23.359   2.191  51.664  1.00  0.00     0.135 NA
HETATM    5  C11 UNL     1      22.482   1.175  51.572  1.00  0.00     0.760 A 
HETATM    6  N7  UNL     1      21.912   1.059  50.358  1.00  0.00     0.131 NA
ENDROOT
BRANCH   3   7
HETATM    7  N3  UNL     1      24.640   4.010  51.086  1.00  0.00     0.042 NA
HETATM    8  N4  UNL     1      25.854   3.643  51.055  1.00  0.00    -0.172 NA
BRANCH   8   9
HETATM    9  C4  UNL     1      26.142   2.288  50.624  1.00  0.00     0.212 C 
BRANCH   9  10
HETATM   10  C5  UNL     1      26.842   1.642  51.792  1.00  0.00    -0.037 A 
HETATM   11  C6  UNL     1      27.663   2.291  52.692  1.00  0.00     0.012 A 
HETATM   12  C7  UNL     1      28.238   1.564  53.718  1.00  0.00     0.037 A 
HETATM   13  C8  UNL     1      28.014   0.205  53.869  1.00  0.00     0.065 A 
HETATM   14  C9  UNL     1      27.190  -0.404  52.951  1.00  0.00     0.037 A 
HETATM   15  C10 UNL     1      26.589   0.272  51.906  1.00  0.00     0.012 A 
BRANCH  13  16
HETATM   16  O1  UNL     1      28.605  -0.498  54.907  1.00  0.00    -0.361 OA
HETATM   17  H9  UNL     1      29.535  -0.187  55.198  1.00  0.00     0.217 HD
ENDBRANCH  13  16
ENDBRANCH   9  10
ENDBRANCH   8   9
ENDBRANCH   3   7
BRANCH   1  18
HETATM   18  N1  UNL     1      21.573   1.722  48.079  1.00  0.00    -0.226 N 
HETATM   19  C1  UNL     1      20.908   2.851  47.463  1.00  0.00     0.165 C 
HETATM   20  H4  UNL     1      21.580   0.813  47.583  1.00  0.00     0.177 HD
ENDBRANCH   1  18
BRANCH   5  21
HETATM   21  N6  UNL     1      22.183   0.303  52.661  1.00  0.00    -0.185 N 
HETATM   22  C12 UNL     1      20.818  -0.064  52.829  1.00  0.00     0.109 A 
HETATM   23  C13 UNL     1      20.535  -0.872  53.835  1.00  0.00     0.018 A 
HETATM   24  C14 UNL     1      21.530  -1.396  54.763  1.00  0.00    -0.001 A 
HETATM   25  C15 UNL     1      22.761  -1.013  54.541  1.00  0.00    -0.006 A 
HETATM   26  C16 UNL     1      23.302  -0.121  53.484  1.00  0.00     0.174 A 
ENDBRANCH   5  21
TORSDOF 6
ENDMDL
