MODEL 1
REMARK VINA RESULT:      -7.0      0.000      0.000
REMARK  9 active torsions:
REMARK  status: ('A' for Active; 'I' for Inactive)
REMARK    1  A    between atoms: C7_7  and  N1_8 
REMARK    2  A    between atoms: N1_8  and  C8_9 
REMARK    3  A    between atoms: C10_13  and  C11_14 
REMARK    4  A    between atoms: C11_14  and  C12_15 
REMARK    5  A    between atoms: C12_15  and  C13_16 
REMARK    6  A    between atoms: C14_17  and  O1_18 
REMARK    7  A    between atoms: O1_18  and  C15_19 
REMARK    8  A    between atoms: C15_19  and  C16_20 
REMARK    9  A    between atoms: C16_20  and  O2_21 
ROOT
HETATM    1  C1  UNL     1      23.443  -1.290  55.386  1.00  0.00     0.018 C 
HETATM    2  C2  UNL     1      22.660  -0.895  54.545  1.00  0.00    -0.078 C 
HETATM    3  C3  UNL     1      21.745  -0.404  53.550  1.00  0.00     0.019 A 
HETATM    4  C4  UNL     1      20.384  -0.605  53.617  1.00  0.00     0.021 A 
HETATM    5  C5  UNL     1      19.530  -0.124  52.650  1.00  0.00     0.004 A 
HETATM    6  C6  UNL     1      20.099   0.582  51.586  1.00  0.00     0.029 A 
HETATM    7  C7  UNL     1      21.450   0.809  51.473  1.00  0.00     0.034 A 
HETATM    8  C20 UNL     1      22.222   0.302  52.467  1.00  0.00     0.050 A 
ENDROOT
BRANCH   7   9
HETATM    9  N1  UNL     1      22.047   1.528  50.402  1.00  0.00    -0.344 N 
HETATM   10  H5  UNL     1      21.805   1.217  49.410  1.00  0.00     0.167 HD
BRANCH   9  11
HETATM   11  C8  UNL     1      22.948   2.645  50.540  1.00  0.00     0.107 A 
HETATM   12  N2  UNL     1      22.488   3.549  51.374  1.00  0.00    -0.229 NA
HETATM   13  C9  UNL     1      23.299   4.695  51.584  1.00  0.00     0.229 A 
HETATM   14  N3  UNL     1      24.385   4.757  50.962  1.00  0.00    -0.277 NA
HETATM   15  C10 UNL     1      24.996   3.888  50.058  1.00  0.00     0.116 A 
HETATM   16  C19 UNL     1      24.209   2.648  49.781  1.00  0.00     0.105 A 
BRANCH  15  17
HETATM   17  C11 UNL     1      26.437   3.535  50.450  1.00  0.00     0.032 C 
BRANCH  17  18
HETATM   18  C12 UNL     1      26.480   2.097  50.850  1.00  0.00     0.039 C 
BRANCH  18  19
HETATM   19  C13 UNL     1      26.445   2.053  52.354  1.00  0.00    -0.044 A 
HETATM   20  C14 UNL     1      26.929   1.935  53.604  1.00  0.00     0.053 A 
HETATM   21  C18 UNL     1      25.513   2.165  53.496  1.00  0.00     0.101 A 
BRANCH  20  22
HETATM   22  O1  UNL     1      28.037   1.729  54.447  1.00  0.00    -0.353 OA
BRANCH  22  23
HETATM   23  C15 UNL     1      28.462   0.430  54.759  1.00  0.00     0.201 C 
BRANCH  23  24
HETATM   24  C16 UNL     1      28.956  -0.261  53.499  1.00  0.00     0.193 C 
BRANCH  24  25
HETATM   25  O2  UNL     1      28.256  -1.452  53.384  1.00  0.00    -0.394 OA
HETATM   26  C17 UNL     1      29.077  -2.557  53.238  1.00  0.00     0.201 C 
ENDBRANCH  24  25
ENDBRANCH  23  24
ENDBRANCH  22  23
ENDBRANCH  20  22
ENDBRANCH  18  19
ENDBRANCH  17  18
ENDBRANCH  15  17
ENDBRANCH   9  11
ENDBRANCH   7   9
TORSDOF 9
ENDMDL
MODEL 2
REMARK VINA RESULT:      -6.8      3.567      5.992
REMARK  9 active torsions:
REMARK  status: ('A' for Active; 'I' for Inactive)
REMARK    1  A    between atoms: C7_7  and  N1_8 
REMARK    2  A    between atoms: N1_8  and  C8_9 
REMARK    3  A    between atoms: C10_13  and  C11_14 
REMARK    4  A    between atoms: C11_14  and  C12_15 
REMARK    5  A    between atoms: C12_15  and  C13_16 
REMARK    6  A    between atoms: C14_17  and  O1_18 
REMARK    7  A    between atoms: O1_18  and  C15_19 
REMARK    8  A    between atoms: C15_19  and  C16_20 
REMARK    9  A    between atoms: C16_20  and  O2_21 
ROOT
HETATM    1  C1  UNL     1      22.274   1.417  50.491  1.00  0.00     0.018 C 
HETATM    2  C2  UNL     1      22.377   0.828  51.548  1.00  0.00    -0.078 C 
HETATM    3  C3  UNL     1      22.518   0.116  52.790  1.00  0.00     0.019 A 
HETATM    4  C4  UNL     1      21.445  -0.365  53.507  1.00  0.00     0.021 A 
HETATM    5  C5  UNL     1      21.608  -1.043  54.694  1.00  0.00     0.004 A 
HETATM    6  C6  UNL     1      22.917  -1.228  55.151  1.00  0.00     0.029 A 
HETATM    7  C7  UNL     1      24.021  -0.768  54.473  1.00  0.00     0.034 A 
HETATM    8  C20 UNL     1      23.773  -0.110  53.313  1.00  0.00     0.050 A 
ENDROOT
BRANCH   7   9
HETATM    9  N1  UNL     1      25.358  -0.950  54.920  1.00  0.00    -0.344 N 
HETATM   10  H5  UNL     1      25.512  -1.602  55.751  1.00  0.00     0.167 HD
BRANCH   9  11
HETATM   11  C8  UNL     1      26.527  -0.333  54.343  1.00  0.00     0.107 A 
HETATM   12  N2  UNL     1      27.436  -1.220  54.008  1.00  0.00    -0.229 NA
HETATM   13  C9  UNL     1      28.633  -0.720  53.429  1.00  0.00     0.229 A 
HETATM   14  N3  UNL     1      28.729   0.521  53.283  1.00  0.00    -0.277 NA
HETATM   15  C10 UNL     1      27.860   1.569  53.586  1.00  0.00     0.116 A 
HETATM   16  C19 UNL     1      26.569   1.130  54.198  1.00  0.00     0.105 A 
BRANCH  15  17
HETATM   17  C11 UNL     1      27.602   2.495  52.390  1.00  0.00     0.032 C 
BRANCH  17  18
HETATM   18  C12 UNL     1      26.459   1.943  51.602  1.00  0.00     0.039 C 
BRANCH  18  19
HETATM   19  C13 UNL     1      26.065   2.992  50.597  1.00  0.00    -0.044 A 
HETATM   20  C14 UNL     1      25.276   3.902  49.998  1.00  0.00     0.053 A 
HETATM   21  C18 UNL     1      26.581   3.720  49.419  1.00  0.00     0.101 A 
BRANCH  20  22
HETATM   22  O1  UNL     1      24.040   4.574  49.951  1.00  0.00    -0.353 OA
BRANCH  22  23
HETATM   23  C15 UNL     1      23.440   4.875  48.721  1.00  0.00     0.201 C 
BRANCH  23  24
HETATM   24  C16 UNL     1      21.929   4.782  48.855  1.00  0.00     0.193 C 
BRANCH  24  25
HETATM   25  O2  UNL     1      21.426   4.462  47.603  1.00  0.00    -0.394 OA
HETATM   26  C17 UNL     1      22.057   3.375  47.023  1.00  0.00     0.201 C 
ENDBRANCH  24  25
ENDBRANCH  23  24
ENDBRANCH  22  23
ENDBRANCH  20  22
ENDBRANCH  18  19
ENDBRANCH  17  18
ENDBRANCH  15  17
ENDBRANCH   9  11
ENDBRANCH   7   9
TORSDOF 9
ENDMDL
MODEL 3
REMARK VINA RESULT:      -6.7      2.397      6.194
REMARK  9 active torsions:
REMARK  status: ('A' for Active; 'I' for Inactive)
REMARK    1  A    between atoms: C7_7  and  N1_8 
REMARK    2  A    between atoms: N1_8  and  C8_9 
REMARK    3  A    between atoms: C10_13  and  C11_14 
REMARK    4  A    between atoms: C11_14  and  C12_15 
REMARK    5  A    between atoms: C12_15  and  C13_16 
REMARK    6  A    between atoms: C14_17  and  O1_18 
REMARK    7  A    between atoms: O1_18  and  C15_19 
REMARK    8  A    between atoms: C15_19  and  C16_20 
REMARK    9  A    between atoms: C16_20  and  O2_21 
ROOT
HETATM    1  C1  UNL     1      30.211   5.453  48.220  1.00  0.00     0.018 C 
HETATM    2  C2  UNL     1      29.028   5.718  48.283  1.00  0.00    -0.078 C 
HETATM    3  C3  UNL     1      27.621   6.009  48.347  1.00  0.00     0.019 A 
HETATM    4  C4  UNL     1      27.085   7.220  47.969  1.00  0.00     0.021 A 
HETATM    5  C5  UNL     1      25.734   7.473  48.041  1.00  0.00     0.004 A 
HETATM    6  C6  UNL     1      24.915   6.444  48.516  1.00  0.00     0.029 A 
HETATM    7  C7  UNL     1      25.399   5.217  48.905  1.00  0.00     0.034 A 
HETATM    8  C20 UNL     1      26.742   5.051  48.804  1.00  0.00     0.050 A 
ENDROOT
BRANCH   7   9
HETATM    9  N1  UNL     1      24.582   4.159  49.387  1.00  0.00    -0.344 N 
HETATM   10  H5  UNL     1      24.177   3.486  48.663  1.00  0.00     0.167 HD
BRANCH   9  11
HETATM   11  C8  UNL     1      24.256   3.911  50.769  1.00  0.00     0.107 A 
HETATM   12  N2  UNL     1      23.909   5.010  51.398  1.00  0.00    -0.229 NA
HETATM   13  C9  UNL     1      23.566   4.880  52.769  1.00  0.00     0.229 A 
HETATM   14  N3  UNL     1      23.621   3.734  53.273  1.00  0.00    -0.277 NA
HETATM   15  C10 UNL     1      23.967   2.493  52.738  1.00  0.00     0.116 A 
HETATM   16  C19 UNL     1      24.339   2.537  51.291  1.00  0.00     0.105 A 
BRANCH  15  17
HETATM   17  C11 UNL     1      22.901   1.417  52.987  1.00  0.00     0.032 C 
BRANCH  17  18
HETATM   18  C12 UNL     1      23.482   0.086  52.638  1.00  0.00     0.039 C 
BRANCH  18  19
HETATM   19  C13 UNL     1      24.169  -0.435  53.873  1.00  0.00    -0.044 A 
HETATM   20  C14 UNL     1      25.191  -0.692  54.709  1.00  0.00     0.053 A 
HETATM   21  C18 UNL     1      23.894  -1.140  55.141  1.00  0.00     0.101 A 
BRANCH  20  22
HETATM   22  O1  UNL     1      26.567  -0.599  54.985  1.00  0.00    -0.353 OA
BRANCH  22  23
HETATM   23  C15 UNL     1      27.426   0.076  54.107  1.00  0.00     0.201 C 
BRANCH  23  24
HETATM   24  C16 UNL     1      28.734   0.392  54.814  1.00  0.00     0.193 C 
BRANCH  24  25
HETATM   25  O2  UNL     1      29.182   1.607  54.321  1.00  0.00    -0.394 OA
HETATM   26  C17 UNL     1      28.284   2.211  53.457  1.00  0.00     0.201 C 
ENDBRANCH  24  25
ENDBRANCH  23  24
ENDBRANCH  22  23
ENDBRANCH  20  22
ENDBRANCH  18  19
ENDBRANCH  17  18
ENDBRANCH  15  17
ENDBRANCH   9  11
ENDBRANCH   7   9
TORSDOF 9
ENDMDL
MODEL 4
REMARK VINA RESULT:      -6.7      3.335      5.843
REMARK  9 active torsions:
REMARK  status: ('A' for Active; 'I' for Inactive)
REMARK    1  A    between atoms: C7_7  and  N1_8 
REMARK    2  A    between atoms: N1_8  and  C8_9 
REMARK    3  A    between atoms: C10_13  and  C11_14 
REMARK    4  A    between atoms: C11_14  and  C12_15 
REMARK    5  A    between atoms: C12_15  and  C13_16 
REMARK    6  A    between atoms: C14_17  and  O1_18 
REMARK    7  A    between atoms: O1_18  and  C15_19 
REMARK    8  A    between atoms: C15_19  and  C16_20 
REMARK    9  A    between atoms: C16_20  and  O2_21 
ROOT
HETATM    1  C1  UNL     1      21.560   0.992  49.569  1.00  0.00     0.018 C 
HETATM    2  C2  UNL     1      21.576   0.634  50.729  1.00  0.00    -0.078 C 
HETATM    3  C3  UNL     1      21.611   0.191  52.098  1.00  0.00     0.019 A 
HETATM    4  C4  UNL     1      20.478   0.033  52.866  1.00  0.00     0.021 A 
HETATM    5  C5  UNL     1      20.540  -0.392  54.173  1.00  0.00     0.004 A 
HETATM    6  C6  UNL     1      21.808  -0.660  54.700  1.00  0.00     0.029 A 
HETATM    7  C7  UNL     1      22.967  -0.518  53.976  1.00  0.00     0.034 A 
HETATM    8  C20 UNL     1      22.819  -0.094  52.696  1.00  0.00     0.050 A 
ENDROOT
BRANCH   7   9
HETATM    9  N1  UNL     1      24.263  -0.789  54.493  1.00  0.00    -0.344 N 
HETATM   10  H5  UNL     1      24.322  -1.378  55.382  1.00  0.00     0.167 HD
BRANCH   9  11
HETATM   11  C8  UNL     1      25.508  -0.343  53.917  1.00  0.00     0.107 A 
HETATM   12  N2  UNL     1      26.314  -1.345  53.650  1.00  0.00    -0.229 NA
HETATM   13  C9  UNL     1      27.571  -1.017  53.078  1.00  0.00     0.229 A 
HETATM   14  N3  UNL     1      27.815   0.195  52.872  1.00  0.00    -0.277 NA
HETATM   15  C10 UNL     1      27.068   1.350  53.101  1.00  0.00     0.116 A 
HETATM   16  C19 UNL     1      25.723   1.096  53.700  1.00  0.00     0.105 A 
BRANCH  15  17
HETATM   17  C11 UNL     1      26.943   2.236  51.854  1.00  0.00     0.032 C 
BRANCH  17  18
HETATM   18  C12 UNL     1      25.552   2.115  51.325  1.00  0.00     0.039 C 
BRANCH  18  19
HETATM   19  C13 UNL     1      25.193   3.443  50.713  1.00  0.00    -0.044 A 
HETATM   20  C14 UNL     1      24.634   4.665  50.638  1.00  0.00     0.053 A 
HETATM   21  C18 UNL     1      25.380   4.240  49.483  1.00  0.00     0.101 A 
BRANCH  20  22
HETATM   22  O1  UNL     1      23.860   5.669  51.247  1.00  0.00    -0.353 OA
BRANCH  22  23
HETATM   23  C15 UNL     1      23.241   6.660  50.472  1.00  0.00     0.201 C 
BRANCH  23  24
HETATM   24  C16 UNL     1      23.918   7.998  50.722  1.00  0.00     0.193 C 
BRANCH  24  25
HETATM   25  O2  UNL     1      24.789   8.219  49.666  1.00  0.00    -0.394 OA
HETATM   26  C17 UNL     1      26.120   8.082  50.019  1.00  0.00     0.201 C 
ENDBRANCH  24  25
ENDBRANCH  23  24
ENDBRANCH  22  23
ENDBRANCH  20  22
ENDBRANCH  18  19
ENDBRANCH  17  18
ENDBRANCH  15  17
ENDBRANCH   9  11
ENDBRANCH   7   9
TORSDOF 9
ENDMDL
MODEL 5
REMARK VINA RESULT:      -6.7      4.007      5.530
REMARK  9 active torsions:
REMARK  status: ('A' for Active; 'I' for Inactive)
REMARK    1  A    between atoms: C7_7  and  N1_8 
REMARK    2  A    between atoms: N1_8  and  C8_9 
REMARK    3  A    between atoms: C10_13  and  C11_14 
REMARK    4  A    between atoms: C11_14  and  C12_15 
REMARK    5  A    between atoms: C12_15  and  C13_16 
REMARK    6  A    between atoms: C14_17  and  O1_18 
REMARK    7  A    between atoms: O1_18  and  C15_19 
REMARK    8  A    between atoms: C15_19  and  C16_20 
REMARK    9  A    between atoms: C16_20  and  O2_21 
ROOT
HETATM    1  C1  UNL     1      28.628   0.084  54.604  1.00  0.00     0.018 C 
HETATM    2  C2  UNL     1      27.498   0.313  54.221  1.00  0.00    -0.078 C 
HETATM    3  C3  UNL     1      26.159   0.603  53.785  1.00  0.00     0.019 A 
HETATM    4  C4  UNL     1      25.207  -0.372  53.582  1.00  0.00     0.021 A 
HETATM    5  C5  UNL     1      23.931  -0.067  53.164  1.00  0.00     0.004 A 
HETATM    6  C6  UNL     1      23.634   1.283  52.948  1.00  0.00     0.029 A 
HETATM    7  C7  UNL     1      24.548   2.292  53.136  1.00  0.00     0.034 A 
HETATM    8  C20 UNL     1      25.781   1.907  53.548  1.00  0.00     0.050 A 
ENDROOT
BRANCH   7   9
HETATM    9  N1  UNL     1      24.262   3.669  52.926  1.00  0.00    -0.344 N 
HETATM   10  H5  UNL     1      24.065   4.264  53.790  1.00  0.00     0.167 HD
BRANCH   9  11
HETATM   11  C8  UNL     1      24.222   4.333  51.647  1.00  0.00     0.107 A 
HETATM   12  N2  UNL     1      23.188   5.135  51.541  1.00  0.00    -0.229 NA
HETATM   13  C9  UNL     1      23.051   5.843  50.318  1.00  0.00     0.229 A 
HETATM   14  N3  UNL     1      23.922   5.649  49.437  1.00  0.00    -0.277 NA
HETATM   15  C10 UNL     1      25.058   4.841  49.408  1.00  0.00     0.116 A 
HETATM   16  C19 UNL     1      25.282   4.061  50.663  1.00  0.00     0.105 A 
BRANCH  15  17
HETATM   17  C11 UNL     1      26.328   5.611  49.019  1.00  0.00     0.032 C 
BRANCH  17  18
HETATM   18  C12 UNL     1      27.401   4.623  48.700  1.00  0.00     0.039 C 
BRANCH  18  19
HETATM   19  C13 UNL     1      28.658   5.405  48.426  1.00  0.00    -0.044 A 
HETATM   20  C14 UNL     1      29.943   5.779  48.569  1.00  0.00     0.053 A 
HETATM   21  C18 UNL     1      29.186   6.486  47.569  1.00  0.00     0.101 A 
BRANCH  20  22
HETATM   22  O1  UNL     1      31.175   5.612  49.226  1.00  0.00    -0.353 OA
BRANCH  22  23
HETATM   23  C15 UNL     1      32.351   5.405  48.492  1.00  0.00     0.201 C 
BRANCH  23  24
HETATM   24  C16 UNL     1      32.126   4.304  47.468  1.00  0.00     0.193 C 
BRANCH  24  25
HETATM   25  O2  UNL     1      33.351   4.039  46.876  1.00  0.00    -0.394 OA
HETATM   26  C17 UNL     1      34.401   4.024  47.778  1.00  0.00     0.201 C 
ENDBRANCH  24  25
ENDBRANCH  23  24
ENDBRANCH  22  23
ENDBRANCH  20  22
ENDBRANCH  18  19
ENDBRANCH  17  18
ENDBRANCH  15  17
ENDBRANCH   9  11
ENDBRANCH   7   9
TORSDOF 9
ENDMDL
MODEL 6
REMARK VINA RESULT:      -6.6      1.654      3.199
REMARK  9 active torsions:
REMARK  status: ('A' for Active; 'I' for Inactive)
REMARK    1  A    between atoms: C7_7  and  N1_8 
REMARK    2  A    between atoms: N1_8  and  C8_9 
REMARK    3  A    between atoms: C10_13  and  C11_14 
REMARK    4  A    between atoms: C11_14  and  C12_15 
REMARK    5  A    between atoms: C12_15  and  C13_16 
REMARK    6  A    between atoms: C14_17  and  O1_18 
REMARK    7  A    between atoms: O1_18  and  C15_19 
REMARK    8  A    between atoms: C15_19  and  C16_20 
REMARK    9  A    between atoms: C16_20  and  O2_21 
ROOT
HETATM    1  C1  UNL     1      17.872  -0.952  52.842  1.00  0.00     0.018 C 
HETATM    2  C2  UNL     1      19.050  -0.871  53.129  1.00  0.00    -0.078 C 
HETATM    3  C3  UNL     1      20.450  -0.780  53.444  1.00  0.00     0.019 A 
HETATM    4  C4  UNL     1      21.027  -1.444  54.504  1.00  0.00     0.021 A 
HETATM    5  C5  UNL     1      22.370  -1.338  54.784  1.00  0.00     0.004 A 
HETATM    6  C6  UNL     1      23.137  -0.524  53.945  1.00  0.00     0.029 A 
HETATM    7  C7  UNL     1      22.610   0.160  52.875  1.00  0.00     0.034 A 
HETATM    8  C20 UNL     1      21.279   0.002  52.669  1.00  0.00     0.050 A 
ENDROOT
BRANCH   7   9
HETATM    9  N1  UNL     1      23.374   0.988  52.009  1.00  0.00    -0.344 N 
HETATM   10  H5  UNL     1      24.356   0.655  51.754  1.00  0.00     0.167 HD
BRANCH   9  11
HETATM   11  C8  UNL     1      22.936   2.239  51.440  1.00  0.00     0.107 A 
HETATM   12  N2  UNL     1      22.632   3.120  52.365  1.00  0.00    -0.229 NA
HETATM   13  C9  UNL     1      22.187   4.391  51.914  1.00  0.00     0.229 A 
HETATM   14  N3  UNL     1      22.119   4.573  50.676  1.00  0.00    -0.277 NA
HETATM   15  C10 UNL     1      22.404   3.744  49.591  1.00  0.00     0.116 A 
HETATM   16  C19 UNL     1      22.885   2.383  49.977  1.00  0.00     0.105 A 
BRANCH  15  17
HETATM   17  C11 UNL     1      23.366   4.389  48.584  1.00  0.00     0.032 C 
BRANCH  17  18
HETATM   18  C12 UNL     1      24.342   5.233  49.335  1.00  0.00     0.039 C 
BRANCH  18  19
HETATM   19  C13 UNL     1      25.513   4.354  49.683  1.00  0.00    -0.044 A 
HETATM   20  C14 UNL     1      26.198   3.404  50.347  1.00  0.00     0.053 A 
HETATM   21  C18 UNL     1      26.909   4.072  49.289  1.00  0.00     0.101 A 
BRANCH  20  22
HETATM   22  O1  UNL     1      26.222   2.432  51.363  1.00  0.00    -0.353 OA
BRANCH  22  23
HETATM   23  C15 UNL     1      27.350   2.288  52.184  1.00  0.00     0.201 C 
BRANCH  23  24
HETATM   24  C16 UNL     1      27.139   1.125  53.140  1.00  0.00     0.193 C 
BRANCH  24  25
HETATM   25  O2  UNL     1      27.864   1.403  54.288  1.00  0.00    -0.394 OA
HETATM   26  C17 UNL     1      28.999   2.159  54.048  1.00  0.00     0.201 C 
ENDBRANCH  24  25
ENDBRANCH  23  24
ENDBRANCH  22  23
ENDBRANCH  20  22
ENDBRANCH  18  19
ENDBRANCH  17  18
ENDBRANCH  15  17
ENDBRANCH   9  11
ENDBRANCH   7   9
TORSDOF 9
ENDMDL
MODEL 7
REMARK VINA RESULT:      -6.6      1.666      2.237
REMARK  9 active torsions:
REMARK  status: ('A' for Active; 'I' for Inactive)
REMARK    1  A    between atoms: C7_7  and  N1_8 
REMARK    2  A    between atoms: N1_8  and  C8_9 
REMARK    3  A    between atoms: C10_13  and  C11_14 
REMARK    4  A    between atoms: C11_14  and  C12_15 
REMARK    5  A    between atoms: C12_15  and  C13_16 
REMARK    6  A    between atoms: C14_17  and  O1_18 
REMARK    7  A    between atoms: O1_18  and  C15_19 
REMARK    8  A    between atoms: C15_19  and  C16_20 
REMARK    9  A    between atoms: C16_20  and  O2_21 
ROOT
HETATM    1  C1  UNL     1      21.613  -0.785  54.715  1.00  0.00     0.018 C 
HETATM    2  C2  UNL     1      20.787  -0.590  53.846  1.00  0.00    -0.078 C 
HETATM    3  C3  UNL     1      19.817  -0.334  52.815  1.00  0.00     0.019 A 
HETATM    4  C4  UNL     1      18.488  -0.678  52.930  1.00  0.00     0.021 A 
HETATM    5  C5  UNL     1      17.581  -0.422  51.928  1.00  0.00     0.004 A 
HETATM    6  C6  UNL     1      18.062   0.205  50.774  1.00  0.00     0.029 A 
HETATM    7  C7  UNL     1      19.377   0.568  50.609  1.00  0.00     0.034 A 
HETATM    8  C20 UNL     1      20.206   0.280  51.644  1.00  0.00     0.050 A 
ENDROOT
BRANCH   7   9
HETATM    9  N1  UNL     1      19.883   1.210  49.446  1.00  0.00    -0.344 N 
HETATM   10  H5  UNL     1      19.549   0.843  48.501  1.00  0.00     0.167 HD
BRANCH   9  11
HETATM   11  C8  UNL     1      20.805   2.319  49.433  1.00  0.00     0.107 A 
HETATM   12  N2  UNL     1      20.225   3.445  49.777  1.00  0.00    -0.229 NA
HETATM   13  C9  UNL     1      21.044   4.605  49.797  1.00  0.00     0.229 A 
HETATM   14  N3  UNL     1      22.251   4.466  49.488  1.00  0.00    -0.277 NA
HETATM   15  C10 UNL     1      22.996   3.350  49.107  1.00  0.00     0.116 A 
HETATM   16  C19 UNL     1      22.209   2.080  49.063  1.00  0.00     0.105 A 
BRANCH  15  17
HETATM   17  C11 UNL     1      24.267   3.167  49.947  1.00  0.00     0.032 C 
BRANCH  17  18
HETATM   18  C12 UNL     1      24.081   3.873  51.249  1.00  0.00     0.039 C 
BRANCH  18  19
HETATM   19  C13 UNL     1      24.386   2.882  52.340  1.00  0.00    -0.044 A 
HETATM   20  C14 UNL     1      25.088   2.308  53.335  1.00  0.00     0.053 A 
HETATM   21  C18 UNL     1      23.831   1.688  53.009  1.00  0.00     0.101 A 
BRANCH  20  22
HETATM   22  O1  UNL     1      26.241   2.302  54.141  1.00  0.00    -0.353 OA
BRANCH  22  23
HETATM   23  C15 UNL     1      27.321   1.465  53.831  1.00  0.00     0.201 C 
BRANCH  23  24
HETATM   24  C16 UNL     1      27.151   0.129  54.537  1.00  0.00     0.193 C 
BRANCH  24  25
HETATM   25  O2  UNL     1      28.410  -0.282  54.943  1.00  0.00    -0.394 OA
HETATM   26  C17 UNL     1      29.208  -0.713  53.896  1.00  0.00     0.201 C 
ENDBRANCH  24  25
ENDBRANCH  23  24
ENDBRANCH  22  23
ENDBRANCH  20  22
ENDBRANCH  18  19
ENDBRANCH  17  18
ENDBRANCH  15  17
ENDBRANCH   9  11
ENDBRANCH   7   9
TORSDOF 9
ENDMDL
MODEL 8
REMARK VINA RESULT:      -6.6      4.494      6.657
REMARK  9 active torsions:
REMARK  status: ('A' for Active; 'I' for Inactive)
REMARK    1  A    between atoms: C7_7  and  N1_8 
REMARK    2  A    between atoms: N1_8  and  C8_9 
REMARK    3  A    between atoms: C10_13  and  C11_14 
REMARK    4  A    between atoms: C11_14  and  C12_15 
REMARK    5  A    between atoms: C12_15  and  C13_16 
REMARK    6  A    between atoms: C14_17  and  O1_18 
REMARK    7  A    between atoms: O1_18  and  C15_19 
REMARK    8  A    between atoms: C15_19  and  C16_20 
REMARK    9  A    between atoms: C16_20  and  O2_21 
ROOT
HETATM    1  C1  UNL     1      28.636   0.073  54.703  1.00  0.00     0.018 C 
HETATM    2  C2  UNL     1      27.505   0.294  54.318  1.00  0.00    -0.078 C 
HETATM    3  C3  UNL     1      26.165   0.575  53.879  1.00  0.00     0.019 A 
HETATM    4  C4  UNL     1      25.194  -0.394  53.757  1.00  0.00     0.021 A 
HETATM    5  C5  UNL     1      23.919  -0.098  53.334  1.00  0.00     0.004 A 
HETATM    6  C6  UNL     1      23.641   1.238  53.027  1.00  0.00     0.029 A 
HETATM    7  C7  UNL     1      24.573   2.242  53.131  1.00  0.00     0.034 A 
HETATM    8  C20 UNL     1      25.806   1.866  53.555  1.00  0.00     0.050 A 
ENDROOT
BRANCH   7   9
HETATM    9  N1  UNL     1      24.308   3.605  52.828  1.00  0.00    -0.344 N 
HETATM   10  H5  UNL     1      24.153   4.268  53.651  1.00  0.00     0.167 HD
BRANCH   9  11
HETATM   11  C8  UNL     1      24.235   4.173  51.504  1.00  0.00     0.107 A 
HETATM   12  N2  UNL     1      23.108   4.816  51.306  1.00  0.00    -0.229 NA
HETATM   13  C9  UNL     1      22.931   5.417  50.031  1.00  0.00     0.229 A 
HETATM   14  N3  UNL     1      23.858   5.288  49.198  1.00  0.00    -0.277 NA
HETATM   15  C10 UNL     1      25.094   4.643  49.266  1.00  0.00     0.116 A 
HETATM   16  C19 UNL     1      25.365   3.985  50.580  1.00  0.00     0.105 A 
BRANCH  15  17
HETATM   17  C11 UNL     1      26.264   5.553  48.868  1.00  0.00     0.032 C 
BRANCH  17  18
HETATM   18  C12 UNL     1      27.490   4.712  48.726  1.00  0.00     0.039 C 
BRANCH  18  19
HETATM   19  C13 UNL     1      28.603   5.622  48.279  1.00  0.00    -0.044 A 
HETATM   20  C14 UNL     1      29.191   6.775  47.911  1.00  0.00     0.053 A 
HETATM   21  C18 UNL     1      30.040   5.614  47.936  1.00  0.00     0.101 A 
BRANCH  20  22
HETATM   22  O1  UNL     1      29.076   8.156  47.665  1.00  0.00    -0.353 OA
BRANCH  22  23
HETATM   23  C15 UNL     1      30.103   9.033  48.040  1.00  0.00     0.201 C 
BRANCH  23  24
HETATM   24  C16 UNL     1      29.590   9.995  49.099  1.00  0.00     0.193 C 
BRANCH  24  25
HETATM   25  O2  UNL     1      30.606  10.902  49.354  1.00  0.00    -0.394 OA
HETATM   26  C17 UNL     1      31.241  11.348  48.207  1.00  0.00     0.201 C 
ENDBRANCH  24  25
ENDBRANCH  23  24
ENDBRANCH  22  23
ENDBRANCH  20  22
ENDBRANCH  18  19
ENDBRANCH  17  18
ENDBRANCH  15  17
ENDBRANCH   9  11
ENDBRANCH   7   9
TORSDOF 9
ENDMDL
MODEL 9
REMARK VINA RESULT:      -6.5      3.438      5.022
REMARK  9 active torsions:
REMARK  status: ('A' for Active; 'I' for Inactive)
REMARK    1  A    between atoms: C7_7  and  N1_8 
REMARK    2  A    between atoms: N1_8  and  C8_9 
REMARK    3  A    between atoms: C10_13  and  C11_14 
REMARK    4  A    between atoms: C11_14  and  C12_15 
REMARK    5  A    between atoms: C12_15  and  C13_16 
REMARK    6  A    between atoms: C14_17  and  O1_18 
REMARK    7  A    between atoms: O1_18  and  C15_19 
REMARK    8  A    between atoms: C15_19  and  C16_20 
REMARK    9  A    between atoms: C16_20  and  O2_21 
ROOT
HETATM    1  C1  UNL     1      18.656  -0.739  52.996  1.00  0.00     0.018 C 
HETATM    2  C2  UNL     1      19.812  -0.744  53.368  1.00  0.00    -0.078 C 
HETATM    3  C3  UNL     1      21.189  -0.755  53.784  1.00  0.00     0.019 A 
HETATM    4  C4  UNL     1      21.643  -1.479  54.865  1.00  0.00     0.021 A 
HETATM    5  C5  UNL     1      22.966  -1.471  55.242  1.00  0.00     0.004 A 
HETATM    6  C6  UNL     1      23.844  -0.692  54.481  1.00  0.00     0.029 A 
HETATM    7  C7  UNL     1      23.442   0.047  53.394  1.00  0.00     0.034 A 
HETATM    8  C20 UNL     1      22.121  -0.015  53.090  1.00  0.00     0.050 A 
ENDROOT
BRANCH   7   9
HETATM    9  N1  UNL     1      24.320   0.841  52.606  1.00  0.00    -0.344 N 
HETATM   10  H5  UNL     1      25.275   0.425  52.370  1.00  0.00     0.167 HD
BRANCH   9  11
HETATM   11  C8  UNL     1      24.030   2.157  52.093  1.00  0.00     0.107 A 
HETATM   12  N2  UNL     1      24.016   3.063  53.044  1.00  0.00    -0.229 NA
HETATM   13  C9  UNL     1      23.740   4.399  52.648  1.00  0.00     0.229 A 
HETATM   14  N3  UNL     1      23.533   4.609  51.430  1.00  0.00    -0.277 NA
HETATM   15  C10 UNL     1      23.516   3.761  50.323  1.00  0.00     0.116 A 
HETATM   16  C19 UNL     1      23.802   2.331  50.650  1.00  0.00     0.105 A 
BRANCH  15  17
HETATM   17  C11 UNL     1      24.425   4.245  49.186  1.00  0.00     0.032 C 
BRANCH  17  18
HETATM   18  C12 UNL     1      25.794   3.689  49.405  1.00  0.00     0.039 C 
BRANCH  18  19
HETATM   19  C13 UNL     1      26.776   4.737  48.953  1.00  0.00    -0.044 A 
HETATM   20  C14 UNL     1      27.963   5.244  48.572  1.00  0.00     0.053 A 
HETATM   21  C18 UNL     1      26.866   6.174  48.619  1.00  0.00     0.101 A 
BRANCH  20  22
HETATM   22  O1  UNL     1      29.328   5.033  48.309  1.00  0.00    -0.353 OA
BRANCH  22  23
HETATM   23  C15 UNL     1      30.120   6.063  47.783  1.00  0.00     0.201 C 
BRANCH  23  24
HETATM   24  C16 UNL     1      31.492   5.518  47.421  1.00  0.00     0.193 C 
BRANCH  24  25
HETATM   25  O2  UNL     1      32.161   5.273  48.610  1.00  0.00    -0.394 OA
HETATM   26  C17 UNL     1      33.526   5.488  48.524  1.00  0.00     0.201 C 
ENDBRANCH  24  25
ENDBRANCH  23  24
ENDBRANCH  22  23
ENDBRANCH  20  22
ENDBRANCH  18  19
ENDBRANCH  17  18
ENDBRANCH  15  17
ENDBRANCH   9  11
ENDBRANCH   7   9
TORSDOF 9
ENDMDL
