MODEL 1
REMARK VINA RESULT:      -8.1      0.000      0.000
REMARK  4 active torsions:
REMARK  status: ('A' for Active; 'I' for Inactive)
REMARK    1  A    between atoms: C2_4  and  N3_5 
REMARK    2  A    between atoms: N3_5  and  C3_6 
REMARK    3  A    between atoms: C11_15  and  C12_16 
REMARK    4  A    between atoms: C13_17  and  N4_18 
ROOT
HETATM    1  C1  UNL     1      23.680   5.522  51.126  1.00  0.00     0.180 C 
HETATM    2  N1  UNL     1      24.864   5.074  50.409  1.00  0.00    -0.273 N 
HETATM    3  N2  UNL     1      25.517   6.020  49.612  1.00  0.00    -0.159 NA
HETATM    4  C2  UNL     1      26.590   5.671  48.945  1.00  0.00     0.128 A 
HETATM    5  C9  UNL     1      27.202   4.321  48.950  1.00  0.00     0.110 A 
HETATM    6  C10 UNL     1      26.397   3.445  49.834  1.00  0.00     0.012 A 
HETATM    7  C11 UNL     1      25.312   3.732  50.532  1.00  0.00     0.050 A 
ENDROOT
BRANCH   7   8
HETATM    8  C12 UNL     1      24.637   2.766  51.352  1.00  0.00     0.048 C 
HETATM    9  C13 UNL     1      25.278   1.769  51.940  1.00  0.00     0.100 C 
BRANCH   9  10
HETATM   10  N4  UNL     1      24.597   0.798  52.763  1.00  0.00    -0.288 N 
HETATM   11  C14 UNL     1      24.912  -0.004  53.898  1.00  0.00     0.327 A 
HETATM   12  O1  UNL     1      25.942  -0.177  54.606  1.00  0.00    -0.247 OA
HETATM   13  N5  UNL     1      23.601  -0.553  53.940  1.00  0.00    -0.312 N 
HETATM   14  C15 UNL     1      22.551  -1.368  54.456  1.00  0.00     0.130 C 
HETATM   15  C19 UNL     1      23.279   0.234  52.764  1.00  0.00     0.200 A 
HETATM   16  C16 UNL     1      21.184  -0.806  54.365  1.00  0.00     0.020 C 
HETATM   17  C17 UNL     1      20.965   0.317  53.421  1.00  0.00     0.005 C 
HETATM   18  C18 UNL     1      22.184   1.191  53.232  1.00  0.00     0.048 C 
ENDBRANCH   9  10
ENDBRANCH   7   8
BRANCH   4  19
HETATM   19  N3  UNL     1      27.170   6.706  48.171  1.00  0.00    -0.343 N 
HETATM   20  H4  UNL     1      26.689   6.987  47.265  1.00  0.00     0.167 HD
BRANCH  19  21
HETATM   21  C3  UNL     1      28.357   7.406  48.501  1.00  0.00     0.034 A 
HETATM   22  C4  UNL     1      28.308   8.694  49.013  1.00  0.00     0.029 A 
HETATM   23  C5  UNL     1      29.423   9.425  49.348  1.00  0.00     0.004 A 
HETATM   24  C6  UNL     1      30.680   8.887  49.184  1.00  0.00     0.019 A 
HETATM   25  C7  UNL     1      30.781   7.617  48.683  1.00  0.00     0.013 A 
HETATM   26 BR1  UNL     1      32.507   6.851  48.447  1.00  0.00    -0.051 Br
HETATM   27  C8  UNL     1      29.638   6.925  48.362  1.00  0.00     0.048 A 
ENDBRANCH  19  21
ENDBRANCH   4  19
TORSDOF 4
ENDMDL
MODEL 2
REMARK VINA RESULT:      -8.1      1.615      1.988
REMARK  4 active torsions:
REMARK  status: ('A' for Active; 'I' for Inactive)
REMARK    1  A    between atoms: C2_4  and  N3_5 
REMARK    2  A    between atoms: N3_5  and  C3_6 
REMARK    3  A    between atoms: C11_15  and  C12_16 
REMARK    4  A    between atoms: C13_17  and  N4_18 
ROOT
HETATM    1  C1  UNL     1      23.787   5.886  51.196  1.00  0.00     0.180 C 
HETATM    2  N1  UNL     1      24.886   5.270  50.470  1.00  0.00    -0.273 N 
HETATM    3  N2  UNL     1      25.656   6.107  49.657  1.00  0.00    -0.159 NA
HETATM    4  C2  UNL     1      26.660   5.603  48.980  1.00  0.00     0.128 A 
HETATM    5  C9  UNL     1      27.074   4.181  48.992  1.00  0.00     0.110 A 
HETATM    6  C10 UNL     1      26.165   3.435  49.893  1.00  0.00     0.012 A 
HETATM    7  C11 UNL     1      25.141   3.879  50.601  1.00  0.00     0.050 A 
ENDROOT
BRANCH   7   8
HETATM    8  C12 UNL     1      24.346   3.024  51.438  1.00  0.00     0.048 C 
HETATM    9  C13 UNL     1      23.530   2.110  50.940  1.00  0.00     0.100 C 
BRANCH   9  10
HETATM   10  N4  UNL     1      22.732   1.253  51.784  1.00  0.00    -0.288 N 
HETATM   11  C14 UNL     1      21.505   0.537  51.671  1.00  0.00     0.327 A 
HETATM   12  O1  UNL     1      20.631   0.405  50.770  1.00  0.00    -0.247 OA
HETATM   13  N5  UNL     1      21.630   0.010  52.986  1.00  0.00    -0.312 N 
HETATM   14  C15 UNL     1      21.241  -0.770  54.114  1.00  0.00     0.130 C 
HETATM   15  C19 UNL     1      22.864   0.762  53.124  1.00  0.00     0.200 A 
HETATM   16  C16 UNL     1      22.340  -1.399  54.883  1.00  0.00     0.020 C 
HETATM   17  C17 UNL     1      23.709  -0.864  54.685  1.00  0.00     0.005 C 
HETATM   18  C18 UNL     1      23.943  -0.305  53.301  1.00  0.00     0.048 C 
ENDBRANCH   9  10
ENDBRANCH   7   8
BRANCH   4  19
HETATM   19  N3  UNL     1      27.371   6.540  48.190  1.00  0.00    -0.343 N 
HETATM   20  H4  UNL     1      26.879   6.964  47.348  1.00  0.00     0.167 HD
BRANCH  19  21
HETATM   21  C3  UNL     1      28.703   6.962  48.425  1.00  0.00     0.034 A 
HETATM   22  C4  UNL     1      28.982   8.264  48.811  1.00  0.00     0.029 A 
HETATM   23  C5  UNL     1      30.252   8.735  49.050  1.00  0.00     0.004 A 
HETATM   24  C6  UNL     1      31.338   7.900  48.908  1.00  0.00     0.019 A 
HETATM   25  C7  UNL     1      31.114   6.604  48.529  1.00  0.00     0.013 A 
HETATM   26 BR1  UNL     1      32.599   5.430  48.328  1.00  0.00    -0.051 Br
HETATM   27  C8  UNL     1      29.827   6.179  48.302  1.00  0.00     0.048 A 
ENDBRANCH  19  21
ENDBRANCH   4  19
TORSDOF 4
ENDMDL
MODEL 3
REMARK VINA RESULT:      -8.1      6.664      9.774
REMARK  4 active torsions:
REMARK  status: ('A' for Active; 'I' for Inactive)
REMARK    1  A    between atoms: C2_4  and  N3_5 
REMARK    2  A    between atoms: N3_5  and  C3_6 
REMARK    3  A    between atoms: C11_15  and  C12_16 
REMARK    4  A    between atoms: C13_17  and  N4_18 
ROOT
HETATM    1  C1  UNL     1      21.088  -0.243  54.444  1.00  0.00     0.180 C 
HETATM    2  N1  UNL     1      20.919   0.152  53.055  1.00  0.00    -0.273 N 
HETATM    3  N2  UNL     1      19.607   0.267  52.585  1.00  0.00    -0.159 NA
HETATM    4  C2  UNL     1      19.397   0.621  51.341  1.00  0.00     0.128 A 
HETATM    5  C9  UNL     1      20.451   0.923  50.345  1.00  0.00     0.110 A 
HETATM    6  C10 UNL     1      21.772   0.756  50.996  1.00  0.00     0.012 A 
HETATM    7  C11 UNL     1      22.053   0.404  52.238  1.00  0.00     0.050 A 
ENDROOT
BRANCH   7   8
HETATM    8  C12 UNL     1      23.397   0.284  52.727  1.00  0.00     0.048 C 
HETATM    9  C13 UNL     1      24.420   0.877  52.132  1.00  0.00     0.100 C 
BRANCH   9  10
HETATM   10  N4  UNL     1      25.771   0.754  52.625  1.00  0.00    -0.288 N 
HETATM   11  C14 UNL     1      26.593   1.424  53.577  1.00  0.00     0.327 A 
HETATM   12  O1  UNL     1      26.440   2.413  54.344  1.00  0.00    -0.247 OA
HETATM   13  N5  UNL     1      27.682   0.541  53.336  1.00  0.00    -0.312 N 
HETATM   14  C15 UNL     1      28.995   0.019  53.524  1.00  0.00     0.130 C 
HETATM   15  C19 UNL     1      26.865  -0.127  52.340  1.00  0.00     0.200 A 
HETATM   16  C16 UNL     1      29.136  -1.451  53.401  1.00  0.00     0.020 C 
HETATM   17  C17 UNL     1      28.046  -2.190  52.718  1.00  0.00     0.005 C 
HETATM   18  C18 UNL     1      26.689  -1.545  52.880  1.00  0.00     0.048 C 
ENDBRANCH   9  10
ENDBRANCH   7   8
BRANCH   4  19
HETATM   19  N3  UNL     1      18.031   0.707  50.971  1.00  0.00    -0.343 N 
HETATM   20  H4  UNL     1      17.651  -0.010  50.282  1.00  0.00     0.167 HD
BRANCH  19  21
HETATM   21  C3  UNL     1      17.116   1.680  51.442  1.00  0.00     0.034 A 
HETATM   22  C4  UNL     1      17.433   3.030  51.419  1.00  0.00     0.029 A 
HETATM   23  C5  UNL     1      16.591   4.020  51.865  1.00  0.00     0.004 A 
HETATM   24  C6  UNL     1      15.351   3.699  52.371  1.00  0.00     0.019 A 
HETATM   25  C7  UNL     1      14.991   2.380  52.414  1.00  0.00     0.013 A 
HETATM   26 BR1  UNL     1      13.281   1.910  53.109  1.00  0.00    -0.051 Br
HETATM   27  C8  UNL     1      15.867   1.424  51.957  1.00  0.00     0.048 A 
ENDBRANCH  19  21
ENDBRANCH   4  19
TORSDOF 4
ENDMDL
MODEL 4
REMARK VINA RESULT:      -7.9      1.867      2.291
REMARK  4 active torsions:
REMARK  status: ('A' for Active; 'I' for Inactive)
REMARK    1  A    between atoms: C2_4  and  N3_5 
REMARK    2  A    between atoms: N3_5  and  C3_6 
REMARK    3  A    between atoms: C11_15  and  C12_16 
REMARK    4  A    between atoms: C13_17  and  N4_18 
ROOT
HETATM    1  C1  UNL     1      24.370   6.040  49.879  1.00  0.00     0.180 C 
HETATM    2  N1  UNL     1      25.693   5.779  49.334  1.00  0.00    -0.273 N 
HETATM    3  N2  UNL     1      26.321   6.833  48.663  1.00  0.00    -0.159 NA
HETATM    4  C2  UNL     1      27.514   6.653  48.152  1.00  0.00     0.128 A 
HETATM    5  C9  UNL     1      28.294   5.394  48.217  1.00  0.00     0.110 A 
HETATM    6  C10 UNL     1      27.496   4.386  48.954  1.00  0.00     0.012 A 
HETATM    7  C11 UNL     1      26.294   4.502  49.492  1.00  0.00     0.050 A 
ENDROOT
BRANCH   7   8
HETATM    8  C12 UNL     1      25.645   3.423  50.182  1.00  0.00     0.048 C 
HETATM    9  C13 UNL     1      26.221   2.776  51.181  1.00  0.00     0.100 C 
BRANCH   9  10
HETATM   10  N4  UNL     1      25.567   1.692  51.873  1.00  0.00    -0.288 N 
HETATM   11  C14 UNL     1      25.951   0.645  52.761  1.00  0.00     0.327 A 
HETATM   12  O1  UNL     1      27.042   0.262  53.265  1.00  0.00    -0.247 OA
HETATM   13  N5  UNL     1      24.612   0.178  52.874  1.00  0.00    -0.312 N 
HETATM   14  C15 UNL     1      23.568  -0.666  53.354  1.00  0.00     0.130 C 
HETATM   15  C19 UNL     1      24.215   1.219  51.944  1.00  0.00     0.200 A 
HETATM   16  C16 UNL     1      22.255  -0.017  53.576  1.00  0.00     0.020 C 
HETATM   17  C17 UNL     1      22.019   1.295  52.926  1.00  0.00     0.005 C 
HETATM   18  C18 UNL     1      23.276   2.115  52.751  1.00  0.00     0.048 C 
ENDBRANCH   9  10
ENDBRANCH   7   8
BRANCH   4  19
HETATM   19  N3  UNL     1      28.056   7.785  47.495  1.00  0.00    -0.343 N 
HETATM   20  H4  UNL     1      27.863   7.903  46.456  1.00  0.00     0.167 HD
BRANCH  19  21
HETATM   21  C3  UNL     1      28.847   8.786  48.110  1.00  0.00     0.034 A 
HETATM   22  C4  UNL     1      30.065   8.476  48.696  1.00  0.00     0.029 A 
HETATM   23  C5  UNL     1      30.875   9.401  49.311  1.00  0.00     0.004 A 
HETATM   24  C6  UNL     1      30.495  10.723  49.372  1.00  0.00     0.019 A 
HETATM   25  C7  UNL     1      29.300  11.080  48.807  1.00  0.00     0.013 A 
HETATM   26 BR1  UNL     1      28.752  12.902  48.878  1.00  0.00    -0.051 Br
HETATM   27  C8  UNL     1      28.524  10.120  48.203  1.00  0.00     0.048 A 
ENDBRANCH  19  21
ENDBRANCH   4  19
TORSDOF 4
ENDMDL
MODEL 5
REMARK VINA RESULT:      -7.9      3.576      9.746
REMARK  4 active torsions:
REMARK  status: ('A' for Active; 'I' for Inactive)
REMARK    1  A    between atoms: C2_4  and  N3_5 
REMARK    2  A    between atoms: N3_5  and  C3_6 
REMARK    3  A    between atoms: C11_15  and  C12_16 
REMARK    4  A    between atoms: C13_17  and  N4_18 
ROOT
HETATM    1  C1  UNL     1      25.081   7.079  50.322  1.00  0.00     0.180 C 
HETATM    2  N1  UNL     1      25.582   5.747  50.024  1.00  0.00    -0.273 N 
HETATM    3  N2  UNL     1      24.917   4.672  50.621  1.00  0.00    -0.159 NA
HETATM    4  C2  UNL     1      25.327   3.449  50.386  1.00  0.00     0.128 A 
HETATM    5  C9  UNL     1      26.469   3.079  49.518  1.00  0.00     0.110 A 
HETATM    6  C10 UNL     1      27.060   4.322  48.967  1.00  0.00     0.012 A 
HETATM    7  C11 UNL     1      26.698   5.577  49.162  1.00  0.00     0.050 A 
ENDROOT
BRANCH   7   8
HETATM    8  C12 UNL     1      27.377   6.685  48.551  1.00  0.00     0.048 C 
HETATM    9  C13 UNL     1      28.658   6.635  48.225  1.00  0.00     0.100 C 
BRANCH   9  10
HETATM   10  N4  UNL     1      29.338   7.751  47.612  1.00  0.00    -0.288 N 
HETATM   11  C14 UNL     1      29.401   8.344  46.318  1.00  0.00     0.327 A 
HETATM   12  O1  UNL     1      28.884   8.088  45.195  1.00  0.00    -0.247 OA
HETATM   13  N5  UNL     1      30.288   9.361  46.769  1.00  0.00    -0.312 N 
HETATM   14  C15 UNL     1      31.098  10.527  46.640  1.00  0.00     0.130 C 
HETATM   15  C19 UNL     1      30.257   8.745  48.083  1.00  0.00     0.200 A 
HETATM   16  C16 UNL     1      31.137  11.427  47.816  1.00  0.00     0.020 C 
HETATM   17  C17 UNL     1      30.690  10.875  49.118  1.00  0.00     0.005 C 
HETATM   18  C18 UNL     1      29.630   9.805  48.987  1.00  0.00     0.048 C 
ENDBRANCH   9  10
ENDBRANCH   7   8
BRANCH   4  19
HETATM   19  N3  UNL     1      24.582   2.438  51.042  1.00  0.00    -0.343 N 
HETATM   20  H4  UNL     1      23.547   2.348  50.815  1.00  0.00     0.167 HD
BRANCH  19  21
HETATM   21  C3  UNL     1      25.103   1.525  51.992  1.00  0.00     0.034 A 
HETATM   22  C4  UNL     1      24.275   0.637  52.660  1.00  0.00     0.029 A 
HETATM   23  C5  UNL     1      24.719  -0.268  53.594  1.00  0.00     0.004 A 
HETATM   24  C6  UNL     1      26.057  -0.332  53.915  1.00  0.00     0.019 A 
HETATM   25  C7  UNL     1      26.917   0.524  53.281  1.00  0.00     0.013 A 
HETATM   26 BR1  UNL     1      28.772   0.455  53.706  1.00  0.00    -0.051 Br
HETATM   27  C8  UNL     1      26.426   1.412  52.354  1.00  0.00     0.048 A 
ENDBRANCH  19  21
ENDBRANCH   4  19
TORSDOF 4
ENDMDL
MODEL 6
REMARK VINA RESULT:      -7.9      4.035      9.954
REMARK  4 active torsions:
REMARK  status: ('A' for Active; 'I' for Inactive)
REMARK    1  A    between atoms: C2_4  and  N3_5 
REMARK    2  A    between atoms: N3_5  and  C3_6 
REMARK    3  A    between atoms: C11_15  and  C12_16 
REMARK    4  A    between atoms: C13_17  and  N4_18 
ROOT
HETATM    1  C1  UNL     1      23.847   6.973  51.142  1.00  0.00     0.180 C 
HETATM    2  N1  UNL     1      24.493   5.813  50.549  1.00  0.00    -0.273 N 
HETATM    3  N2  UNL     1      23.890   4.571  50.770  1.00  0.00    -0.159 NA
HETATM    4  C2  UNL     1      24.430   3.492  50.259  1.00  0.00     0.128 A 
HETATM    5  C9  UNL     1      25.664   3.457  49.439  1.00  0.00     0.110 A 
HETATM    6  C10 UNL     1      26.174   4.841  49.300  1.00  0.00     0.012 A 
HETATM    7  C11 UNL     1      25.681   5.966  49.787  1.00  0.00     0.050 A 
ENDROOT
BRANCH   7   8
HETATM    8  C12 UNL     1      26.296   7.244  49.563  1.00  0.00     0.048 C 
HETATM    9  C13 UNL     1      27.399   7.381  48.846  1.00  0.00     0.100 C 
BRANCH   9  10
HETATM   10  N4  UNL     1      28.015   8.667  48.624  1.00  0.00    -0.288 N 
HETATM   11  C14 UNL     1      27.691  10.032  48.879  1.00  0.00     0.327 A 
HETATM   12  O1  UNL     1      26.706  10.632  49.389  1.00  0.00    -0.247 OA
HETATM   13  N5  UNL     1      28.923  10.482  48.330  1.00  0.00    -0.312 N 
HETATM   14  C15 UNL     1      29.901  11.450  47.955  1.00  0.00     0.130 C 
HETATM   15  C19 UNL     1      29.249   9.099  48.035  1.00  0.00     0.200 A 
HETATM   16  C16 UNL     1      31.317  11.037  48.098  1.00  0.00     0.020 C 
HETATM   17  C17 UNL     1      31.599   9.586  48.217  1.00  0.00     0.005 C 
HETATM   18  C18 UNL     1      30.487   8.809  48.882  1.00  0.00     0.048 C 
ENDBRANCH   9  10
ENDBRANCH   7   8
BRANCH   4  19
HETATM   19  N3  UNL     1      23.738   2.289  50.544  1.00  0.00    -0.343 N 
HETATM   20  H4  UNL     1      22.956   1.992  49.888  1.00  0.00     0.167 HD
BRANCH  19  21
HETATM   21  C3  UNL     1      23.998   1.439  51.647  1.00  0.00     0.034 A 
HETATM   22  C4  UNL     1      25.297   1.131  52.022  1.00  0.00     0.029 A 
HETATM   23  C5  UNL     1      25.614   0.310  53.078  1.00  0.00     0.004 A 
HETATM   24  C6  UNL     1      24.615  -0.261  53.836  1.00  0.00     0.019 A 
HETATM   25  C7  UNL     1      23.315   0.014  53.506  1.00  0.00     0.013 A 
HETATM   26 BR1  UNL     1      21.916  -0.762  54.539  1.00  0.00    -0.051 Br
HETATM   27  C8  UNL     1      23.048   0.841  52.441  1.00  0.00     0.048 A 
ENDBRANCH  19  21
ENDBRANCH   4  19
TORSDOF 4
ENDMDL
MODEL 7
REMARK VINA RESULT:      -7.7      4.565      9.707
REMARK  4 active torsions:
REMARK  status: ('A' for Active; 'I' for Inactive)
REMARK    1  A    between atoms: C2_4  and  N3_5 
REMARK    2  A    between atoms: N3_5  and  C3_6 
REMARK    3  A    between atoms: C11_15  and  C12_16 
REMARK    4  A    between atoms: C13_17  and  N4_18 
ROOT
HETATM    1  C1  UNL     1      26.210   7.795  47.917  1.00  0.00     0.180 C 
HETATM    2  N1  UNL     1      26.046   6.454  48.455  1.00  0.00    -0.273 N 
HETATM    3  N2  UNL     1      24.748   6.064  48.798  1.00  0.00    -0.159 NA
HETATM    4  C2  UNL     1      24.542   4.865  49.287  1.00  0.00     0.128 A 
HETATM    5  C9  UNL     1      25.590   3.844  49.522  1.00  0.00     0.110 A 
HETATM    6  C10 UNL     1      26.896   4.409  49.111  1.00  0.00     0.012 A 
HETATM    7  C11 UNL     1      27.171   5.602  48.614  1.00  0.00     0.050 A 
ENDROOT
BRANCH   7   8
HETATM    8  C12 UNL     1      28.502   6.008  48.260  1.00  0.00     0.048 C 
HETATM    9  C13 UNL     1      29.517   5.160  48.237  1.00  0.00     0.100 C 
BRANCH   9  10
HETATM   10  N4  UNL     1      30.854   5.571  47.882  1.00  0.00    -0.288 N 
HETATM   11  C14 UNL     1      31.712   6.671  48.170  1.00  0.00     0.327 A 
HETATM   12  O1  UNL     1      31.604   7.731  48.846  1.00  0.00    -0.247 OA
HETATM   13  N5  UNL     1      32.768   6.119  47.393  1.00  0.00    -0.312 N 
HETATM   14  C15 UNL     1      34.076   6.073  46.827  1.00  0.00     0.130 C 
HETATM   15  C19 UNL     1      31.891   5.010  47.066  1.00  0.00     0.200 A 
HETATM   16  C16 UNL     1      34.689   4.730  46.710  1.00  0.00     0.020 C 
HETATM   17  C17 UNL     1      33.789   3.554  46.798  1.00  0.00     0.005 C 
HETATM   18  C18 UNL     1      32.578   3.788  47.672  1.00  0.00     0.048 C 
ENDBRANCH   9  10
ENDBRANCH   7   8
BRANCH   4  19
HETATM   19  N3  UNL     1      23.191   4.575  49.599  1.00  0.00    -0.343 N 
HETATM   20  H4  UNL     1      22.546   5.385  49.842  1.00  0.00     0.167 HD
BRANCH  19  21
HETATM   21  C3  UNL     1      22.617   3.280  49.621  1.00  0.00     0.034 A 
HETATM   22  C4  UNL     1      22.102   2.706  48.469  1.00  0.00     0.029 A 
HETATM   23  C5  UNL     1      21.529   1.457  48.427  1.00  0.00     0.004 A 
HETATM   24  C6  UNL     1      21.442   0.697  49.572  1.00  0.00     0.019 A 
HETATM   25  C7  UNL     1      21.938   1.219  50.736  1.00  0.00     0.013 A 
HETATM   26 BR1  UNL     1      21.830   0.187  52.332  1.00  0.00    -0.051 Br
HETATM   27  C8  UNL     1      22.501   2.472  50.729  1.00  0.00     0.048 A 
ENDBRANCH  19  21
ENDBRANCH   4  19
TORSDOF 4
ENDMDL
MODEL 8
REMARK VINA RESULT:      -7.7      6.338     10.354
REMARK  4 active torsions:
REMARK  status: ('A' for Active; 'I' for Inactive)
REMARK    1  A    between atoms: C2_4  and  N3_5 
REMARK    2  A    between atoms: N3_5  and  C3_6 
REMARK    3  A    between atoms: C11_15  and  C12_16 
REMARK    4  A    between atoms: C13_17  and  N4_18 
ROOT
HETATM    1  C1  UNL     1      20.845  -1.043  54.131  1.00  0.00     0.180 C 
HETATM    2  N1  UNL     1      20.848  -0.305  52.878  1.00  0.00    -0.273 N 
HETATM    3  N2  UNL     1      19.611  -0.108  52.256  1.00  0.00    -0.159 NA
HETATM    4  C2  UNL     1      19.555   0.552  51.125  1.00  0.00     0.128 A 
HETATM    5  C9  UNL     1      20.718   1.130  50.411  1.00  0.00     0.110 A 
HETATM    6  C10 UNL     1      21.941   0.836  51.194  1.00  0.00     0.012 A 
HETATM    7  C11 UNL     1      22.067   0.181  52.335  1.00  0.00     0.050 A 
ENDROOT
BRANCH   7   8
HETATM    8  C12 UNL     1      23.334  -0.024  52.977  1.00  0.00     0.048 C 
HETATM    9  C13 UNL     1      24.462   0.457  52.483  1.00  0.00     0.100 C 
BRANCH   9  10
HETATM   10  N4  UNL     1      25.735   0.248  53.130  1.00  0.00    -0.288 N 
HETATM   11  C14 UNL     1      26.584  -0.860  53.419  1.00  0.00     0.327 A 
HETATM   12  O1  UNL     1      26.517  -2.106  53.226  1.00  0.00    -0.247 OA
HETATM   13  N5  UNL     1      27.561  -0.023  54.023  1.00  0.00    -0.312 N 
HETATM   14  C15 UNL     1      28.796   0.271  54.673  1.00  0.00     0.130 C 
HETATM   15  C19 UNL     1      26.690   1.109  53.764  1.00  0.00     0.200 A 
HETATM   16  C16 UNL     1      29.437   1.555  54.305  1.00  0.00     0.020 C 
HETATM   17  C17 UNL     1      28.593   2.578  53.640  1.00  0.00     0.005 C 
HETATM   18  C18 UNL     1      27.483   1.989  52.799  1.00  0.00     0.048 C 
ENDBRANCH   9  10
ENDBRANCH   7   8
BRANCH   4  19
HETATM   19  N3  UNL     1      18.253   0.692  50.584  1.00  0.00    -0.343 N 
HETATM   20  H4  UNL     1      18.159   1.065  49.592  1.00  0.00     0.167 HD
BRANCH  19  21
HETATM   21  C3  UNL     1      17.049   0.380  51.261  1.00  0.00     0.034 A 
HETATM   22  C4  UNL     1      16.257   1.377  51.809  1.00  0.00     0.029 A 
HETATM   23  C5  UNL     1      15.081   1.137  52.480  1.00  0.00     0.004 A 
HETATM   24  C6  UNL     1      14.626  -0.153  52.641  1.00  0.00     0.019 A 
HETATM   25  C7  UNL     1      15.372  -1.173  52.116  1.00  0.00     0.013 A 
HETATM   26 BR1  UNL     1      14.764  -2.965  52.324  1.00  0.00    -0.051 Br
HETATM   27  C8  UNL     1      16.541  -0.884  51.453  1.00  0.00     0.048 A 
ENDBRANCH  19  21
ENDBRANCH   4  19
TORSDOF 4
ENDMDL
MODEL 9
REMARK VINA RESULT:      -7.6      7.207     11.778
REMARK  4 active torsions:
REMARK  status: ('A' for Active; 'I' for Inactive)
REMARK    1  A    between atoms: C2_4  and  N3_5 
REMARK    2  A    between atoms: N3_5  and  C3_6 
REMARK    3  A    between atoms: C11_15  and  C12_16 
REMARK    4  A    between atoms: C13_17  and  N4_18 
ROOT
HETATM    1  C1  UNL     1      17.521  -1.296  53.025  1.00  0.00     0.180 C 
HETATM    2  N1  UNL     1      17.267  -0.007  52.402  1.00  0.00    -0.273 N 
HETATM    3  N2  UNL     1      15.929   0.375  52.262  1.00  0.00    -0.159 NA
HETATM    4  C2  UNL     1      15.642   1.527  51.707  1.00  0.00     0.128 A 
HETATM    5  C9  UNL     1      16.633   2.502  51.194  1.00  0.00     0.110 A 
HETATM    6  C10 UNL     1      17.991   1.951  51.416  1.00  0.00     0.012 A 
HETATM    7  C11 UNL     1      18.347   0.804  51.966  1.00  0.00     0.050 A 
ENDROOT
BRANCH   7   8
HETATM    8  C12 UNL     1      19.719   0.406  52.112  1.00  0.00     0.048 C 
HETATM    9  C13 UNL     1      20.493   0.881  53.074  1.00  0.00     0.100 C 
BRANCH   9  10
HETATM   10  N4  UNL     1      21.872   0.481  53.219  1.00  0.00    -0.288 N 
HETATM   11  C14 UNL     1      22.576  -0.704  53.584  1.00  0.00     0.327 A 
HETATM   12  O1  UNL     1      22.237  -1.864  53.946  1.00  0.00    -0.247 OA
HETATM   13  N5  UNL     1      23.837  -0.078  53.385  1.00  0.00    -0.312 N 
HETATM   14  C15 UNL     1      25.261  -0.012  53.345  1.00  0.00     0.130 C 
HETATM   15  C19 UNL     1      23.131   1.143  53.044  1.00  0.00     0.200 A 
HETATM   16  C16 UNL     1      25.845   0.840  52.282  1.00  0.00     0.020 C 
HETATM   17  C17 UNL     1      24.956   1.835  51.635  1.00  0.00     0.005 C 
HETATM   18  C18 UNL     1      23.507   1.407  51.587  1.00  0.00     0.048 C 
ENDBRANCH   9  10
ENDBRANCH   7   8
BRANCH   4  19
HETATM   19  N3  UNL     1      14.257   1.813  51.616  1.00  0.00    -0.343 N 
HETATM   20  H4  UNL     1      13.743   1.531  50.728  1.00  0.00     0.167 HD
BRANCH  19  21
HETATM   21  C3  UNL     1      13.488   2.456  52.616  1.00  0.00     0.034 A 
HETATM   22  C4  UNL     1      13.433   3.839  52.698  1.00  0.00     0.029 A 
HETATM   23  C5  UNL     1      12.709   4.520  53.647  1.00  0.00     0.004 A 
HETATM   24  C6  UNL     1      11.981   3.830  54.591  1.00  0.00     0.019 A 
HETATM   25  C7  UNL     1      12.002   2.462  54.552  1.00  0.00     0.013 A 
HETATM   26 BR1  UNL     1      11.004   1.484  55.845  1.00  0.00    -0.051 Br
HETATM   27  C8  UNL     1      12.741   1.825  53.584  1.00  0.00     0.048 A 
ENDBRANCH  19  21
ENDBRANCH   4  19
TORSDOF 4
ENDMDL
