MODEL 1
REMARK VINA RESULT:      -8.3      0.000      0.000
REMARK  3 active torsions:
REMARK  status: ('A' for Active; 'I' for Inactive)
REMARK       I    between atoms: N1_1  and  C1_2 
REMARK       I    between atoms: C1_2  and  N2_4 
REMARK    1  A    between atoms: N2_4  and  C2_5 
REMARK    2  A    between atoms: C7_12  and  C8_13 
REMARK    3  A    between atoms: C8_13  and  C9_14 
ROOT
HETATM    1  C2  UNL     1      20.033   0.825  51.824  1.00  0.00     0.036 A 
HETATM    2  C3  UNL     1      19.227  -0.067  52.458  1.00  0.00     0.032 A 
HETATM    3  C4  UNL     1      19.626  -0.922  53.468  1.00  0.00     0.035 A 
HETATM    4  C5  UNL     1      20.942  -0.895  53.892  1.00  0.00     0.070 A 
HETATM    5  N3  UNL     1      21.421  -1.682  54.860  1.00  0.00    -0.241 NA
HETATM    6  C6  UNL     1      22.713  -1.620  55.240  1.00  0.00     0.234 A 
HETATM    7  N4  UNL     1      23.520  -0.741  54.619  1.00  0.00    -0.245 NA
HETATM    8  C7  UNL     1      23.113   0.084  53.637  1.00  0.00     0.052 A 
HETATM    9  C15 UNL     1      21.787  -0.001  53.269  1.00  0.00     0.020 A 
HETATM   10  C16 UNL     1      21.341   0.832  52.265  1.00  0.00     0.045 A 
ENDROOT
BRANCH   8  11
HETATM   11  C8  UNL     1      24.052   1.025  53.001  1.00  0.00     0.099 C 
BRANCH  11  12
HETATM   12  C9  UNL     1      25.432   0.490  53.109  1.00  0.00    -0.052 A 
HETATM   13  C10 UNL     1      26.336   1.175  53.905  1.00  0.00     0.009 A 
HETATM   14  C11 UNL     1      27.649   0.755  54.071  1.00  0.00     0.019 A 
HETATM   15  C12 UNL     1      28.071  -0.388  53.417  1.00  0.00     0.011 A 
HETATM   16 BR1  UNL     1      29.887  -0.884  53.705  1.00  0.00    -0.051 Br
HETATM   17  C13 UNL     1      27.179  -1.084  52.617  1.00  0.00     0.019 A 
HETATM   18  C14 UNL     1      25.903  -0.628  52.491  1.00  0.00     0.009 A 
ENDBRANCH  11  12
ENDBRANCH   8  11
BRANCH   1  19
HETATM   19  N2  UNL     1      19.685   1.706  50.807  1.00  0.00    -0.314 N 
HETATM   20  C1  UNL     1      19.177   3.023  50.895  1.00  0.00     0.296 C 
HETATM   21  N1  UNL     1      18.841   3.869  49.809  1.00  0.00    -0.254 NA
HETATM   22  O1  UNL     1      18.989   3.533  52.019  1.00  0.00    -0.254 OA
HETATM   23  H1  UNL     1      17.959   3.444  49.438  1.00  0.00     0.128 HD
HETATM   24  H2  UNL     1      17.960   3.484  49.401  1.00  0.00     0.128 HD
HETATM   25  H3  UNL     1      19.781   1.438  49.794  1.00  0.00     0.170 HD
ENDBRANCH   1  19
TORSDOF 3
ENDMDL
MODEL 2
REMARK VINA RESULT:      -8.3      3.978      6.163
REMARK  3 active torsions:
REMARK  status: ('A' for Active; 'I' for Inactive)
REMARK       I    between atoms: N1_1  and  C1_2 
REMARK       I    between atoms: C1_2  and  N2_4 
REMARK    1  A    between atoms: N2_4  and  C2_5 
REMARK    2  A    between atoms: C7_12  and  C8_13 
REMARK    3  A    between atoms: C8_13  and  C9_14 
ROOT
HETATM    1  C2  UNL     1      24.475  -0.684  54.354  1.00  0.00     0.036 A 
HETATM    2  C3  UNL     1      23.481  -1.103  55.180  1.00  0.00     0.032 A 
HETATM    3  C4  UNL     1      22.134  -0.864  54.987  1.00  0.00     0.035 A 
HETATM    4  C5  UNL     1      21.729  -0.145  53.878  1.00  0.00     0.070 A 
HETATM    5  N3  UNL     1      20.451   0.136  53.607  1.00  0.00    -0.241 NA
HETATM    6  C6  UNL     1      20.104   0.842  52.512  1.00  0.00     0.234 A 
HETATM    7  N4  UNL     1      21.081   1.262  51.687  1.00  0.00    -0.245 NA
HETATM    8  C7  UNL     1      22.388   1.019  51.891  1.00  0.00     0.052 A 
HETATM    9  C15 UNL     1      22.713   0.296  53.018  1.00  0.00     0.020 A 
HETATM   10  C16 UNL     1      24.046   0.031  53.254  1.00  0.00     0.045 A 
ENDROOT
BRANCH   8  11
HETATM   11  C8  UNL     1      23.406   1.508  50.944  1.00  0.00     0.099 C 
BRANCH  11  12
HETATM   12  C9  UNL     1      23.457   2.990  51.001  1.00  0.00    -0.052 A 
HETATM   13  C10 UNL     1      23.527   3.687  49.805  1.00  0.00     0.009 A 
HETATM   14  C11 UNL     1      23.578   5.074  49.754  1.00  0.00     0.019 A 
HETATM   15  C12 UNL     1      23.560   5.786  50.939  1.00  0.00     0.011 A 
HETATM   16 BR1  UNL     1      23.634   7.682  50.766  1.00  0.00    -0.051 Br
HETATM   17  C13 UNL     1      23.491   5.105  52.143  1.00  0.00     0.019 A 
HETATM   18  C14 UNL     1      23.441   3.745  52.135  1.00  0.00     0.009 A 
ENDBRANCH  11  12
ENDBRANCH   8  11
BRANCH   1  19
HETATM   19  N2  UNL     1      25.841  -0.896  54.498  1.00  0.00    -0.314 N 
HETATM   20  C1  UNL     1      26.870   0.035  54.773  1.00  0.00     0.296 C 
HETATM   21  N1  UNL     1      28.251  -0.253  54.907  1.00  0.00    -0.254 NA
HETATM   22  O1  UNL     1      26.581   1.240  54.922  1.00  0.00    -0.254 OA
HETATM   23  H1  UNL     1      28.551  -0.448  53.923  1.00  0.00     0.128 HD
HETATM   24  H2  UNL     1      28.600  -0.456  53.944  1.00  0.00     0.128 HD
HETATM   25  H3  UNL     1      26.259  -1.857  54.405  1.00  0.00     0.170 HD
ENDBRANCH   1  19
TORSDOF 3
ENDMDL
MODEL 3
REMARK VINA RESULT:      -8.3      2.719      4.359
REMARK  3 active torsions:
REMARK  status: ('A' for Active; 'I' for Inactive)
REMARK       I    between atoms: N1_1  and  C1_2 
REMARK       I    between atoms: C1_2  and  N2_4 
REMARK    1  A    between atoms: N2_4  and  C2_5 
REMARK    2  A    between atoms: C7_12  and  C8_13 
REMARK    3  A    between atoms: C8_13  and  C9_14 
ROOT
HETATM    1  C2  UNL     1      21.565   0.589  51.865  1.00  0.00     0.036 A 
HETATM    2  C3  UNL     1      21.218   0.699  50.556  1.00  0.00     0.032 A 
HETATM    3  C4  UNL     1      21.895   1.451  49.615  1.00  0.00     0.035 A 
HETATM    4  C5  UNL     1      23.017   2.161  50.000  1.00  0.00     0.070 A 
HETATM    5  N3  UNL     1      23.736   2.915  49.163  1.00  0.00    -0.241 NA
HETATM    6  C6  UNL     1      24.824   3.590  49.584  1.00  0.00     0.234 A 
HETATM    7  N4  UNL     1      25.177   3.488  50.879  1.00  0.00    -0.245 NA
HETATM    8  C7  UNL     1      24.505   2.750  51.782  1.00  0.00     0.052 A 
HETATM    9  C15 UNL     1      23.397   2.071  51.323  1.00  0.00     0.020 A 
HETATM   10  C16 UNL     1      22.689   1.306  52.225  1.00  0.00     0.045 A 
ENDROOT
BRANCH   8  11
HETATM   11  C8  UNL     1      24.949   2.683  53.186  1.00  0.00     0.099 C 
BRANCH  11  12
HETATM   12  C9  UNL     1      26.168   1.841  53.275  1.00  0.00    -0.052 A 
HETATM   13  C10 UNL     1      26.015   0.464  53.225  1.00  0.00     0.009 A 
HETATM   14  C11 UNL     1      27.093  -0.408  53.301  1.00  0.00     0.019 A 
HETATM   15  C12 UNL     1      28.366   0.116  53.431  1.00  0.00     0.011 A 
HETATM   16 BR1  UNL     1      29.779  -1.158  53.527  1.00  0.00    -0.051 Br
HETATM   17  C13 UNL     1      28.536   1.489  53.483  1.00  0.00     0.019 A 
HETATM   18  C14 UNL     1      27.444   2.298  53.403  1.00  0.00     0.009 A 
ENDBRANCH  11  12
ENDBRANCH   8  11
BRANCH   1  19
HETATM   19  N2  UNL     1      20.924  -0.152  52.851  1.00  0.00    -0.314 N 
HETATM   20  C1  UNL     1      21.468  -1.070  53.779  1.00  0.00     0.296 C 
HETATM   21  N1  UNL     1      20.750  -1.795  54.763  1.00  0.00    -0.254 NA
HETATM   22  O1  UNL     1      22.695  -1.298  53.769  1.00  0.00    -0.254 OA
HETATM   23  H1  UNL     1      20.232  -2.511  54.202  1.00  0.00     0.128 HD
HETATM   24  H2  UNL     1      20.212  -2.528  54.250  1.00  0.00     0.128 HD
HETATM   25  H3  UNL     1      19.885  -0.082  53.000  1.00  0.00     0.170 HD
ENDBRANCH   1  19
TORSDOF 3
ENDMDL
MODEL 4
REMARK VINA RESULT:      -8.3      4.165      5.162
REMARK  3 active torsions:
REMARK  status: ('A' for Active; 'I' for Inactive)
REMARK       I    between atoms: N1_1  and  C1_2 
REMARK       I    between atoms: C1_2  and  N2_4 
REMARK    1  A    between atoms: N2_4  and  C2_5 
REMARK    2  A    between atoms: C7_12  and  C8_13 
REMARK    3  A    between atoms: C8_13  and  C9_14 
ROOT
HETATM    1  C2  UNL     1      24.973   4.942  49.947  1.00  0.00     0.036 A 
HETATM    2  C3  UNL     1      24.235   4.695  48.834  1.00  0.00     0.032 A 
HETATM    3  C4  UNL     1      23.313   3.674  48.703  1.00  0.00     0.035 A 
HETATM    4  C5  UNL     1      23.099   2.818  49.766  1.00  0.00     0.070 A 
HETATM    5  N3  UNL     1      22.229   1.804  49.734  1.00  0.00    -0.241 NA
HETATM    6  C6  UNL     1      22.055   0.994  50.797  1.00  0.00     0.234 A 
HETATM    7  N4  UNL     1      22.782   1.229  51.905  1.00  0.00    -0.245 NA
HETATM    8  C7  UNL     1      23.676   2.229  52.015  1.00  0.00     0.052 A 
HETATM    9  C15 UNL     1      23.833   3.040  50.912  1.00  0.00     0.020 A 
HETATM   10  C16 UNL     1      24.742   4.073  50.996  1.00  0.00     0.045 A 
ENDROOT
BRANCH   8  11
HETATM   11  C8  UNL     1      24.437   2.430  53.261  1.00  0.00     0.099 C 
BRANCH  11  12
HETATM   12  C9  UNL     1      25.596   1.503  53.283  1.00  0.00    -0.052 A 
HETATM   13  C10 UNL     1      26.852   2.035  53.530  1.00  0.00     0.009 A 
HETATM   14  C11 UNL     1      27.998   1.251  53.571  1.00  0.00     0.019 A 
HETATM   15  C12 UNL     1      27.881  -0.110  53.357  1.00  0.00     0.011 A 
HETATM   16 BR1  UNL     1      29.507  -1.100  53.433  1.00  0.00    -0.051 Br
HETATM   17  C13 UNL     1      26.634  -0.657  53.108  1.00  0.00     0.019 A 
HETATM   18  C14 UNL     1      25.544   0.158  53.081  1.00  0.00     0.009 A 
ENDBRANCH  11  12
ENDBRANCH   8  11
BRANCH   1  19
HETATM   19  N2  UNL     1      25.911   5.951  50.135  1.00  0.00    -0.314 N 
HETATM   20  C1  UNL     1      25.709   7.328  50.386  1.00  0.00     0.296 C 
HETATM   21  N1  UNL     1      26.718   8.307  50.567  1.00  0.00    -0.254 NA
HETATM   22  O1  UNL     1      24.545   7.772  50.465  1.00  0.00    -0.254 OA
HETATM   23  H1  UNL     1      27.103   8.435  49.602  1.00  0.00     0.128 HD
HETATM   24  H2  UNL     1      27.137   8.471  49.625  1.00  0.00     0.128 HD
HETATM   25  H3  UNL     1      26.944   5.753  50.100  1.00  0.00     0.170 HD
ENDBRANCH   1  19
TORSDOF 3
ENDMDL
MODEL 5
REMARK VINA RESULT:      -8.1      4.185      7.560
REMARK  3 active torsions:
REMARK  status: ('A' for Active; 'I' for Inactive)
REMARK       I    between atoms: N1_1  and  C1_2 
REMARK       I    between atoms: C1_2  and  N2_4 
REMARK    1  A    between atoms: N2_4  and  C2_5 
REMARK    2  A    between atoms: C7_12  and  C8_13 
REMARK    3  A    between atoms: C8_13  and  C9_14 
ROOT
HETATM    1  C2  UNL     1      27.019   0.107  53.024  1.00  0.00     0.036 A 
HETATM    2  C3  UNL     1      27.530   1.289  52.590  1.00  0.00     0.032 A 
HETATM    3  C4  UNL     1      26.783   2.406  52.264  1.00  0.00     0.035 A 
HETATM    4  C5  UNL     1      25.407   2.352  52.378  1.00  0.00     0.070 A 
HETATM    5  N3  UNL     1      24.602   3.379  52.087  1.00  0.00    -0.241 NA
HETATM    6  C6  UNL     1      23.263   3.279  52.214  1.00  0.00     0.234 A 
HETATM    7  N4  UNL     1      22.747   2.113  52.643  1.00  0.00    -0.245 NA
HETATM    8  C7  UNL     1      23.490   1.036  52.956  1.00  0.00     0.052 A 
HETATM    9  C15 UNL     1      24.855   1.166  52.817  1.00  0.00     0.020 A 
HETATM   10  C16 UNL     1      25.643   0.079  53.129  1.00  0.00     0.045 A 
ENDROOT
BRANCH   8  11
HETATM   11  C8  UNL     1      22.858  -0.211  53.422  1.00  0.00     0.099 C 
BRANCH  11  12
HETATM   12  C9  UNL     1      21.444  -0.242  52.974  1.00  0.00    -0.052 A 
HETATM   13  C10 UNL     1      21.161   0.157  51.677  1.00  0.00     0.009 A 
HETATM   14  C11 UNL     1      19.871   0.164  51.164  1.00  0.00     0.019 A 
HETATM   15  C12 UNL     1      18.829  -0.243  51.978  1.00  0.00     0.011 A 
HETATM   16 BR1  UNL     1      17.097  -0.199  51.185  1.00  0.00    -0.051 Br
HETATM   17  C13 UNL     1      19.094  -0.644  53.276  1.00  0.00     0.019 A 
HETATM   18  C14 UNL     1      20.378  -0.632  53.727  1.00  0.00     0.009 A 
ENDBRANCH  11  12
ENDBRANCH   8  11
BRANCH   1  19
HETATM   19  N2  UNL     1      27.721  -1.043  53.365  1.00  0.00    -0.314 N 
HETATM   20  C1  UNL     1      27.675  -2.329  52.777  1.00  0.00     0.296 C 
HETATM   21  N1  UNL     1      28.423  -3.464  53.179  1.00  0.00    -0.254 NA
HETATM   22  O1  UNL     1      26.918  -2.532  51.806  1.00  0.00    -0.254 OA
HETATM   23  H1  UNL     1      27.964  -3.747  54.077  1.00  0.00     0.128 HD
HETATM   24  H2  UNL     1      28.001  -3.787  54.078  1.00  0.00     0.128 HD
HETATM   25  H3  UNL     1      28.406  -1.051  54.164  1.00  0.00     0.170 HD
ENDBRANCH   1  19
TORSDOF 3
ENDMDL
MODEL 6
REMARK VINA RESULT:      -8.1      4.784      7.006
REMARK  3 active torsions:
REMARK  status: ('A' for Active; 'I' for Inactive)
REMARK       I    between atoms: N1_1  and  C1_2 
REMARK       I    between atoms: C1_2  and  N2_4 
REMARK    1  A    between atoms: N2_4  and  C2_5 
REMARK    2  A    between atoms: C7_12  and  C8_13 
REMARK    3  A    between atoms: C8_13  and  C9_14 
ROOT
HETATM    1  C2  UNL     1      26.061   1.133  53.929  1.00  0.00     0.036 A 
HETATM    2  C3  UNL     1      25.588  -0.129  53.754  1.00  0.00     0.032 A 
HETATM    3  C4  UNL     1      24.365  -0.448  53.194  1.00  0.00     0.035 A 
HETATM    4  C5  UNL     1      23.533   0.569  52.766  1.00  0.00     0.070 A 
HETATM    5  N3  UNL     1      22.335   0.359  52.212  1.00  0.00    -0.241 NA
HETATM    6  C6  UNL     1      21.558   1.385  51.810  1.00  0.00     0.234 A 
HETATM    7  N4  UNL     1      22.017   2.638  51.978  1.00  0.00    -0.245 NA
HETATM    8  C7  UNL     1      23.211   2.931  52.526  1.00  0.00     0.052 A 
HETATM    9  C15 UNL     1      23.984   1.863  52.928  1.00  0.00     0.020 A 
HETATM   10  C16 UNL     1      25.212   2.131  53.494  1.00  0.00     0.045 A 
ENDROOT
BRANCH   8  11
HETATM   11  C8  UNL     1      23.652   4.328  52.679  1.00  0.00     0.099 C 
BRANCH  11  12
HETATM   12  C9  UNL     1      23.749   4.962  51.340  1.00  0.00    -0.052 A 
HETATM   13  C10 UNL     1      22.940   6.056  51.076  1.00  0.00     0.009 A 
HETATM   14  C11 UNL     1      22.958   6.716  49.855  1.00  0.00     0.019 A 
HETATM   15  C12 UNL     1      23.814   6.267  48.866  1.00  0.00     0.011 A 
HETATM   16 BR1  UNL     1      23.766   7.237  47.227  1.00  0.00    -0.051 Br
HETATM   17  C13 UNL     1      24.628   5.175  49.114  1.00  0.00     0.019 A 
HETATM   18  C14 UNL     1      24.571   4.565  50.330  1.00  0.00     0.009 A 
ENDBRANCH  11  12
ENDBRANCH   8  11
BRANCH   1  19
HETATM   19  N2  UNL     1      27.278   1.511  54.484  1.00  0.00    -0.314 N 
HETATM   20  C1  UNL     1      28.421   2.054  53.853  1.00  0.00     0.296 C 
HETATM   21  N1  UNL     1      29.637   2.418  54.484  1.00  0.00    -0.254 NA
HETATM   22  O1  UNL     1      28.406   2.250  52.620  1.00  0.00    -0.254 OA
HETATM   23  H1  UNL     1      30.074   1.494  54.711  1.00  0.00     0.128 HD
HETATM   24  H2  UNL     1      30.115   1.524  54.733  1.00  0.00     0.128 HD
HETATM   25  H3  UNL     1      27.464   1.414  55.515  1.00  0.00     0.170 HD
ENDBRANCH   1  19
TORSDOF 3
ENDMDL
MODEL 7
REMARK VINA RESULT:      -8.0      4.300      6.585
REMARK  3 active torsions:
REMARK  status: ('A' for Active; 'I' for Inactive)
REMARK       I    between atoms: N1_1  and  C1_2 
REMARK       I    between atoms: C1_2  and  N2_4 
REMARK    1  A    between atoms: N2_4  and  C2_5 
REMARK    2  A    between atoms: C7_12  and  C8_13 
REMARK    3  A    between atoms: C8_13  and  C9_14 
ROOT
HETATM    1  C2  UNL     1      24.595  -0.450  53.894  1.00  0.00     0.036 A 
HETATM    2  C3  UNL     1      23.588  -1.016  54.609  1.00  0.00     0.032 A 
HETATM    3  C4  UNL     1      22.260  -0.637  54.550  1.00  0.00     0.035 A 
HETATM    4  C5  UNL     1      21.892   0.395  53.708  1.00  0.00     0.070 A 
HETATM    5  N3  UNL     1      20.635   0.832  53.582  1.00  0.00    -0.241 NA
HETATM    6  C6  UNL     1      20.323   1.843  52.747  1.00  0.00     0.234 A 
HETATM    7  N4  UNL     1      21.313   2.411  52.034  1.00  0.00    -0.245 NA
HETATM    8  C7  UNL     1      22.600   2.028  52.105  1.00  0.00     0.052 A 
HETATM    9  C15 UNL     1      22.890   0.992  52.967  1.00  0.00     0.020 A 
HETATM   10  C16 UNL     1      24.202   0.578  53.061  1.00  0.00     0.045 A 
ENDROOT
BRANCH   8  11
HETATM   11  C8  UNL     1      23.635   2.694  51.293  1.00  0.00     0.099 C 
BRANCH  11  12
HETATM   12  C9  UNL     1      23.127   2.884  49.911  1.00  0.00    -0.052 A 
HETATM   13  C10 UNL     1      23.193   4.155  49.361  1.00  0.00     0.009 A 
HETATM   14  C11 UNL     1      22.744   4.434  48.077  1.00  0.00     0.019 A 
HETATM   15  C12 UNL     1      22.212   3.407  47.319  1.00  0.00     0.011 A 
HETATM   16 BR1  UNL     1      21.624   3.888  45.572  1.00  0.00    -0.051 Br
HETATM   17  C13 UNL     1      22.139   2.132  47.854  1.00  0.00     0.019 A 
HETATM   18  C14 UNL     1      22.595   1.914  49.118  1.00  0.00     0.009 A 
ENDBRANCH  11  12
ENDBRANCH   8  11
BRANCH   1  19
HETATM   19  N2  UNL     1      25.943  -0.791  53.914  1.00  0.00    -0.314 N 
HETATM   20  C1  UNL     1      27.030  -0.116  54.516  1.00  0.00     0.296 C 
HETATM   21  N1  UNL     1      28.388  -0.522  54.496  1.00  0.00    -0.254 NA
HETATM   22  O1  UNL     1      26.823   0.947  55.138  1.00  0.00    -0.254 OA
HETATM   23  H1  UNL     1      28.680  -0.328  53.510  1.00  0.00     0.128 HD
HETATM   24  H2  UNL     1      28.729  -0.348  53.525  1.00  0.00     0.128 HD
HETATM   25  H3  UNL     1      26.295  -1.660  53.437  1.00  0.00     0.170 HD
ENDBRANCH   1  19
TORSDOF 3
ENDMDL
MODEL 8
REMARK VINA RESULT:      -7.8      3.727      4.823
REMARK  3 active torsions:
REMARK  status: ('A' for Active; 'I' for Inactive)
REMARK       I    between atoms: N1_1  and  C1_2 
REMARK       I    between atoms: C1_2  and  N2_4 
REMARK    1  A    between atoms: N2_4  and  C2_5 
REMARK    2  A    between atoms: C7_12  and  C8_13 
REMARK    3  A    between atoms: C8_13  and  C9_14 
ROOT
HETATM    1  C2  UNL     1      20.508  -0.379  53.697  1.00  0.00     0.036 A 
HETATM    2  C3  UNL     1      21.191  -1.043  54.666  1.00  0.00     0.032 A 
HETATM    3  C4  UNL     1      22.568  -1.099  54.771  1.00  0.00     0.035 A 
HETATM    4  C5  UNL     1      23.343  -0.439  53.836  1.00  0.00     0.070 A 
HETATM    5  N3  UNL     1      24.679  -0.435  53.855  1.00  0.00    -0.241 NA
HETATM    6  C6  UNL     1      25.393   0.223  52.921  1.00  0.00     0.234 A 
HETATM    7  N4  UNL     1      24.727   0.884  51.956  1.00  0.00    -0.245 NA
HETATM    8  C7  UNL     1      23.385   0.927  51.869  1.00  0.00     0.052 A 
HETATM    9  C15 UNL     1      22.681   0.245  52.838  1.00  0.00     0.020 A 
HETATM   10  C16 UNL     1      21.304   0.272  52.775  1.00  0.00     0.045 A 
ENDROOT
BRANCH   8  11
HETATM   11  C8  UNL     1      22.720   1.673  50.786  1.00  0.00     0.099 C 
BRANCH  11  12
HETATM   12  C9  UNL     1      23.414   2.970  50.585  1.00  0.00    -0.052 A 
HETATM   13  C10 UNL     1      23.223   3.965  51.530  1.00  0.00     0.009 A 
HETATM   14  C11 UNL     1      23.827   5.211  51.431  1.00  0.00     0.019 A 
HETATM   15  C12 UNL     1      24.650   5.469  50.350  1.00  0.00     0.011 A 
HETATM   16 BR1  UNL     1      25.434   7.205  50.302  1.00  0.00    -0.051 Br
HETATM   17  C13 UNL     1      24.851   4.484  49.397  1.00  0.00     0.019 A 
HETATM   18  C14 UNL     1      24.234   3.280  49.544  1.00  0.00     0.009 A 
ENDBRANCH  11  12
ENDBRANCH   8  11
BRANCH   1  19
HETATM   19  N2  UNL     1      19.130  -0.289  53.544  1.00  0.00    -0.314 N 
HETATM   20  C1  UNL     1      18.157  -1.315  53.557  1.00  0.00     0.296 C 
HETATM   21  N1  UNL     1      16.758  -1.151  53.392  1.00  0.00    -0.254 NA
HETATM   22  O1  UNL     1      18.516  -2.498  53.728  1.00  0.00    -0.254 OA
HETATM   23  H1  UNL     1      16.662  -0.932  52.373  1.00  0.00     0.128 HD
HETATM   24  H2  UNL     1      16.608  -0.929  52.383  1.00  0.00     0.128 HD
HETATM   25  H3  UNL     1      18.655   0.637  53.389  1.00  0.00     0.170 HD
ENDBRANCH   1  19
TORSDOF 3
ENDMDL
MODEL 9
REMARK VINA RESULT:      -7.6      5.903      7.392
REMARK  3 active torsions:
REMARK  status: ('A' for Active; 'I' for Inactive)
REMARK       I    between atoms: N1_1  and  C1_2 
REMARK       I    between atoms: C1_2  and  N2_4 
REMARK    1  A    between atoms: N2_4  and  C2_5 
REMARK    2  A    between atoms: C7_12  and  C8_13 
REMARK    3  A    between atoms: C8_13  and  C9_14 
ROOT
HETATM    1  C2  UNL     1      25.497   7.373  50.019  1.00  0.00     0.036 A 
HETATM    2  C3  UNL     1      24.304   7.836  49.563  1.00  0.00     0.032 A 
HETATM    3  C4  UNL     1      23.275   7.046  49.086  1.00  0.00     0.035 A 
HETATM    4  C5  UNL     1      23.437   5.674  49.055  1.00  0.00     0.070 A 
HETATM    5  N3  UNL     1      22.500   4.830  48.611  1.00  0.00    -0.241 NA
HETATM    6  C6  UNL     1      22.704   3.498  48.600  1.00  0.00     0.234 A 
HETATM    7  N4  UNL     1      23.883   3.028  49.049  1.00  0.00    -0.245 NA
HETATM    8  C7  UNL     1      24.873   3.812  49.511  1.00  0.00     0.052 A 
HETATM    9  C15 UNL     1      24.637   5.170  49.511  1.00  0.00     0.020 A 
HETATM   10  C16 UNL     1      25.635   5.999  49.978  1.00  0.00     0.045 A 
ENDROOT
BRANCH   8  11
HETATM   11  C8  UNL     1      26.140   3.230  49.990  1.00  0.00     0.099 C 
BRANCH  11  12
HETATM   12  C9  UNL     1      25.869   2.371  51.170  1.00  0.00    -0.052 A 
HETATM   13  C10 UNL     1      26.577   1.184  51.288  1.00  0.00     0.009 A 
HETATM   14  C11 UNL     1      26.395   0.313  52.354  1.00  0.00     0.019 A 
HETATM   15  C12 UNL     1      25.476   0.641  53.334  1.00  0.00     0.011 A 
HETATM   16 BR1  UNL     1      25.299  -0.616  54.755  1.00  0.00    -0.051 Br
HETATM   17  C13 UNL     1      24.761   1.822  53.230  1.00  0.00     0.019 A 
HETATM   18  C14 UNL     1      24.979   2.640  52.164  1.00  0.00     0.009 A 
ENDBRANCH  11  12
ENDBRANCH   8  11
BRANCH   1  19
HETATM   19  N2  UNL     1      26.563   8.118  50.510  1.00  0.00    -0.314 N 
HETATM   20  C1  UNL     1      27.531   8.870  49.805  1.00  0.00     0.296 C 
HETATM   21  N1  UNL     1      28.598   9.610  50.373  1.00  0.00    -0.254 NA
HETATM   22  O1  UNL     1      27.482   8.917  48.558  1.00  0.00    -0.254 OA
HETATM   23  H1  UNL     1      29.261   8.865  50.694  1.00  0.00     0.128 HD
HETATM   24  H2  UNL     1      29.292   8.907  50.711  1.00  0.00     0.128 HD
HETATM   25  H3  UNL     1      26.753   8.188  51.542  1.00  0.00     0.170 HD
ENDBRANCH   1  19
TORSDOF 3
ENDMDL
