MODEL 1
REMARK VINA RESULT:      -7.5      0.000      0.000
REMARK  11 active torsions:
REMARK  status: ('A' for Active; 'I' for Inactive)
REMARK    1  A    between atoms: N1_1  and  C1_2 
REMARK    2  A    between atoms: C1_2  and  C2_3 
REMARK    3  A    between atoms: C2_3  and  C3_4 
REMARK    4  A    between atoms: C3_4  and  C4_5 
REMARK    5  A    between atoms: C4_5  and  C5_6 
REMARK    6  A    between atoms: C5_6  and  C6_7 
REMARK    7  A    between atoms: C6_7  and  C7_8 
REMARK    8  A    between atoms: C7_8  and  O1_9 
REMARK    9  A    between atoms: O1_9  and  C8_10 
REMARK   10  A    between atoms: C10_12  and  C11_13 
REMARK   11  A    between atoms: C20_26  and  O2_27 
ROOT
HETATM    1  C8  UNL     1      23.942   3.030  51.496  1.00  0.00     0.101 C 
HETATM    2  C9  UNL     1      23.628   1.889  50.903  1.00  0.00     0.057 C 
HETATM    3  C10 UNL     1      22.227   1.652  51.128  1.00  0.00     0.147 A 
HETATM    4  N2  UNL     1      21.426   0.842  50.294  1.00  0.00    -0.256 NA
HETATM    5  C17 UNL     1      20.249   1.384  50.234  1.00  0.00     0.229 A 
HETATM    6  N3  UNL     1      20.199   2.601  51.015  1.00  0.00    -0.243 NA
HETATM    7  C18 UNL     1      21.394   2.769  51.544  1.00  0.00     0.077 A 
HETATM    8  C19 UNL     1      21.864   3.930  52.249  1.00  0.00     0.070 C 
HETATM    9  C20 UNL     1      23.200   4.071  52.196  1.00  0.00     0.100 C 
ENDROOT
BRANCH   1  10
HETATM   10  O1  UNL     1      25.310   3.364  51.398  1.00  0.00    -0.348 OA
BRANCH  10  11
HETATM   11  C7  UNL     1      26.317   2.400  51.409  1.00  0.00     0.176 C 
BRANCH  11  12
HETATM   12  C6  UNL     1      26.762   2.029  52.807  1.00  0.00     0.027 C 
BRANCH  12  13
HETATM   13  C5  UNL     1      27.750   0.880  52.737  1.00  0.00     0.003 C 
BRANCH  13  14
HETATM   14  C4  UNL     1      28.904   1.174  53.668  1.00  0.00     0.018 C 
BRANCH  14  15
HETATM   15  C3  UNL     1      29.848   0.032  53.674  1.00  0.00     0.073 C 
BRANCH  15  16
HETATM   16  C2  UNL     1      29.347  -1.168  53.419  1.00  0.00    -0.133 C 
BRANCH  16  17
HETATM   17  C1  UNL     1      29.096  -2.427  53.086  1.00  0.00     0.132 C 
BRANCH  17  18
HETATM   18  N1  UNL     1      27.732  -2.805  53.033  1.00  0.00    -0.402 N 
HETATM   19  H1  UNL     1      26.764  -2.411  52.888  1.00  0.00     0.156 HD
HETATM   20  H2  UNL     1      27.564  -3.828  53.184  1.00  0.00     0.156 HD
ENDBRANCH  17  18
ENDBRANCH  16  17
ENDBRANCH  15  16
ENDBRANCH  14  15
ENDBRANCH  13  14
ENDBRANCH  12  13
ENDBRANCH  11  12
ENDBRANCH  10  11
ENDBRANCH   1  10
BRANCH   9  21
HETATM   21  O2  UNL     1      23.788   5.174  52.794  1.00  0.00    -0.358 OA
HETATM   22  H19 UNL     1      23.208   5.963  53.059  1.00  0.00     0.217 HD
ENDBRANCH   9  21
BRANCH   3  23
HETATM   23  C11 UNL     1      22.228   0.708  52.456  1.00  0.00    -0.016 A 
HETATM   24  C12 UNL     1      21.043   0.362  53.072  1.00  0.00     0.013 A 
HETATM   25  C13 UNL     1      21.217  -0.437  54.179  1.00  0.00     0.045 A 
HETATM   26  C14 UNL     1      22.453  -0.840  54.612  1.00  0.00     0.138 A 
HETATM   27  F1  UNL     1      22.550  -1.636  55.722  1.00  0.00    -0.204 F 
HETATM   28  C15 UNL     1      23.603  -0.461  53.953  1.00  0.00     0.073 A 
HETATM   29 CL1  UNL     1      25.202  -0.952  54.469  1.00  0.00    -0.081 Cl
HETATM   30  C16 UNL     1      23.508   0.341  52.835  1.00  0.00     0.037 A 
ENDBRANCH   3  23
TORSDOF 11
ENDMDL
MODEL 2
REMARK VINA RESULT:      -7.4      1.278      1.512
REMARK  11 active torsions:
REMARK  status: ('A' for Active; 'I' for Inactive)
REMARK    1  A    between atoms: N1_1  and  C1_2 
REMARK    2  A    between atoms: C1_2  and  C2_3 
REMARK    3  A    between atoms: C2_3  and  C3_4 
REMARK    4  A    between atoms: C3_4  and  C4_5 
REMARK    5  A    between atoms: C4_5  and  C5_6 
REMARK    6  A    between atoms: C5_6  and  C6_7 
REMARK    7  A    between atoms: C6_7  and  C7_8 
REMARK    8  A    between atoms: C7_8  and  O1_9 
REMARK    9  A    between atoms: O1_9  and  C8_10 
REMARK   10  A    between atoms: C10_12  and  C11_13 
REMARK   11  A    between atoms: C20_26  and  O2_27 
ROOT
HETATM    1  C8  UNL     1      23.641   3.120  51.488  1.00  0.00     0.101 C 
HETATM    2  C9  UNL     1      23.508   2.006  50.788  1.00  0.00     0.057 C 
HETATM    3  C10 UNL     1      22.102   1.779  50.592  1.00  0.00     0.147 A 
HETATM    4  N2  UNL     1      21.572   1.010  49.533  1.00  0.00    -0.256 NA
HETATM    5  C17 UNL     1      20.463   1.569  49.158  1.00  0.00     0.229 A 
HETATM    6  N3  UNL     1      20.193   2.758  49.937  1.00  0.00    -0.243 NA
HETATM    7  C18 UNL     1      21.187   2.892  50.793  1.00  0.00     0.077 A 
HETATM    8  C19 UNL     1      21.437   4.020  51.646  1.00  0.00     0.070 C 
HETATM    9  C20 UNL     1      22.732   4.146  51.984  1.00  0.00     0.100 C 
ENDROOT
BRANCH   1  10
HETATM   10  O1  UNL     1      24.981   3.439  51.800  1.00  0.00    -0.348 OA
BRANCH  10  11
HETATM   11  C7  UNL     1      26.060   2.881  51.119  1.00  0.00     0.176 C 
BRANCH  11  12
HETATM   12  C6  UNL     1      27.069   2.233  52.043  1.00  0.00     0.027 C 
BRANCH  12  13
HETATM   13  C5  UNL     1      26.411   1.089  52.789  1.00  0.00     0.003 C 
BRANCH  13  14
HETATM   14  C4  UNL     1      26.639  -0.191  52.017  1.00  0.00     0.018 C 
BRANCH  14  15
HETATM   15  C3  UNL     1      27.249  -1.210  52.903  1.00  0.00     0.073 C 
BRANCH  15  16
HETATM   16  C2  UNL     1      28.501  -1.008  53.284  1.00  0.00    -0.133 C 
BRANCH  16  17
HETATM   17  C1  UNL     1      29.766  -0.648  53.450  1.00  0.00     0.132 C 
BRANCH  17  18
HETATM   18  N1  UNL     1      30.010   0.739  53.614  1.00  0.00    -0.402 N 
HETATM   19  H1  UNL     1      30.020   1.650  53.084  1.00  0.00     0.156 HD
HETATM   20  H2  UNL     1      30.279   1.014  54.588  1.00  0.00     0.156 HD
ENDBRANCH  17  18
ENDBRANCH  16  17
ENDBRANCH  15  16
ENDBRANCH  14  15
ENDBRANCH  13  14
ENDBRANCH  12  13
ENDBRANCH  11  12
ENDBRANCH  10  11
ENDBRANCH   1  10
BRANCH   9  21
HETATM   21  O2  UNL     1      23.126   5.219  52.767  1.00  0.00    -0.358 OA
HETATM   22  H19 UNL     1      22.422   5.848  53.137  1.00  0.00     0.217 HD
ENDBRANCH   9  21
BRANCH   3  23
HETATM   23  C11 UNL     1      21.718   0.789  51.828  1.00  0.00    -0.016 A 
HETATM   24  C12 UNL     1      20.410   0.410  52.044  1.00  0.00     0.013 A 
HETATM   25  C13 UNL     1      20.256  -0.426  53.126  1.00  0.00     0.045 A 
HETATM   26  C14 UNL     1      21.309  -0.833  53.902  1.00  0.00     0.138 A 
HETATM   27  F1  UNL     1      21.081  -1.667  54.963  1.00  0.00    -0.204 F 
HETATM   28  C15 UNL     1      22.597  -0.420  53.635  1.00  0.00     0.073 A 
HETATM   29 CL1  UNL     1      23.974  -0.913  54.597  1.00  0.00    -0.081 Cl
HETATM   30  C16 UNL     1      22.830   0.421  52.566  1.00  0.00     0.037 A 
ENDBRANCH   3  23
TORSDOF 11
ENDMDL
MODEL 3
REMARK VINA RESULT:      -7.4      2.945      4.544
REMARK  11 active torsions:
REMARK  status: ('A' for Active; 'I' for Inactive)
REMARK    1  A    between atoms: N1_1  and  C1_2 
REMARK    2  A    between atoms: C1_2  and  C2_3 
REMARK    3  A    between atoms: C2_3  and  C3_4 
REMARK    4  A    between atoms: C3_4  and  C4_5 
REMARK    5  A    between atoms: C4_5  and  C5_6 
REMARK    6  A    between atoms: C5_6  and  C6_7 
REMARK    7  A    between atoms: C6_7  and  C7_8 
REMARK    8  A    between atoms: C7_8  and  O1_9 
REMARK    9  A    between atoms: O1_9  and  C8_10 
REMARK   10  A    between atoms: C10_12  and  C11_13 
REMARK   11  A    between atoms: C20_26  and  O2_27 
ROOT
HETATM    1  C8  UNL     1      23.358   3.203  51.383  1.00  0.00     0.101 C 
HETATM    2  C9  UNL     1      23.221   1.995  50.861  1.00  0.00     0.057 C 
HETATM    3  C10 UNL     1      21.910   1.516  51.208  1.00  0.00     0.147 A 
HETATM    4  N2  UNL     1      21.217   0.530  50.474  1.00  0.00    -0.256 NA
HETATM    5  C17 UNL     1      19.958   0.842  50.489  1.00  0.00     0.229 A 
HETATM    6  N3  UNL     1      19.737   2.068  51.226  1.00  0.00    -0.243 NA
HETATM    7  C18 UNL     1      20.915   2.481  51.648  1.00  0.00     0.077 A 
HETATM    8  C19 UNL     1      21.209   3.743  52.269  1.00  0.00     0.070 C 
HETATM    9  C20 UNL     1      22.487   4.125  52.102  1.00  0.00     0.100 C 
ENDROOT
BRANCH   1  10
HETATM   10  O1  UNL     1      24.628   3.778  51.162  1.00  0.00    -0.348 OA
BRANCH  10  11
HETATM   11  C7  UNL     1      25.775   3.008  50.976  1.00  0.00     0.176 C 
BRANCH  11  12
HETATM   12  C6  UNL     1      26.504   3.338  49.691  1.00  0.00     0.027 C 
BRANCH  12  13
HETATM   13  C5  UNL     1      26.246   4.785  49.319  1.00  0.00     0.003 C 
BRANCH  13  14
HETATM   14  C4  UNL     1      27.470   5.332  48.619  1.00  0.00     0.018 C 
BRANCH  14  15
HETATM   15  C3  UNL     1      27.216   6.724  48.179  1.00  0.00     0.073 C 
BRANCH  15  16
HETATM   16  C2  UNL     1      27.024   7.632  49.124  1.00  0.00    -0.133 C 
BRANCH  16  17
HETATM   17  C1  UNL     1      26.588   8.426  50.092  1.00  0.00     0.132 C 
BRANCH  17  18
HETATM   18  N1  UNL     1      27.573   9.181  50.778  1.00  0.00    -0.402 N 
HETATM   19  H1  UNL     1      28.614   9.330  50.838  1.00  0.00     0.156 HD
HETATM   20  H2  UNL     1      27.185   9.843  51.491  1.00  0.00     0.156 HD
ENDBRANCH  17  18
ENDBRANCH  16  17
ENDBRANCH  15  16
ENDBRANCH  14  15
ENDBRANCH  13  14
ENDBRANCH  12  13
ENDBRANCH  11  12
ENDBRANCH  10  11
ENDBRANCH   1  10
BRANCH   9  21
HETATM   21  O2  UNL     1      22.899   5.347  52.608  1.00  0.00    -0.358 OA
HETATM   22  H19 UNL     1      22.893   6.162  52.004  1.00  0.00     0.217 HD
ENDBRANCH   9  21
BRANCH   3  23
HETATM   23  C11 UNL     1      22.186   0.659  52.567  1.00  0.00    -0.016 A 
HETATM   24  C12 UNL     1      21.156   0.382  53.443  1.00  0.00     0.013 A 
HETATM   25  C13 UNL     1      21.555  -0.349  54.538  1.00  0.00     0.045 A 
HETATM   26  C14 UNL     1      22.850  -0.754  54.725  1.00  0.00     0.138 A 
HETATM   27  F1  UNL     1      23.175  -1.480  55.840  1.00  0.00    -0.204 F 
HETATM   28  C15 UNL     1      23.836  -0.446  53.812  1.00  0.00     0.073 A 
HETATM   29 CL1  UNL     1      25.504  -0.942  54.008  1.00  0.00    -0.081 Cl
HETATM   30  C16 UNL     1      23.513   0.285  52.688  1.00  0.00     0.037 A 
ENDBRANCH   3  23
TORSDOF 11
ENDMDL
MODEL 4
REMARK VINA RESULT:      -7.2      1.571      2.127
REMARK  11 active torsions:
REMARK  status: ('A' for Active; 'I' for Inactive)
REMARK    1  A    between atoms: N1_1  and  C1_2 
REMARK    2  A    between atoms: C1_2  and  C2_3 
REMARK    3  A    between atoms: C2_3  and  C3_4 
REMARK    4  A    between atoms: C3_4  and  C4_5 
REMARK    5  A    between atoms: C4_5  and  C5_6 
REMARK    6  A    between atoms: C5_6  and  C6_7 
REMARK    7  A    between atoms: C6_7  and  C7_8 
REMARK    8  A    between atoms: C7_8  and  O1_9 
REMARK    9  A    between atoms: O1_9  and  C8_10 
REMARK   10  A    between atoms: C10_12  and  C11_13 
REMARK   11  A    between atoms: C20_26  and  O2_27 
ROOT
HETATM    1  C8  UNL     1      22.932   3.356  51.457  1.00  0.00     0.101 C 
HETATM    2  C9  UNL     1      22.906   2.151  50.911  1.00  0.00     0.057 C 
HETATM    3  C10 UNL     1      21.644   1.548  51.243  1.00  0.00     0.147 A 
HETATM    4  N2  UNL     1      21.044   0.517  50.487  1.00  0.00    -0.256 NA
HETATM    5  C17 UNL     1      19.762   0.713  50.503  1.00  0.00     0.229 A 
HETATM    6  N3  UNL     1      19.429   1.900  51.262  1.00  0.00    -0.243 NA
HETATM    7  C18 UNL     1      20.564   2.410  51.697  1.00  0.00     0.077 A 
HETATM    8  C19 UNL     1      20.740   3.681  52.343  1.00  0.00     0.070 C 
HETATM    9  C20 UNL     1      21.978   4.181  52.189  1.00  0.00     0.100 C 
ENDROOT
BRANCH   1  10
HETATM   10  O1  UNL     1      24.145   4.048  51.252  1.00  0.00    -0.348 OA
BRANCH  10  11
HETATM   11  C7  UNL     1      24.813   4.039  50.029  1.00  0.00     0.176 C 
BRANCH  11  12
HETATM   12  C6  UNL     1      26.292   3.746  50.167  1.00  0.00     0.027 C 
BRANCH  12  13
HETATM   13  C5  UNL     1      26.538   2.266  49.948  1.00  0.00     0.003 C 
BRANCH  13  14
HETATM   14  C4  UNL     1      26.562   1.573  51.291  1.00  0.00     0.018 C 
BRANCH  14  15
HETATM   15  C3  UNL     1      27.190   2.457  52.301  1.00  0.00     0.073 C 
BRANCH  15  16
HETATM   16  C2  UNL     1      28.098   1.914  53.100  1.00  0.00    -0.133 C 
BRANCH  16  17
HETATM   17  C1  UNL     1      28.808   1.202  53.964  1.00  0.00     0.132 C 
BRANCH  17  18
HETATM   18  N1  UNL     1      29.349   1.908  55.067  1.00  0.00    -0.402 N 
HETATM   19  H1  UNL     1      29.585   2.881  55.398  1.00  0.00     0.156 HD
HETATM   20  H2  UNL     1      29.632   1.297  55.869  1.00  0.00     0.156 HD
ENDBRANCH  17  18
ENDBRANCH  16  17
ENDBRANCH  15  16
ENDBRANCH  14  15
ENDBRANCH  13  14
ENDBRANCH  12  13
ENDBRANCH  11  12
ENDBRANCH  10  11
ENDBRANCH   1  10
BRANCH   9  21
HETATM   21  O2  UNL     1      22.277   5.425  52.720  1.00  0.00    -0.358 OA
HETATM   22  H19 UNL     1      21.520   6.042  52.995  1.00  0.00     0.217 HD
ENDBRANCH   9  21
BRANCH   3  23
HETATM   23  C11 UNL     1      21.992   0.693  52.587  1.00  0.00    -0.016 A 
HETATM   24  C12 UNL     1      21.005   0.392  53.502  1.00  0.00     0.013 A 
HETATM   25  C13 UNL     1      21.463  -0.333  54.578  1.00  0.00     0.045 A 
HETATM   26  C14 UNL     1      22.773  -0.711  54.712  1.00  0.00     0.138 A 
HETATM   27  F1  UNL     1      23.157  -1.433  55.810  1.00  0.00    -0.204 F 
HETATM   28  C15 UNL     1      23.714  -0.379  53.761  1.00  0.00     0.073 A 
HETATM   29 CL1  UNL     1      25.399  -0.839  53.888  1.00  0.00    -0.081 Cl
HETATM   30  C16 UNL     1      23.330   0.348  52.654  1.00  0.00     0.037 A 
ENDBRANCH   3  23
TORSDOF 11
ENDMDL
MODEL 5
REMARK VINA RESULT:      -7.1      3.696      5.161
REMARK  11 active torsions:
REMARK  status: ('A' for Active; 'I' for Inactive)
REMARK    1  A    between atoms: N1_1  and  C1_2 
REMARK    2  A    between atoms: C1_2  and  C2_3 
REMARK    3  A    between atoms: C2_3  and  C3_4 
REMARK    4  A    between atoms: C3_4  and  C4_5 
REMARK    5  A    between atoms: C4_5  and  C5_6 
REMARK    6  A    between atoms: C5_6  and  C6_7 
REMARK    7  A    between atoms: C6_7  and  C7_8 
REMARK    8  A    between atoms: C7_8  and  O1_9 
REMARK    9  A    between atoms: O1_9  and  C8_10 
REMARK   10  A    between atoms: C10_12  and  C11_13 
REMARK   11  A    between atoms: C20_26  and  O2_27 
ROOT
HETATM    1  C8  UNL     1      24.280   4.111  50.927  1.00  0.00     0.101 C 
HETATM    2  C9  UNL     1      24.101   2.986  50.254  1.00  0.00     0.057 C 
HETATM    3  C10 UNL     1      22.922   2.349  50.775  1.00  0.00     0.147 A 
HETATM    4  N2  UNL     1      22.142   1.426  50.044  1.00  0.00    -0.256 NA
HETATM    5  C17 UNL     1      20.900   1.621  50.364  1.00  0.00     0.229 A 
HETATM    6  N3  UNL     1      20.776   2.701  51.320  1.00  0.00    -0.243 NA
HETATM    7  C18 UNL     1      21.993   3.147  51.558  1.00  0.00     0.077 A 
HETATM    8  C19 UNL     1      22.343   4.324  52.304  1.00  0.00     0.070 C 
HETATM    9  C20 UNL     1      23.533   4.837  51.947  1.00  0.00     0.100 C 
ENDROOT
BRANCH   1  10
HETATM   10  O1  UNL     1      25.442   4.821  50.551  1.00  0.00    -0.348 OA
BRANCH  10  11
HETATM   11  C7  UNL     1      25.844   4.944  49.223  1.00  0.00     0.176 C 
BRANCH  11  12
HETATM   12  C6  UNL     1      27.185   4.297  48.950  1.00  0.00     0.027 C 
BRANCH  12  13
HETATM   13  C5  UNL     1      28.190   5.359  48.551  1.00  0.00     0.003 C 
BRANCH  13  14
HETATM   14  C4  UNL     1      27.442   6.555  48.006  1.00  0.00     0.018 C 
BRANCH  14  15
HETATM   15  C3  UNL     1      28.351   7.723  47.927  1.00  0.00     0.073 C 
BRANCH  15  16
HETATM   16  C2  UNL     1      28.052   8.774  48.676  1.00  0.00    -0.133 C 
BRANCH  16  17
HETATM   17  C1  UNL     1      27.953   9.737  49.581  1.00  0.00     0.132 C 
BRANCH  17  18
HETATM   18  N1  UNL     1      27.709   9.325  50.915  1.00  0.00    -0.402 N 
HETATM   19  H1  UNL     1      27.716   8.474  51.538  1.00  0.00     0.156 HD
HETATM   20  H2  UNL     1      27.413  10.100  51.555  1.00  0.00     0.156 HD
ENDBRANCH  17  18
ENDBRANCH  16  17
ENDBRANCH  15  16
ENDBRANCH  14  15
ENDBRANCH  13  14
ENDBRANCH  12  13
ENDBRANCH  11  12
ENDBRANCH  10  11
ENDBRANCH   1  10
BRANCH   9  21
HETATM   21  O2  UNL     1      23.978   6.001  52.552  1.00  0.00    -0.358 OA
HETATM   22  H19 UNL     1      23.916   6.878  52.046  1.00  0.00     0.217 HD
ENDBRANCH   9  21
BRANCH   3  23
HETATM   23  C11 UNL     1      23.526   1.327  51.892  1.00  0.00    -0.016 A 
HETATM   24  C12 UNL     1      22.692   0.706  52.798  1.00  0.00     0.013 A 
HETATM   25  C13 UNL     1      23.358  -0.124  53.672  1.00  0.00     0.045 A 
HETATM   26  C14 UNL     1      24.716  -0.303  53.631  1.00  0.00     0.138 A 
HETATM   27  F1  UNL     1      25.312  -1.145  54.532  1.00  0.00    -0.204 F 
HETATM   28  C15 UNL     1      25.497   0.347  52.699  1.00  0.00     0.073 A 
HETATM   29 CL1  UNL     1      27.234   0.149  52.609  1.00  0.00    -0.081 Cl
HETATM   30  C16 UNL     1      24.900   1.196  51.790  1.00  0.00     0.037 A 
ENDBRANCH   3  23
TORSDOF 11
ENDMDL
MODEL 6
REMARK VINA RESULT:      -7.1      3.192      4.871
REMARK  11 active torsions:
REMARK  status: ('A' for Active; 'I' for Inactive)
REMARK    1  A    between atoms: N1_1  and  C1_2 
REMARK    2  A    between atoms: C1_2  and  C2_3 
REMARK    3  A    between atoms: C2_3  and  C3_4 
REMARK    4  A    between atoms: C3_4  and  C4_5 
REMARK    5  A    between atoms: C4_5  and  C5_6 
REMARK    6  A    between atoms: C5_6  and  C6_7 
REMARK    7  A    between atoms: C6_7  and  C7_8 
REMARK    8  A    between atoms: C7_8  and  O1_9 
REMARK    9  A    between atoms: O1_9  and  C8_10 
REMARK   10  A    between atoms: C10_12  and  C11_13 
REMARK   11  A    between atoms: C20_26  and  O2_27 
ROOT
HETATM    1  C8  UNL     1      21.300   1.889  50.612  1.00  0.00     0.101 C 
HETATM    2  C9  UNL     1      21.992   0.775  50.790  1.00  0.00     0.057 C 
HETATM    3  C10 UNL     1      22.032   0.508  52.202  1.00  0.00     0.147 A 
HETATM    4  N2  UNL     1      22.237  -0.777  52.751  1.00  0.00    -0.256 NA
HETATM    5  C17 UNL     1      21.509  -0.867  53.821  1.00  0.00     0.229 A 
HETATM    6  N3  UNL     1      20.762   0.352  54.043  1.00  0.00    -0.243 NA
HETATM    7  C18 UNL     1      21.067   1.176  53.061  1.00  0.00     0.077 A 
HETATM    8  C19 UNL     1      20.436   2.433  52.769  1.00  0.00     0.070 C 
HETATM    9  C20 UNL     1      20.541   2.785  51.476  1.00  0.00     0.100 C 
ENDROOT
BRANCH   1  10
HETATM   10  O1  UNL     1      21.223   2.302  49.264  1.00  0.00    -0.348 OA
BRANCH  10  11
HETATM   11  C7  UNL     1      22.329   2.782  48.565  1.00  0.00     0.176 C 
BRANCH  11  12
HETATM   12  C6  UNL     1      22.660   4.220  48.903  1.00  0.00     0.027 C 
BRANCH  12  13
HETATM   13  C5  UNL     1      24.165   4.409  48.895  1.00  0.00     0.003 C 
BRANCH  13  14
HETATM   14  C4  UNL     1      24.803   3.259  49.640  1.00  0.00     0.018 C 
BRANCH  14  15
HETATM   15  C3  UNL     1      26.206   3.597  49.979  1.00  0.00     0.073 C 
BRANCH  15  16
HETATM   16  C2  UNL     1      26.858   4.385  49.138  1.00  0.00    -0.133 C 
BRANCH  16  17
HETATM   17  C1  UNL     1      27.518   5.345  48.504  1.00  0.00     0.132 C 
BRANCH  17  18
HETATM   18  N1  UNL     1      28.844   5.591  48.939  1.00  0.00    -0.402 N 
HETATM   19  H1  UNL     1      29.540   5.316  49.681  1.00  0.00     0.156 HD
HETATM   20  H2  UNL     1      29.365   6.285  48.353  1.00  0.00     0.156 HD
ENDBRANCH  17  18
ENDBRANCH  16  17
ENDBRANCH  15  16
ENDBRANCH  14  15
ENDBRANCH  13  14
ENDBRANCH  12  13
ENDBRANCH  11  12
ENDBRANCH  10  11
ENDBRANCH   1  10
BRANCH   9  21
HETATM   21  O2  UNL     1      19.937   3.953  51.041  1.00  0.00    -0.358 OA
HETATM   22  H19 UNL     1      19.585   4.006  50.091  1.00  0.00     0.217 HD
ENDBRANCH   9  21
BRANCH   3  23
HETATM   23  C11 UNL     1      23.437   1.195  52.661  1.00  0.00    -0.016 A 
HETATM   24  C12 UNL     1      23.477   2.518  53.050  1.00  0.00     0.013 A 
HETATM   25  C13 UNL     1      24.736   2.944  53.407  1.00  0.00     0.045 A 
HETATM   26  C14 UNL     1      25.831   2.122  53.373  1.00  0.00     0.138 A 
HETATM   27  F1  UNL     1      27.055   2.614  53.742  1.00  0.00    -0.204 F 
HETATM   28  C15 UNL     1      25.728   0.806  52.975  1.00  0.00     0.073 A 
HETATM   29 CL1  UNL     1      27.098  -0.282  52.916  1.00  0.00    -0.081 Cl
HETATM   30  C16 UNL     1      24.497   0.307  52.602  1.00  0.00     0.037 A 
ENDBRANCH   3  23
TORSDOF 11
ENDMDL
MODEL 7
REMARK VINA RESULT:      -6.7      2.910      4.629
REMARK  11 active torsions:
REMARK  status: ('A' for Active; 'I' for Inactive)
REMARK    1  A    between atoms: N1_1  and  C1_2 
REMARK    2  A    between atoms: C1_2  and  C2_3 
REMARK    3  A    between atoms: C2_3  and  C3_4 
REMARK    4  A    between atoms: C3_4  and  C4_5 
REMARK    5  A    between atoms: C4_5  and  C5_6 
REMARK    6  A    between atoms: C5_6  and  C6_7 
REMARK    7  A    between atoms: C6_7  and  C7_8 
REMARK    8  A    between atoms: C7_8  and  O1_9 
REMARK    9  A    between atoms: O1_9  and  C8_10 
REMARK   10  A    between atoms: C10_12  and  C11_13 
REMARK   11  A    between atoms: C20_26  and  O2_27 
ROOT
HETATM    1  C8  UNL     1      23.540   3.241  51.414  1.00  0.00     0.101 C 
HETATM    2  C9  UNL     1      23.428   2.045  50.860  1.00  0.00     0.057 C 
HETATM    3  C10 UNL     1      22.089   1.578  51.098  1.00  0.00     0.147 A 
HETATM    4  N2  UNL     1      21.441   0.615  50.294  1.00  0.00    -0.256 NA
HETATM    5  C17 UNL     1      20.188   0.944  50.220  1.00  0.00     0.229 A 
HETATM    6  N3  UNL     1      19.927   2.160  50.960  1.00  0.00    -0.243 NA
HETATM    7  C18 UNL     1      21.075   2.549  51.479  1.00  0.00     0.077 A 
HETATM    8  C19 UNL     1      21.337   3.796  52.143  1.00  0.00     0.070 C 
HETATM    9  C20 UNL     1      22.628   4.163  52.080  1.00  0.00     0.100 C 
ENDROOT
BRANCH   1  10
HETATM   10  O1  UNL     1      24.831   3.802  51.300  1.00  0.00    -0.348 OA
BRANCH  10  11
HETATM   11  C7  UNL     1      25.400   4.125  50.070  1.00  0.00     0.176 C 
BRANCH  11  12
HETATM   12  C6  UNL     1      25.589   5.615  49.882  1.00  0.00     0.027 C 
BRANCH  12  13
HETATM   13  C5  UNL     1      24.845   6.069  48.641  1.00  0.00     0.003 C 
BRANCH  13  14
HETATM   14  C4  UNL     1      23.365   5.846  48.854  1.00  0.00     0.018 C 
BRANCH  14  15
HETATM   15  C3  UNL     1      22.757   5.297  47.619  1.00  0.00     0.073 C 
BRANCH  15  16
HETATM   16  C2  UNL     1      22.276   4.064  47.678  1.00  0.00    -0.133 C 
BRANCH  16  17
HETATM   17  C1  UNL     1      21.687   2.890  47.498  1.00  0.00     0.132 C 
BRANCH  17  18
HETATM   18  N1  UNL     1      22.543   1.765  47.398  1.00  0.00    -0.402 N 
HETATM   19  H1  UNL     1      23.432   1.359  47.792  1.00  0.00     0.156 HD
HETATM   20  H2  UNL     1      22.231   1.050  46.699  1.00  0.00     0.156 HD
ENDBRANCH  17  18
ENDBRANCH  16  17
ENDBRANCH  15  16
ENDBRANCH  14  15
ENDBRANCH  13  14
ENDBRANCH  12  13
ENDBRANCH  11  12
ENDBRANCH  10  11
ENDBRANCH   1  10
BRANCH   9  21
HETATM   21  O2  UNL     1      23.017   5.370  52.639  1.00  0.00    -0.358 OA
HETATM   22  H19 UNL     1      23.679   5.956  52.142  1.00  0.00     0.217 HD
ENDBRANCH   9  21
BRANCH   3  23
HETATM   23  C11 UNL     1      22.249   0.694  52.457  1.00  0.00    -0.016 A 
HETATM   24  C12 UNL     1      21.147   0.389  53.230  1.00  0.00     0.013 A 
HETATM   25  C13 UNL     1      21.452  -0.363  54.342  1.00  0.00     0.045 A 
HETATM   26  C14 UNL     1      22.729  -0.761  54.637  1.00  0.00     0.138 A 
HETATM   27  F1  UNL     1      22.958  -1.509  55.761  1.00  0.00    -0.204 F 
HETATM   28  C15 UNL     1      23.791  -0.425  53.824  1.00  0.00     0.073 A 
HETATM   29 CL1  UNL     1      25.438  -0.911  54.160  1.00  0.00    -0.081 Cl
HETATM   30  C16 UNL     1      23.563   0.328  52.691  1.00  0.00     0.037 A 
ENDBRANCH   3  23
TORSDOF 11
ENDMDL
MODEL 8
REMARK VINA RESULT:      -6.4      8.929     10.673
REMARK  11 active torsions:
REMARK  status: ('A' for Active; 'I' for Inactive)
REMARK    1  A    between atoms: N1_1  and  C1_2 
REMARK    2  A    between atoms: C1_2  and  C2_3 
REMARK    3  A    between atoms: C2_3  and  C3_4 
REMARK    4  A    between atoms: C3_4  and  C4_5 
REMARK    5  A    between atoms: C4_5  and  C5_6 
REMARK    6  A    between atoms: C5_6  and  C6_7 
REMARK    7  A    between atoms: C6_7  and  C7_8 
REMARK    8  A    between atoms: C7_8  and  O1_9 
REMARK    9  A    between atoms: O1_9  and  C8_10 
REMARK   10  A    between atoms: C10_12  and  C11_13 
REMARK   11  A    between atoms: C20_26  and  O2_27 
ROOT
HETATM    1  C8  UNL     1      30.839   6.251  48.381  1.00  0.00     0.101 C 
HETATM    2  C9  UNL     1      30.090   6.839  47.462  1.00  0.00     0.057 C 
HETATM    3  C10 UNL     1      30.009   8.236  47.793  1.00  0.00     0.147 A 
HETATM    4  N2  UNL     1      29.731   9.250  46.851  1.00  0.00    -0.256 NA
HETATM    5  C17 UNL     1      30.433  10.292  47.177  1.00  0.00     0.229 A 
HETATM    6  N3  UNL     1      31.236  10.029  48.351  1.00  0.00    -0.243 NA
HETATM    7  C18 UNL     1      30.990   8.786  48.716  1.00  0.00     0.077 A 
HETATM    8  C19 UNL     1      31.688   8.034  49.721  1.00  0.00     0.070 C 
HETATM    9  C20 UNL     1      31.625   6.706  49.521  1.00  0.00     0.100 C 
ENDROOT
BRANCH   1  10
HETATM   10  O1  UNL     1      30.962   4.856  48.207  1.00  0.00    -0.348 OA
BRANCH  10  11
HETATM   11  C7  UNL     1      31.801   4.294  47.247  1.00  0.00     0.176 C 
BRANCH  11  12
HETATM   12  C6  UNL     1      32.776   3.293  47.830  1.00  0.00     0.027 C 
BRANCH  12  13
HETATM   13  C5  UNL     1      33.684   2.770  46.734  1.00  0.00     0.003 C 
BRANCH  13  14
HETATM   14  C4  UNL     1      34.865   3.703  46.595  1.00  0.00     0.018 C 
BRANCH  14  15
HETATM   15  C3  UNL     1      35.142   3.953  45.161  1.00  0.00     0.073 C 
BRANCH  15  16
HETATM   16  C2  UNL     1      34.134   4.381  44.415  1.00  0.00    -0.133 C 
BRANCH  16  17
HETATM   17  C1  UNL     1      33.312   4.963  43.553  1.00  0.00     0.132 C 
BRANCH  17  18
HETATM   18  N1  UNL     1      33.470   4.604  42.191  1.00  0.00    -0.402 N 
HETATM   19  H1  UNL     1      33.849   3.841  41.570  1.00  0.00     0.156 HD
HETATM   20  H2  UNL     1      33.094   5.311  41.516  1.00  0.00     0.156 HD
ENDBRANCH  17  18
ENDBRANCH  16  17
ENDBRANCH  15  16
ENDBRANCH  14  15
ENDBRANCH  13  14
ENDBRANCH  12  13
ENDBRANCH  11  12
ENDBRANCH  10  11
ENDBRANCH   1  10
BRANCH   9  21
HETATM   21  O2  UNL     1      32.295   5.858  50.388  1.00  0.00    -0.358 OA
HETATM   22  H19 UNL     1      33.062   5.295  50.038  1.00  0.00     0.217 HD
ENDBRANCH   9  21
BRANCH   3  23
HETATM   23  C11 UNL     1      28.632   8.325  48.660  1.00  0.00    -0.016 A 
HETATM   24  C12 UNL     1      28.471   9.297  49.626  1.00  0.00     0.013 A 
HETATM   25  C13 UNL     1      27.254   9.234  50.265  1.00  0.00     0.045 A 
HETATM   26  C14 UNL     1      26.307   8.293  49.961  1.00  0.00     0.138 A 
HETATM   27  F1  UNL     1      25.117   8.291  50.638  1.00  0.00    -0.204 F 
HETATM   28  C15 UNL     1      26.526   7.346  48.983  1.00  0.00     0.073 A 
HETATM   29 CL1  UNL     1      25.346   6.124  48.559  1.00  0.00    -0.081 Cl
HETATM   30  C16 UNL     1      27.723   7.345  48.298  1.00  0.00     0.037 A 
ENDBRANCH   3  23
TORSDOF 11
ENDMDL
MODEL 9
REMARK VINA RESULT:      -6.4      3.376      5.846
REMARK  11 active torsions:
REMARK  status: ('A' for Active; 'I' for Inactive)
REMARK    1  A    between atoms: N1_1  and  C1_2 
REMARK    2  A    between atoms: C1_2  and  C2_3 
REMARK    3  A    between atoms: C2_3  and  C3_4 
REMARK    4  A    between atoms: C3_4  and  C4_5 
REMARK    5  A    between atoms: C4_5  and  C5_6 
REMARK    6  A    between atoms: C5_6  and  C6_7 
REMARK    7  A    between atoms: C6_7  and  C7_8 
REMARK    8  A    between atoms: C7_8  and  O1_9 
REMARK    9  A    between atoms: O1_9  and  C8_10 
REMARK   10  A    between atoms: C10_12  and  C11_13 
REMARK   11  A    between atoms: C20_26  and  O2_27 
ROOT
HETATM    1  C8  UNL     1      21.841   3.736  49.316  1.00  0.00     0.101 C 
HETATM    2  C9  UNL     1      22.055   3.940  50.606  1.00  0.00     0.057 C 
HETATM    3  C10 UNL     1      23.221   4.773  50.729  1.00  0.00     0.147 A 
HETATM    4  N2  UNL     1      23.487   5.587  51.851  1.00  0.00    -0.256 NA
HETATM    5  C17 UNL     1      24.047   6.676  51.422  1.00  0.00     0.229 A 
HETATM    6  N3  UNL     1      24.174   6.659  49.981  1.00  0.00    -0.243 NA
HETATM    7  C18 UNL     1      23.665   5.518  49.562  1.00  0.00     0.077 A 
HETATM    8  C19 UNL     1      23.415   5.140  48.198  1.00  0.00     0.070 C 
HETATM    9  C20 UNL     1      22.438   4.224  48.079  1.00  0.00     0.100 C 
ENDROOT
BRANCH   1  10
HETATM   10  O1  UNL     1      20.747   2.886  49.048  1.00  0.00    -0.348 OA
BRANCH  10  11
HETATM   11  C7  UNL     1      20.820   1.503  49.202  1.00  0.00     0.176 C 
BRANCH  11  12
HETATM   12  C6  UNL     1      19.757   0.956  50.131  1.00  0.00     0.027 C 
BRANCH  12  13
HETATM   13  C5  UNL     1      20.418   0.271  51.311  1.00  0.00     0.003 C 
BRANCH  13  14
HETATM   14  C4  UNL     1      20.013   0.987  52.579  1.00  0.00     0.018 C 
BRANCH  14  15
HETATM   15  C3  UNL     1      21.171   1.073  53.499  1.00  0.00     0.073 C 
BRANCH  15  16
HETATM   16  C2  UNL     1      21.477  -0.015  54.190  1.00  0.00    -0.133 C 
BRANCH  16  17
HETATM   17  C1  UNL     1      21.657  -1.233  54.682  1.00  0.00     0.132 C 
BRANCH  17  18
HETATM   18  N1  UNL     1      22.840  -1.441  55.434  1.00  0.00    -0.402 N 
HETATM   19  H1  UNL     1      23.575  -0.926  55.987  1.00  0.00     0.156 HD
HETATM   20  H2  UNL     1      23.137  -2.443  55.496  1.00  0.00     0.156 HD
ENDBRANCH  17  18
ENDBRANCH  16  17
ENDBRANCH  15  16
ENDBRANCH  14  15
ENDBRANCH  13  14
ENDBRANCH  12  13
ENDBRANCH  11  12
ENDBRANCH  10  11
ENDBRANCH   1  10
BRANCH   9  21
HETATM   21  O2  UNL     1      22.057   3.802  46.815  1.00  0.00    -0.358 OA
HETATM   22  H19 UNL     1      21.241   3.208  46.716  1.00  0.00     0.217 HD
ENDBRANCH   9  21
BRANCH   3  23
HETATM   23  C11 UNL     1      24.422   3.688  50.924  1.00  0.00    -0.016 A 
HETATM   24  C12 UNL     1      25.542   3.729  50.120  1.00  0.00     0.013 A 
HETATM   25  C13 UNL     1      26.460   2.746  50.413  1.00  0.00     0.045 A 
HETATM   26  C14 UNL     1      26.264   1.826  51.409  1.00  0.00     0.138 A 
HETATM   27  F1  UNL     1      27.221   0.876  51.646  1.00  0.00    -0.204 F 
HETATM   28  C15 UNL     1      25.122   1.837  52.181  1.00  0.00     0.073 A 
HETATM   29 CL1  UNL     1      24.829   0.682  53.464  1.00  0.00    -0.081 Cl
HETATM   30  C16 UNL     1      24.156   2.792  51.946  1.00  0.00     0.037 A 
ENDBRANCH   3  23
TORSDOF 11
ENDMDL
