MODEL 1
REMARK VINA RESULT:      -8.8      0.000      0.000
REMARK  5 active torsions:
REMARK  status: ('A' for Active; 'I' for Inactive)
REMARK    1  A    between atoms: O1_1  and  C1_2 
REMARK    2  A    between atoms: C3_4  and  N1_5 
REMARK    3  A    between atoms: C10_12  and  O2_13 
REMARK    4  A    between atoms: O2_13  and  C11_14 
REMARK    5  A    between atoms: C11_14  and  S1_15 
ROOT
HETATM    1  N1  UNL     1      26.231  -0.410  54.517  1.00  0.00    -0.233 NA
HETATM    2  C4  UNL     1      25.232   0.179  54.016  1.00  0.00     0.047 C 
HETATM    3  C5  UNL     1      23.828  -0.288  54.202  1.00  0.00     0.064 C 
HETATM    4  C6  UNL     1      23.005  -0.357  52.985  1.00  0.00     0.033 C 
HETATM    5  C7  UNL     1      21.618  -0.834  53.213  1.00  0.00    -0.026 C 
HETATM    6  C8  UNL     1      20.595  -0.012  53.075  1.00  0.00    -0.001 C 
HETATM    7  C9  UNL     1      20.487   1.382  52.734  1.00  0.00     0.036 C 
HETATM    8  C10 UNL     1      20.484   2.672  52.412  1.00  0.00     0.069 C 
HETATM    9  C12 UNL     1      21.616   3.518  52.147  1.00  0.00     0.037 C 
HETATM   10  C13 UNL     1      22.857   4.008  51.959  1.00  0.00     0.015 C 
HETATM   11  C14 UNL     1      24.048   3.169  52.082  1.00  0.00    -0.018 A 
HETATM   12  C15 UNL     1      23.973   2.252  53.094  1.00  0.00     0.026 A 
HETATM   13  C16 UNL     1      25.002   1.350  53.192  1.00  0.00    -0.011 A 
HETATM   14  C17 UNL     1      26.081   1.379  52.299  1.00  0.00     0.015 A 
HETATM   15  C18 UNL     1      26.174   2.314  51.266  1.00  0.00     0.021 A 
HETATM   16  C19 UNL     1      25.104   3.202  51.205  1.00  0.00     0.021 A 
HETATM   17 BR1  UNL     1      25.000   4.572  49.876  1.00  0.00    -0.050 Br
ENDROOT
BRANCH   1  18
HETATM   18  C3  UNL     1      27.590  -0.134  54.459  1.00  0.00     0.156 A 
HETATM   19  C2  UNL     1      28.958   0.348  54.525  1.00  0.00     0.110 A 
HETATM   20  C1  UNL     1      29.372  -0.690  53.820  1.00  0.00     0.167 A 
HETATM   21  N2  UNL     1      28.012  -1.156  53.762  1.00  0.00    -0.205 NA
BRANCH  20  22
HETATM   22  O1  UNL     1      30.761  -0.710  53.575  1.00  0.00    -0.345 OA
HETATM   23  H1  UNL     1      31.160  -1.515  53.066  1.00  0.00     0.219 HD
ENDBRANCH  20  22
ENDBRANCH   1  18
BRANCH   8  24
HETATM   24  O2  UNL     1      19.242   3.367  52.304  1.00  0.00    -0.342 OA
BRANCH  24  25
HETATM   25  C11 UNL     1      18.226   2.794  51.502  1.00  0.00     0.246 C 
BRANCH  25  26
HETATM   26  S1  UNL     1      16.849   3.983  51.518  1.00  0.00    -0.156 SA
HETATM   27  H12 UNL     1      15.759   3.334  52.176  1.00  0.00     0.103 HD
ENDBRANCH  25  26
ENDBRANCH  24  25
ENDBRANCH   8  24
TORSDOF 5
ENDMDL
MODEL 2
REMARK VINA RESULT:      -8.5      2.340      3.727
REMARK  5 active torsions:
REMARK  status: ('A' for Active; 'I' for Inactive)
REMARK    1  A    between atoms: O1_1  and  C1_2 
REMARK    2  A    between atoms: C3_4  and  N1_5 
REMARK    3  A    between atoms: C10_12  and  O2_13 
REMARK    4  A    between atoms: O2_13  and  C11_14 
REMARK    5  A    between atoms: C11_14  and  S1_15 
ROOT
HETATM    1  N1  UNL     1      26.269   0.431  52.207  1.00  0.00    -0.233 NA
HETATM    2  C4  UNL     1      25.120   0.956  52.204  1.00  0.00     0.047 C 
HETATM    3  C5  UNL     1      24.886   2.411  51.980  1.00  0.00     0.064 C 
HETATM    4  C6  UNL     1      23.973   3.071  52.926  1.00  0.00     0.033 C 
HETATM    5  C7  UNL     1      23.774   4.519  52.673  1.00  0.00    -0.026 C 
HETATM    6  C8  UNL     1      22.612   4.972  52.245  1.00  0.00    -0.001 C 
HETATM    7  C9  UNL     1      21.364   4.334  51.916  1.00  0.00     0.036 C 
HETATM    8  C10 UNL     1      20.253   3.660  51.636  1.00  0.00     0.069 C 
HETATM    9  C12 UNL     1      20.038   2.241  51.712  1.00  0.00     0.037 C 
HETATM   10  C13 UNL     1      20.176   0.913  51.897  1.00  0.00     0.015 C 
HETATM   11  C14 UNL     1      21.425   0.325  52.378  1.00  0.00    -0.018 A 
HETATM   12  C15 UNL     1      22.546   0.922  51.874  1.00  0.00     0.026 A 
HETATM   13  C16 UNL     1      23.753   0.503  52.374  1.00  0.00    -0.011 A 
HETATM   14  C17 UNL     1      23.825  -0.499  53.350  1.00  0.00     0.015 A 
HETATM   15  C18 UNL     1      22.689  -1.124  53.869  1.00  0.00     0.021 A 
HETATM   16  C19 UNL     1      21.491  -0.660  53.334  1.00  0.00     0.021 A 
HETATM   17 BR1  UNL     1      19.799  -1.356  53.887  1.00  0.00    -0.050 Br
ENDROOT
BRANCH   1  18
HETATM   18  C3  UNL     1      26.684  -0.881  52.393  1.00  0.00     0.156 A 
HETATM   19  C2  UNL     1      26.914  -2.312  52.482  1.00  0.00     0.110 A 
HETATM   20  C1  UNL     1      28.072  -2.102  53.081  1.00  0.00     0.167 A 
HETATM   21  N2  UNL     1      27.832  -0.687  52.987  1.00  0.00    -0.205 NA
BRANCH  20  22
HETATM   22  O1  UNL     1      28.774  -3.279  53.417  1.00  0.00    -0.345 OA
HETATM   23  H1  UNL     1      29.207  -3.344  54.353  1.00  0.00     0.219 HD
ENDBRANCH  20  22
ENDBRANCH   1  18
BRANCH   8  24
HETATM   24  O2  UNL     1      19.093   4.367  51.195  1.00  0.00    -0.342 OA
BRANCH  24  25
HETATM   25  C11 UNL     1      18.052   3.625  50.588  1.00  0.00     0.246 C 
BRANCH  25  26
HETATM   26  S1  UNL     1      16.569   3.932  51.598  1.00  0.00    -0.156 SA
HETATM   27  H12 UNL     1      16.988   3.880  52.963  1.00  0.00     0.103 HD
ENDBRANCH  25  26
ENDBRANCH  24  25
ENDBRANCH   8  24
TORSDOF 5
ENDMDL
MODEL 3
REMARK VINA RESULT:      -8.2      4.179      7.800
REMARK  5 active torsions:
REMARK  status: ('A' for Active; 'I' for Inactive)
REMARK    1  A    between atoms: O1_1  and  C1_2 
REMARK    2  A    between atoms: C3_4  and  N1_5 
REMARK    3  A    between atoms: C10_12  and  O2_13 
REMARK    4  A    between atoms: O2_13  and  C11_14 
REMARK    5  A    between atoms: C11_14  and  S1_15 
ROOT
HETATM    1  N1  UNL     1      18.908  -0.878  53.189  1.00  0.00    -0.233 NA
HETATM    2  C4  UNL     1      20.133  -0.571  53.215  1.00  0.00     0.047 C 
HETATM    3  C5  UNL     1      21.156  -1.350  53.971  1.00  0.00     0.064 C 
HETATM    4  C6  UNL     1      22.077  -0.564  54.807  1.00  0.00     0.033 C 
HETATM    5  C7  UNL     1      23.073  -1.377  55.548  1.00  0.00    -0.026 C 
HETATM    6  C8  UNL     1      24.352  -1.325  55.230  1.00  0.00    -0.001 C 
HETATM    7  C9  UNL     1      25.091  -0.605  54.225  1.00  0.00     0.036 C 
HETATM    8  C10 UNL     1      25.690   0.097  53.268  1.00  0.00     0.069 C 
HETATM    9  C12 UNL     1      25.082   0.979  52.309  1.00  0.00     0.037 C 
HETATM   10  C13 UNL     1      24.214   1.713  51.585  1.00  0.00     0.015 C 
HETATM   11  C14 UNL     1      22.781   1.723  51.873  1.00  0.00    -0.018 A 
HETATM   12  C15 UNL     1      22.285   0.505  52.242  1.00  0.00     0.026 A 
HETATM   13  C16 UNL     1      20.974   0.463  52.644  1.00  0.00    -0.011 A 
HETATM   14  C17 UNL     1      20.183   1.619  52.663  1.00  0.00     0.015 A 
HETATM   15  C18 UNL     1      20.675   2.870  52.281  1.00  0.00     0.021 A 
HETATM   16  C19 UNL     1      22.010   2.859  51.888  1.00  0.00     0.021 A 
HETATM   17 BR1  UNL     1      22.911   4.449  51.324  1.00  0.00    -0.050 Br
ENDROOT
BRANCH   1  18
HETATM   18  C3  UNL     1      17.823  -0.291  52.554  1.00  0.00     0.156 A 
HETATM   19  C2  UNL     1      16.849   0.429  51.752  1.00  0.00     0.110 A 
HETATM   20  C1  UNL     1      15.861  -0.093  52.458  1.00  0.00     0.167 A 
HETATM   21  N2  UNL     1      16.836  -0.800  53.244  1.00  0.00    -0.205 NA
BRANCH  20  22
HETATM   22  O1  UNL     1      14.575   0.318  52.051  1.00  0.00    -0.345 OA
HETATM   23  H1  UNL     1      14.394   1.330  51.940  1.00  0.00     0.219 HD
ENDBRANCH  20  22
ENDBRANCH   1  18
BRANCH   8  24
HETATM   24  O2  UNL     1      27.106   0.010  53.113  1.00  0.00    -0.342 OA
BRANCH  24  25
HETATM   25  C11 UNL     1      27.906   0.032  54.281  1.00  0.00     0.246 C 
BRANCH  25  26
HETATM   26  S1  UNL     1      29.534  -0.609  53.781  1.00  0.00    -0.156 SA
HETATM   27  H12 UNL     1      30.338  -0.647  54.962  1.00  0.00     0.103 HD
ENDBRANCH  25  26
ENDBRANCH  24  25
ENDBRANCH   8  24
TORSDOF 5
ENDMDL
MODEL 4
REMARK VINA RESULT:      -7.9      1.760      2.086
REMARK  5 active torsions:
REMARK  status: ('A' for Active; 'I' for Inactive)
REMARK    1  A    between atoms: O1_1  and  C1_2 
REMARK    2  A    between atoms: C3_4  and  N1_5 
REMARK    3  A    between atoms: C10_12  and  O2_13 
REMARK    4  A    between atoms: O2_13  and  C11_14 
REMARK    5  A    between atoms: C11_14  and  S1_15 
ROOT
HETATM    1  N1  UNL     1      25.246   0.678  53.362  1.00  0.00    -0.233 NA
HETATM    2  C4  UNL     1      24.170   1.185  52.935  1.00  0.00     0.047 C 
HETATM    3  C5  UNL     1      22.822   0.632  53.253  1.00  0.00     0.064 C 
HETATM    4  C6  UNL     1      21.905   0.472  52.114  1.00  0.00     0.033 C 
HETATM    5  C7  UNL     1      20.579  -0.089  52.473  1.00  0.00    -0.026 C 
HETATM    6  C8  UNL     1      19.494   0.659  52.404  1.00  0.00    -0.001 C 
HETATM    7  C9  UNL     1      19.262   2.032  52.040  1.00  0.00     0.036 C 
HETATM    8  C10 UNL     1      19.144   3.309  51.689  1.00  0.00     0.069 C 
HETATM    9  C12 UNL     1      20.188   4.220  51.306  1.00  0.00     0.037 C 
HETATM   10  C13 UNL     1      21.373   4.785  51.000  1.00  0.00     0.015 C 
HETATM   11  C14 UNL     1      22.624   4.030  51.040  1.00  0.00    -0.018 A 
HETATM   12  C15 UNL     1      22.699   3.142  52.076  1.00  0.00     0.026 A 
HETATM   13  C16 UNL     1      23.791   2.313  52.107  1.00  0.00    -0.011 A 
HETATM   14  C17 UNL     1      24.786   2.387  51.123  1.00  0.00     0.015 A 
HETATM   15  C18 UNL     1      24.727   3.294  50.063  1.00  0.00     0.021 A 
HETATM   16  C19 UNL     1      23.597   4.108  50.074  1.00  0.00     0.021 A 
HETATM   17 BR1  UNL     1      23.288   5.427  48.726  1.00  0.00    -0.050 Br
ENDROOT
BRANCH   1  18
HETATM   18  C3  UNL     1      26.573   1.042  53.180  1.00  0.00     0.156 A 
HETATM   19  C2  UNL     1      27.958   1.272  52.808  1.00  0.00     0.110 A 
HETATM   20  C1  UNL     1      28.096   2.134  53.799  1.00  0.00     0.167 A 
HETATM   21  N2  UNL     1      26.723   1.898  54.157  1.00  0.00    -0.205 NA
BRANCH  20  22
HETATM   22  O1  UNL     1      29.380   2.709  53.895  1.00  0.00    -0.345 OA
HETATM   23  H1  UNL     1      29.641   3.449  53.222  1.00  0.00     0.219 HD
ENDBRANCH  20  22
ENDBRANCH   1  18
BRANCH   8  24
HETATM   24  O2  UNL     1      17.852   3.917  51.672  1.00  0.00    -0.342 OA
BRANCH  24  25
HETATM   25  C11 UNL     1      16.719   3.070  51.624  1.00  0.00     0.246 C 
BRANCH  25  26
HETATM   26  S1  UNL     1      15.411   3.936  52.547  1.00  0.00    -0.156 SA
HETATM   27  H12 UNL     1      14.901   4.948  51.678  1.00  0.00     0.103 HD
ENDBRANCH  25  26
ENDBRANCH  24  25
ENDBRANCH   8  24
TORSDOF 5
ENDMDL
MODEL 5
REMARK VINA RESULT:      -7.9      3.853      5.274
REMARK  5 active torsions:
REMARK  status: ('A' for Active; 'I' for Inactive)
REMARK    1  A    between atoms: O1_1  and  C1_2 
REMARK    2  A    between atoms: C3_4  and  N1_5 
REMARK    3  A    between atoms: C10_12  and  O2_13 
REMARK    4  A    between atoms: O2_13  and  C11_14 
REMARK    5  A    between atoms: C11_14  and  S1_15 
ROOT
HETATM    1  N1  UNL     1      24.460   4.309  49.504  1.00  0.00    -0.233 NA
HETATM    2  C4  UNL     1      23.849   3.526  50.285  1.00  0.00     0.047 C 
HETATM    3  C5  UNL     1      22.366   3.525  50.448  1.00  0.00     0.064 C 
HETATM    4  C6  UNL     1      21.870   3.517  51.832  1.00  0.00     0.033 C 
HETATM    5  C7  UNL     1      20.391   3.524  51.949  1.00  0.00    -0.026 C 
HETATM    6  C8  UNL     1      19.748   2.464  52.402  1.00  0.00    -0.001 C 
HETATM    7  C9  UNL     1      20.178   1.163  52.843  1.00  0.00     0.036 C 
HETATM    8  C10 UNL     1      20.665  -0.011  53.231  1.00  0.00     0.069 C 
HETATM    9  C12 UNL     1      22.038  -0.438  53.239  1.00  0.00     0.037 C 
HETATM   10  C13 UNL     1      23.379  -0.507  53.122  1.00  0.00     0.015 C 
HETATM   11  C14 UNL     1      24.172   0.622  52.639  1.00  0.00    -0.018 A 
HETATM   12  C15 UNL     1      23.575   1.324  51.629  1.00  0.00     0.026 A 
HETATM   13  C16 UNL     1      24.206   2.467  51.209  1.00  0.00    -0.011 A 
HETATM   14  C17 UNL     1      25.412   2.885  51.786  1.00  0.00     0.015 A 
HETATM   15  C18 UNL     1      26.038   2.175  52.813  1.00  0.00     0.021 A 
HETATM   16  C19 UNL     1      25.356   1.027  53.207  1.00  0.00     0.021 A 
HETATM   17 BR1  UNL     1      26.010  -0.111  54.596  1.00  0.00    -0.050 Br
ENDROOT
BRANCH   1  18
HETATM   18  C3  UNL     1      25.809   4.459  49.217  1.00  0.00     0.156 A 
HETATM   19  C2  UNL     1      27.239   4.387  48.974  1.00  0.00     0.110 A 
HETATM   20  C1  UNL     1      27.262   5.666  48.644  1.00  0.00     0.167 A 
HETATM   21  N2  UNL     1      25.845   5.724  48.890  1.00  0.00    -0.205 NA
BRANCH  20  22
HETATM   22  O1  UNL     1      28.537   6.152  48.287  1.00  0.00    -0.345 OA
HETATM   23  H1  UNL     1      28.636   7.155  48.059  1.00  0.00     0.219 HD
ENDBRANCH  20  22
ENDBRANCH   1  18
BRANCH   8  24
HETATM   24  O2  UNL     1      19.774  -1.021  53.705  1.00  0.00    -0.342 OA
BRANCH  24  25
HETATM   25  C11 UNL     1      18.451  -1.030  53.202  1.00  0.00     0.246 C 
BRANCH  25  26
HETATM   26  S1  UNL     1      17.774  -2.668  53.614  1.00  0.00    -0.156 SA
HETATM   27  H12 UNL     1      17.313  -2.591  54.964  1.00  0.00     0.103 HD
ENDBRANCH  25  26
ENDBRANCH  24  25
ENDBRANCH   8  24
TORSDOF 5
ENDMDL
MODEL 6
REMARK VINA RESULT:      -7.5      3.708      5.195
REMARK  5 active torsions:
REMARK  status: ('A' for Active; 'I' for Inactive)
REMARK    1  A    between atoms: O1_1  and  C1_2 
REMARK    2  A    between atoms: C3_4  and  N1_5 
REMARK    3  A    between atoms: C10_12  and  O2_13 
REMARK    4  A    between atoms: O2_13  and  C11_14 
REMARK    5  A    between atoms: C11_14  and  S1_15 
ROOT
HETATM    1  N1  UNL     1      27.170   2.370  51.397  1.00  0.00    -0.233 NA
HETATM    2  C4  UNL     1      26.176   2.899  50.822  1.00  0.00     0.047 C 
HETATM    3  C5  UNL     1      26.299   4.000  49.824  1.00  0.00     0.064 C 
HETATM    4  C6  UNL     1      25.398   5.147  50.015  1.00  0.00     0.033 C 
HETATM    5  C7  UNL     1      25.558   6.222  49.005  1.00  0.00    -0.026 C 
HETATM    6  C8  UNL     1      24.610   6.457  48.119  1.00  0.00    -0.001 C 
HETATM    7  C9  UNL     1      23.331   5.851  47.857  1.00  0.00     0.036 C 
HETATM    8  C10 UNL     1      22.167   5.230  47.689  1.00  0.00     0.069 C 
HETATM    9  C12 UNL     1      21.646   4.115  48.431  1.00  0.00     0.037 C 
HETATM   10  C13 UNL     1      21.466   3.106  49.306  1.00  0.00     0.015 C 
HETATM   11  C14 UNL     1      22.459   2.781  50.329  1.00  0.00    -0.018 A 
HETATM   12  C15 UNL     1      23.751   2.903  49.900  1.00  0.00     0.026 A 
HETATM   13  C16 UNL     1      24.736   2.732  50.839  1.00  0.00    -0.011 A 
HETATM   14  C17 UNL     1      24.425   2.437  52.173  1.00  0.00     0.015 A 
HETATM   15  C18 UNL     1      23.110   2.302  52.624  1.00  0.00     0.021 A 
HETATM   16  C19 UNL     1      22.148   2.490  51.635  1.00  0.00     0.021 A 
HETATM   17 BR1  UNL     1      20.277   2.361  52.005  1.00  0.00    -0.050 Br
ENDROOT
BRANCH   1  18
HETATM   18  C3  UNL     1      27.258   1.352  52.336  1.00  0.00     0.156 A 
HETATM   19  C2  UNL     1      27.168   0.191  53.203  1.00  0.00     0.110 A 
HETATM   20  C1  UNL     1      28.180   0.635  53.927  1.00  0.00     0.167 A 
HETATM   21  N2  UNL     1      28.258   1.781  53.060  1.00  0.00    -0.205 NA
BRANCH  20  22
HETATM   22  O1  UNL     1      28.536  -0.202  55.005  1.00  0.00    -0.345 OA
HETATM   23  H1  UNL     1      29.449  -0.051  55.465  1.00  0.00     0.219 HD
ENDBRANCH  20  22
ENDBRANCH   1  18
BRANCH   8  24
HETATM   24  O2  UNL     1      21.279   5.668  46.660  1.00  0.00    -0.342 OA
BRANCH  24  25
HETATM   25  C11 UNL     1      21.732   5.612  45.321  1.00  0.00     0.246 C 
BRANCH  25  26
HETATM   26  S1  UNL     1      20.981   4.118  44.603  1.00  0.00    -0.156 SA
HETATM   27  H12 UNL     1      21.076   4.256  43.184  1.00  0.00     0.103 HD
ENDBRANCH  25  26
ENDBRANCH  24  25
ENDBRANCH   8  24
TORSDOF 5
ENDMDL
MODEL 7
REMARK VINA RESULT:      -7.3      9.402     11.030
REMARK  5 active torsions:
REMARK  status: ('A' for Active; 'I' for Inactive)
REMARK    1  A    between atoms: O1_1  and  C1_2 
REMARK    2  A    between atoms: C3_4  and  N1_5 
REMARK    3  A    between atoms: C10_12  and  O2_13 
REMARK    4  A    between atoms: O2_13  and  C11_14 
REMARK    5  A    between atoms: C11_14  and  S1_15 
ROOT
HETATM    1  N1  UNL     1      31.854   4.530  48.059  1.00  0.00    -0.233 NA
HETATM    2  C4  UNL     1      31.292   5.661  48.091  1.00  0.00     0.047 C 
HETATM    3  C5  UNL     1      29.866   5.856  48.481  1.00  0.00     0.064 C 
HETATM    4  C6  UNL     1      29.066   6.714  47.593  1.00  0.00     0.033 C 
HETATM    5  C7  UNL     1      27.652   6.874  48.012  1.00  0.00    -0.026 C 
HETATM    6  C8  UNL     1      27.211   8.036  48.457  1.00  0.00    -0.001 C 
HETATM    7  C9  UNL     1      27.838   9.314  48.669  1.00  0.00     0.036 C 
HETATM    8  C10 UNL     1      28.501  10.455  48.833  1.00  0.00     0.069 C 
HETATM    9  C12 UNL     1      29.892  10.713  48.580  1.00  0.00     0.037 C 
HETATM   10  C13 UNL     1      31.193  10.611  48.242  1.00  0.00     0.015 C 
HETATM   11  C14 UNL     1      31.764   9.366  47.731  1.00  0.00    -0.018 A 
HETATM   12  C15 UNL     1      31.271   8.244  48.337  1.00  0.00     0.026 A 
HETATM   13  C16 UNL     1      31.672   7.035  47.827  1.00  0.00    -0.011 A 
HETATM   14  C17 UNL     1      32.553   6.962  46.740  1.00  0.00     0.015 A 
HETATM   15  C18 UNL     1      33.070   8.099  46.116  1.00  0.00     0.021 A 
HETATM   16  C19 UNL     1      32.630   9.299  46.667  1.00  0.00     0.021 A 
HETATM   17 BR1  UNL     1      33.194  10.993  45.984  1.00  0.00    -0.050 Br
ENDROOT
BRANCH   1  18
HETATM   18  C3  UNL     1      33.148   4.151  47.730  1.00  0.00     0.156 A 
HETATM   19  C2  UNL     1      34.559   3.832  47.602  1.00  0.00     0.110 A 
HETATM   20  C1  UNL     1      34.360   3.380  46.377  1.00  0.00     0.167 A 
HETATM   21  N2  UNL     1      32.965   3.702  46.516  1.00  0.00    -0.205 NA
BRANCH  20  22
HETATM   22  O1  UNL     1      35.523   2.903  45.738  1.00  0.00    -0.345 OA
HETATM   23  H1  UNL     1      36.282   3.573  45.532  1.00  0.00     0.219 HD
ENDBRANCH  20  22
ENDBRANCH   1  18
BRANCH   8  24
HETATM   24  O2  UNL     1      27.810  11.605  49.321  1.00  0.00    -0.342 OA
BRANCH  24  25
HETATM   25  C11 UNL     1      28.334  12.881  49.002  1.00  0.00     0.246 C 
BRANCH  25  26
HETATM   26  S1  UNL     1      27.031  13.733  48.059  1.00  0.00    -0.156 SA
HETATM   27  H12 UNL     1      27.207  15.132  48.294  1.00  0.00     0.103 HD
ENDBRANCH  25  26
ENDBRANCH  24  25
ENDBRANCH   8  24
TORSDOF 5
ENDMDL
MODEL 8
REMARK VINA RESULT:      -6.9      2.623      3.922
REMARK  5 active torsions:
REMARK  status: ('A' for Active; 'I' for Inactive)
REMARK    1  A    between atoms: O1_1  and  C1_2 
REMARK    2  A    between atoms: C3_4  and  N1_5 
REMARK    3  A    between atoms: C10_12  and  O2_13 
REMARK    4  A    between atoms: O2_13  and  C11_14 
REMARK    5  A    between atoms: C11_14  and  S1_15 
ROOT
HETATM    1  N1  UNL     1      22.287  -0.734  53.530  1.00  0.00    -0.233 NA
HETATM    2  C4  UNL     1      21.335  -0.058  53.047  1.00  0.00     0.047 C 
HETATM    3  C5  UNL     1      19.901  -0.437  53.204  1.00  0.00     0.064 C 
HETATM    4  C6  UNL     1      19.086  -0.400  51.980  1.00  0.00     0.033 C 
HETATM    5  C7  UNL     1      17.669  -0.791  52.178  1.00  0.00    -0.026 C 
HETATM    6  C8  UNL     1      16.705   0.103  52.067  1.00  0.00    -0.001 C 
HETATM    7  C9  UNL     1      16.694   1.514  51.784  1.00  0.00     0.036 C 
HETATM    8  C10 UNL     1      16.781   2.814  51.517  1.00  0.00     0.069 C 
HETATM    9  C12 UNL     1      17.969   3.592  51.296  1.00  0.00     0.037 C 
HETATM   10  C13 UNL     1      19.242   4.004  51.137  1.00  0.00     0.015 C 
HETATM   11  C14 UNL     1      20.372   3.082  51.233  1.00  0.00    -0.018 A 
HETATM   12  C15 UNL     1      20.227   2.132  52.205  1.00  0.00     0.026 A 
HETATM   13  C16 UNL     1      21.192   1.159  52.273  1.00  0.00    -0.011 A 
HETATM   14  C17 UNL     1      22.279   1.152  51.389  1.00  0.00     0.015 A 
HETATM   15  C18 UNL     1      22.444   2.120  50.396  1.00  0.00     0.021 A 
HETATM   16  C19 UNL     1      21.437   3.081  50.365  1.00  0.00     0.021 A 
HETATM   17 BR1  UNL     1      21.439   4.508  49.094  1.00  0.00    -0.050 Br
ENDROOT
BRANCH   1  18
HETATM   18  C3  UNL     1      23.662  -0.548  53.494  1.00  0.00     0.156 A 
HETATM   19  C2  UNL     1      25.066  -0.290  53.230  1.00  0.00     0.110 A 
HETATM   20  C1  UNL     1      25.375  -0.626  54.469  1.00  0.00     0.167 A 
HETATM   21  N2  UNL     1      23.981  -0.879  54.717  1.00  0.00    -0.205 NA
BRANCH  20  22
HETATM   22  O1  UNL     1      26.751  -0.542  54.769  1.00  0.00    -0.345 OA
HETATM   23  H1  UNL     1      27.047   0.049  55.563  1.00  0.00     0.219 HD
ENDBRANCH  20  22
ENDBRANCH   1  18
BRANCH   8  24
HETATM   24  O2  UNL     1      15.589   3.595  51.430  1.00  0.00    -0.342 OA
BRANCH  24  25
HETATM   25  C11 UNL     1      15.003   4.052  52.634  1.00  0.00     0.246 C 
BRANCH  25  26
HETATM   26  S1  UNL     1      13.242   3.605  52.532  1.00  0.00    -0.156 SA
HETATM   27  H12 UNL     1      12.663   4.454  51.539  1.00  0.00     0.103 HD
ENDBRANCH  25  26
ENDBRANCH  24  25
ENDBRANCH   8  24
TORSDOF 5
ENDMDL
MODEL 9
REMARK VINA RESULT:      -6.8      4.043      5.554
REMARK  5 active torsions:
REMARK  status: ('A' for Active; 'I' for Inactive)
REMARK    1  A    between atoms: O1_1  and  C1_2 
REMARK    2  A    between atoms: C3_4  and  N1_5 
REMARK    3  A    between atoms: C10_12  and  O2_13 
REMARK    4  A    between atoms: O2_13  and  C11_14 
REMARK    5  A    between atoms: C11_14  and  S1_15 
ROOT
HETATM    1  N1  UNL     1      20.950   1.272  53.048  1.00  0.00    -0.233 NA
HETATM    2  C4  UNL     1      21.213   2.323  52.399  1.00  0.00     0.047 C 
HETATM    3  C5  UNL     1      20.171   3.293  51.955  1.00  0.00     0.064 C 
HETATM    4  C6  UNL     1      20.252   3.730  50.552  1.00  0.00     0.033 C 
HETATM    5  C7  UNL     1      19.192   4.688  50.150  1.00  0.00    -0.026 C 
HETATM    6  C8  UNL     1      19.491   5.944  49.878  1.00  0.00    -0.001 C 
HETATM    7  C9  UNL     1      20.722   6.691  49.892  1.00  0.00     0.036 C 
HETATM    8  C10 UNL     1      21.902   7.300  49.933  1.00  0.00     0.069 C 
HETATM    9  C12 UNL     1      23.172   6.740  50.308  1.00  0.00     0.037 C 
HETATM   10  C13 UNL     1      24.166   5.918  50.699  1.00  0.00     0.015 C 
HETATM   11  C14 UNL     1      23.928   4.510  51.011  1.00  0.00    -0.018 A 
HETATM   12  C15 UNL     1      22.747   4.281  51.660  1.00  0.00     0.026 A 
HETATM   13  C16 UNL     1      22.400   2.972  51.878  1.00  0.00    -0.011 A 
HETATM   14  C17 UNL     1      23.228   1.923  51.459  1.00  0.00     0.015 A 
HETATM   15  C18 UNL     1      24.441   2.141  50.801  1.00  0.00     0.021 A 
HETATM   16  C19 UNL     1      24.744   3.485  50.600  1.00  0.00     0.021 A 
HETATM   17 BR1  UNL     1      26.347   4.039  49.718  1.00  0.00    -0.050 Br
ENDROOT
BRANCH   1  18
HETATM   18  C3  UNL     1      21.766   0.265  53.543  1.00  0.00     0.156 A 
HETATM   19  C2  UNL     1      22.736  -0.769  53.856  1.00  0.00     0.110 A 
HETATM   20  C1  UNL     1      22.165  -0.970  55.030  1.00  0.00     0.167 A 
HETATM   21  N2  UNL     1      21.210   0.056  54.708  1.00  0.00    -0.205 NA
BRANCH  20  22
HETATM   22  O1  UNL     1      22.778  -1.971  55.812  1.00  0.00    -0.345 OA
HETATM   23  H1  UNL     1      22.277  -2.323  56.644  1.00  0.00     0.219 HD
ENDBRANCH  20  22
ENDBRANCH   1  18
BRANCH   8  24
HETATM   24  O2  UNL     1      21.995   8.680  49.579  1.00  0.00    -0.342 OA
BRANCH  24  25
HETATM   25  C11 UNL     1      23.024   9.072  48.689  1.00  0.00     0.246 C 
BRANCH  25  26
HETATM   26  S1  UNL     1      22.389   8.740  47.016  1.00  0.00    -0.156 SA
HETATM   27  H12 UNL     1      23.422   8.040  46.320  1.00  0.00     0.103 HD
ENDBRANCH  25  26
ENDBRANCH  24  25
ENDBRANCH   8  24
TORSDOF 5
ENDMDL
