MODEL 1
REMARK VINA RESULT:      -8.4      0.000      0.000
REMARK  6 active torsions:
REMARK  status: ('A' for Active; 'I' for Inactive)
REMARK    1  A    between atoms: N1_1  and  C1_2 
REMARK    2  A    between atoms: C1_2  and  C2_3 
REMARK    3  A    between atoms: C2_3  and  C3_4 
REMARK    4  A    between atoms: C3_4  and  C4_5 
REMARK    5  A    between atoms: N3_21  and  C17_22 
REMARK    6  A    between atoms: C18_24  and  O2_25 
ROOT
HETATM    1  C1  UNL     1      24.097   2.687  52.000  1.00  0.00     0.261 C 
HETATM    2  C10 UNL     1      23.268   1.420  52.156  1.00  0.00     0.045 A 
HETATM    3  C11 UNL     1      22.518   1.368  51.025  1.00  0.00     0.030 A 
HETATM    4  C12 UNL     1      21.383   0.633  50.643  1.00  0.00     0.059 A 
HETATM    5  C13 UNL     1      21.859   0.375  51.952  1.00  0.00     0.027 A 
HETATM    6  C14 UNL     1      22.350   0.165  53.187  1.00  0.00    -0.030 A 
HETATM    7  C15 UNL     1      23.489   0.974  53.409  1.00  0.00     0.028 A 
HETATM    8  P1  UNL     1      19.982   0.726  51.960  1.00  0.00    -0.004 P 
HETATM    9  O1  UNL     1      19.825   2.507  51.973  1.00  0.00    -0.323 OA
HETATM   10  C16 UNL     1      20.810   3.397  52.282  1.00  0.00     0.277 C 
HETATM   11  N2  UNL     1      21.974   4.000  52.267  1.00  0.00    -0.156 NA
HETATM   12  N3  UNL     1      23.104   3.728  51.526  1.00  0.00    -0.203 N 
HETATM   13  H16 UNL     1      19.425   0.243  53.187  1.00  0.00     0.083 HD
ENDROOT
BRANCH   1  14
HETATM   14  N1  UNL     1      24.617   3.195  53.247  1.00  0.00     0.110 N 
HETATM   15  H1  UNL     1      23.817   3.682  53.722  1.00  0.00     0.316 HD
HETATM   16  H2  UNL     1      24.891   2.349  53.848  1.00  0.00     0.316 HD
ENDBRANCH   1  14
BRANCH   1  17
HETATM   17  C2  UNL     1      25.136   2.581  50.978  1.00  0.00     0.071 C 
BRANCH  17  18
HETATM   18  C3  UNL     1      26.570   2.567  51.456  1.00  0.00     0.043 C 
BRANCH  18  19
HETATM   19  C4  UNL     1      27.022   1.343  52.088  1.00  0.00    -0.058 A 
HETATM   20  C5  UNL     1      26.667  -0.003  51.975  1.00  0.00     0.007 A 
HETATM   21  C6  UNL     1      27.244  -1.004  52.692  1.00  0.00     0.001 A 
HETATM   22  C7  UNL     1      28.233  -0.772  53.600  1.00  0.00     0.000 A 
HETATM   23  C8  UNL     1      28.624   0.515  53.756  1.00  0.00     0.001 A 
HETATM   24  C9  UNL     1      28.047   1.517  53.037  1.00  0.00     0.007 A 
ENDBRANCH  18  19
ENDBRANCH  17  18
ENDBRANCH   1  17
BRANCH  12  25
HETATM   25  C17 UNL     1      23.172   4.535  50.342  1.00  0.00     0.194 A 
HETATM   26  N4  UNL     1      22.844   4.549  49.181  1.00  0.00    -0.198 NA
HETATM   27  C18 UNL     1      23.125   5.532  48.344  1.00  0.00     0.171 A 
HETATM   28  C19 UNL     1      23.896   6.700  48.872  1.00  0.00     0.111 A 
HETATM   29  S1  UNL     1      24.121   6.141  50.667  1.00  0.00    -0.058 SA
BRANCH  27  30
HETATM   30  O2  UNL     1      22.630   5.301  47.055  1.00  0.00    -0.344 OA
HETATM   31  H18 UNL     1      22.991   4.555  46.473  1.00  0.00     0.219 HD
ENDBRANCH  27  30
ENDBRANCH  12  25
TORSDOF 6
ENDMDL
MODEL 2
REMARK VINA RESULT:      -7.9      2.219      3.700
REMARK  6 active torsions:
REMARK  status: ('A' for Active; 'I' for Inactive)
REMARK    1  A    between atoms: N1_1  and  C1_2 
REMARK    2  A    between atoms: C1_2  and  C2_3 
REMARK    3  A    between atoms: C2_3  and  C3_4 
REMARK    4  A    between atoms: C3_4  and  C4_5 
REMARK    5  A    between atoms: N3_21  and  C17_22 
REMARK    6  A    between atoms: C18_24  and  O2_25 
ROOT
HETATM    1  C1  UNL     1      23.831   3.292  51.024  1.00  0.00     0.261 C 
HETATM    2  C10 UNL     1      23.351   1.897  51.401  1.00  0.00     0.045 A 
HETATM    3  C11 UNL     1      22.307   1.665  50.566  1.00  0.00     0.030 A 
HETATM    4  C12 UNL     1      21.271   0.715  50.544  1.00  0.00     0.059 A 
HETATM    5  C13 UNL     1      22.176   0.599  51.627  1.00  0.00     0.027 A 
HETATM    6  C14 UNL     1      23.063   0.530  52.638  1.00  0.00    -0.030 A 
HETATM    7  C15 UNL     1      24.038   1.547  52.508  1.00  0.00     0.028 A 
HETATM    8  P1  UNL     1      20.367   0.589  52.239  1.00  0.00    -0.004 P 
HETATM    9  O1  UNL     1      19.886   2.307  52.347  1.00  0.00    -0.323 OA
HETATM   10  C16 UNL     1      20.730   3.378  52.351  1.00  0.00     0.277 C 
HETATM   11  N2  UNL     1      21.693   4.189  51.984  1.00  0.00    -0.156 NA
HETATM   12  N3  UNL     1      22.561   4.109  50.917  1.00  0.00    -0.203 N 
HETATM   13  H16 UNL     1      20.329   0.054  53.566  1.00  0.00     0.083 HD
ENDROOT
BRANCH   1  14
HETATM   14  N1  UNL     1      24.612   3.934  52.055  1.00  0.00     0.110 N 
HETATM   15  H1  UNL     1      25.556   4.120  51.635  1.00  0.00     0.316 HD
HETATM   16  H2  UNL     1      24.151   4.881  52.262  1.00  0.00     0.316 HD
ENDBRANCH   1  14
BRANCH   1  17
HETATM   17  C2  UNL     1      24.495   3.347  49.724  1.00  0.00     0.071 C 
BRANCH  17  18
HETATM   18  C3  UNL     1      26.006   3.379  49.725  1.00  0.00     0.043 C 
BRANCH  18  19
HETATM   19  C4  UNL     1      26.623   4.545  49.123  1.00  0.00    -0.058 A 
HETATM   20  C5  UNL     1      27.913   4.849  48.681  1.00  0.00     0.007 A 
HETATM   21  C6  UNL     1      28.268   6.043  48.138  1.00  0.00     0.001 A 
HETATM   22  C7  UNL     1      27.379   7.063  47.979  1.00  0.00     0.000 A 
HETATM   23  C8  UNL     1      26.109   6.831  48.388  1.00  0.00     0.001 A 
HETATM   24  C9  UNL     1      25.753   5.635  48.930  1.00  0.00     0.007 A 
ENDBRANCH  18  19
ENDBRANCH  17  18
ENDBRANCH   1  17
BRANCH  12  25
HETATM   25  C17 UNL     1      22.097   4.871  49.793  1.00  0.00     0.194 A 
HETATM   26  N4  UNL     1      21.612   4.747  48.695  1.00  0.00    -0.198 NA
HETATM   27  C18 UNL     1      21.321   5.757  47.896  1.00  0.00     0.171 A 
HETATM   28  C19 UNL     1      21.608   7.141  48.387  1.00  0.00     0.111 A 
HETATM   29  S1  UNL     1      22.328   6.727  50.087  1.00  0.00    -0.058 SA
BRANCH  27  30
HETATM   30  O2  UNL     1      20.768   5.341  46.679  1.00  0.00    -0.344 OA
HETATM   31  H18 UNL     1      20.151   5.939  46.143  1.00  0.00     0.219 HD
ENDBRANCH  27  30
ENDBRANCH  12  25
TORSDOF 6
ENDMDL
MODEL 3
REMARK VINA RESULT:      -7.6      9.048     11.572
REMARK  6 active torsions:
REMARK  status: ('A' for Active; 'I' for Inactive)
REMARK    1  A    between atoms: N1_1  and  C1_2 
REMARK    2  A    between atoms: C1_2  and  C2_3 
REMARK    3  A    between atoms: C2_3  and  C3_4 
REMARK    4  A    between atoms: C3_4  and  C4_5 
REMARK    5  A    between atoms: N3_21  and  C17_22 
REMARK    6  A    between atoms: C18_24  and  O2_25 
ROOT
HETATM    1  C1  UNL     1      31.734   6.846  48.258  1.00  0.00     0.261 C 
HETATM    2  C10 UNL     1      31.433   8.306  47.948  1.00  0.00     0.045 A 
HETATM    3  C11 UNL     1      31.954   8.501  46.711  1.00  0.00     0.030 A 
HETATM    4  C12 UNL     1      32.256   9.644  45.951  1.00  0.00     0.059 A 
HETATM    5  C13 UNL     1      31.709   9.896  47.233  1.00  0.00     0.027 A 
HETATM    6  C14 UNL     1      31.187  10.083  48.459  1.00  0.00    -0.030 A 
HETATM    7  C15 UNL     1      30.937   8.839  49.084  1.00  0.00     0.028 A 
HETATM    8  P1  UNL     1      33.293  10.924  46.947  1.00  0.00    -0.004 P 
HETATM    9  O1  UNL     1      34.653   9.831  47.339  1.00  0.00    -0.323 OA
HETATM   10  C16 UNL     1      34.568   8.662  48.035  1.00  0.00     0.277 C 
HETATM   11  N2  UNL     1      34.161   7.468  48.391  1.00  0.00    -0.156 NA
HETATM   12  N3  UNL     1      33.181   6.667  47.848  1.00  0.00    -0.203 N 
HETATM   13  H16 UNL     1      33.326  11.997  47.893  1.00  0.00     0.083 HD
ENDROOT
BRANCH   1  14
HETATM   14  N1  UNL     1      31.694   6.532  49.666  1.00  0.00     0.110 N 
HETATM   15  H1  UNL     1      32.434   5.806  49.826  1.00  0.00     0.316 HD
HETATM   16  H2  UNL     1      31.981   7.419  50.199  1.00  0.00     0.316 HD
ENDBRANCH   1  14
BRANCH   1  17
HETATM   17  C2  UNL     1      30.939   5.908  47.467  1.00  0.00     0.071 C 
BRANCH  17  18
HETATM   18  C3  UNL     1      29.854   5.146  48.193  1.00  0.00     0.043 C 
BRANCH  18  19
HETATM   19  C4  UNL     1      28.540   5.759  48.206  1.00  0.00    -0.058 A 
HETATM   20  C5  UNL     1      28.029   6.983  47.767  1.00  0.00     0.007 A 
HETATM   21  C6  UNL     1      26.727   7.351  47.890  1.00  0.00     0.001 A 
HETATM   22  C7  UNL     1      25.793   6.542  48.466  1.00  0.00     0.000 A 
HETATM   23  C8  UNL     1      26.226   5.339  48.913  1.00  0.00     0.001 A 
HETATM   24  C9  UNL     1      27.530   4.970  48.787  1.00  0.00     0.007 A 
ENDBRANCH  18  19
ENDBRANCH  17  18
ENDBRANCH   1  17
BRANCH  12  25
HETATM   25  C17 UNL     1      33.721   5.716  46.920  1.00  0.00     0.194 A 
HETATM   26  N4  UNL     1      33.834   5.498  45.739  1.00  0.00    -0.198 NA
HETATM   27  C18 UNL     1      34.425   4.430  45.235  1.00  0.00     0.171 A 
HETATM   28  C19 UNL     1      34.992   3.430  46.192  1.00  0.00     0.111 A 
HETATM   29  S1  UNL     1      34.536   4.267  47.827  1.00  0.00    -0.058 SA
BRANCH  27  30
HETATM   30  O2  UNL     1      34.420   4.419  43.836  1.00  0.00    -0.344 OA
HETATM   31  H18 UNL     1      34.603   3.573  43.310  1.00  0.00     0.219 HD
ENDBRANCH  27  30
ENDBRANCH  12  25
TORSDOF 6
ENDMDL
MODEL 4
REMARK VINA RESULT:      -7.5      1.921      2.312
REMARK  6 active torsions:
REMARK  status: ('A' for Active; 'I' for Inactive)
REMARK    1  A    between atoms: N1_1  and  C1_2 
REMARK    2  A    between atoms: C1_2  and  C2_3 
REMARK    3  A    between atoms: C2_3  and  C3_4 
REMARK    4  A    between atoms: C3_4  and  C4_5 
REMARK    5  A    between atoms: N3_21  and  C17_22 
REMARK    6  A    between atoms: C18_24  and  O2_25 
ROOT
HETATM    1  C1  UNL     1      24.418   3.381  51.656  1.00  0.00     0.261 C 
HETATM    2  C10 UNL     1      23.550   2.326  50.983  1.00  0.00     0.045 A 
HETATM    3  C11 UNL     1      23.302   2.834  49.749  1.00  0.00     0.030 A 
HETATM    4  C12 UNL     1      22.382   2.519  48.734  1.00  0.00     0.059 A 
HETATM    5  C13 UNL     1      22.298   1.716  49.898  1.00  0.00     0.027 A 
HETATM    6  C14 UNL     1      22.258   0.981  51.025  1.00  0.00    -0.030 A 
HETATM    7  C15 UNL     1      23.247   1.421  51.936  1.00  0.00     0.028 A 
HETATM    8  P1  UNL     1      20.581   2.390  49.403  1.00  0.00    -0.004 P 
HETATM    9  O1  UNL     1      20.495   4.038  50.089  1.00  0.00    -0.323 OA
HETATM   10  C16 UNL     1      21.311   4.550  51.054  1.00  0.00     0.277 C 
HETATM   11  N2  UNL     1      22.409   4.884  51.689  1.00  0.00    -0.156 NA
HETATM   12  N3  UNL     1      23.727   4.691  51.340  1.00  0.00    -0.203 N 
HETATM   13  H16 UNL     1      19.572   1.608  50.050  1.00  0.00     0.083 HD
ENDROOT
BRANCH   1  14
HETATM   14  N1  UNL     1      24.426   3.290  53.096  1.00  0.00     0.110 N 
HETATM   15  H1  UNL     1      24.183   2.296  53.330  1.00  0.00     0.316 HD
HETATM   16  H2  UNL     1      25.433   3.468  53.423  1.00  0.00     0.316 HD
ENDBRANCH   1  14
BRANCH   1  17
HETATM   17  C2  UNL     1      25.770   3.459  51.107  1.00  0.00     0.071 C 
BRANCH  17  18
HETATM   18  C3  UNL     1      26.487   2.151  50.860  1.00  0.00     0.043 C 
BRANCH  18  19
HETATM   19  C4  UNL     1      27.091   1.523  52.018  1.00  0.00    -0.058 A 
HETATM   20  C5  UNL     1      27.922   1.969  53.049  1.00  0.00     0.007 A 
HETATM   21  C6  UNL     1      28.378   1.176  54.055  1.00  0.00     0.001 A 
HETATM   22  C7  UNL     1      28.059  -0.146  54.141  1.00  0.00     0.000 A 
HETATM   23  C8  UNL     1      27.254  -0.641  53.170  1.00  0.00     0.001 A 
HETATM   24  C9  UNL     1      26.797   0.154  52.164  1.00  0.00     0.007 A 
ENDBRANCH  18  19
ENDBRANCH  17  18
ENDBRANCH   1  17
BRANCH  12  25
HETATM   25  C17 UNL     1      24.283   5.845  50.694  1.00  0.00     0.194 A 
HETATM   26  N4  UNL     1      24.914   6.849  50.919  1.00  0.00    -0.198 NA
HETATM   27  C18 UNL     1      25.240   7.739  50.000  1.00  0.00     0.171 A 
HETATM   28  C19 UNL     1      24.801   7.483  48.593  1.00  0.00     0.111 A 
HETATM   29  S1  UNL     1      23.895   5.841  48.841  1.00  0.00    -0.058 SA
BRANCH  27  30
HETATM   30  O2  UNL     1      25.972   8.812  50.523  1.00  0.00    -0.344 OA
HETATM   31  H18 UNL     1      25.738   9.772  50.303  1.00  0.00     0.219 HD
ENDBRANCH  27  30
ENDBRANCH  12  25
TORSDOF 6
ENDMDL
MODEL 5
REMARK VINA RESULT:      -7.4      2.207      3.178
REMARK  6 active torsions:
REMARK  status: ('A' for Active; 'I' for Inactive)
REMARK    1  A    between atoms: N1_1  and  C1_2 
REMARK    2  A    between atoms: C1_2  and  C2_3 
REMARK    3  A    between atoms: C2_3  and  C3_4 
REMARK    4  A    between atoms: C3_4  and  C4_5 
REMARK    5  A    between atoms: N3_21  and  C17_22 
REMARK    6  A    between atoms: C18_24  and  O2_25 
ROOT
HETATM    1  C1  UNL     1      20.992   0.751  52.786  1.00  0.00     0.261 C 
HETATM    2  C10 UNL     1      19.744   0.134  52.169  1.00  0.00     0.045 A 
HETATM    3  C11 UNL     1      19.749   0.580  50.887  1.00  0.00     0.030 A 
HETATM    4  C12 UNL     1      18.785   0.614  49.865  1.00  0.00     0.059 A 
HETATM    5  C13 UNL     1      18.351   0.046  51.088  1.00  0.00     0.027 A 
HETATM    6  C14 UNL     1      17.987  -0.485  52.270  1.00  0.00    -0.030 A 
HETATM    7  C15 UNL     1      19.069  -0.447  53.181  1.00  0.00     0.028 A 
HETATM    8  P1  UNL     1      17.116   1.363  50.466  1.00  0.00    -0.004 P 
HETATM    9  O1  UNL     1      17.776   2.935  51.006  1.00  0.00    -0.323 OA
HETATM   10  C16 UNL     1      18.736   3.118  51.957  1.00  0.00     0.277 C 
HETATM   11  N2  UNL     1      19.867   2.986  52.607  1.00  0.00    -0.156 NA
HETATM   12  N3  UNL     1      20.960   2.195  52.332  1.00  0.00    -0.203 N 
HETATM   13  H16 UNL     1      15.864   1.178  51.134  1.00  0.00     0.083 HD
ENDROOT
BRANCH   1  14
HETATM   14  N1  UNL     1      20.959   0.803  54.227  1.00  0.00     0.110 N 
HETATM   15  H1  UNL     1      21.874   0.406  54.557  1.00  0.00     0.316 HD
HETATM   16  H2  UNL     1      20.929   1.838  54.510  1.00  0.00     0.316 HD
ENDBRANCH   1  14
BRANCH   1  17
HETATM   17  C2  UNL     1      22.236   0.166  52.289  1.00  0.00     0.071 C 
BRANCH  17  18
HETATM   18  C3  UNL     1      23.219  -0.337  53.322  1.00  0.00     0.043 C 
BRANCH  18  19
HETATM   19  C4  UNL     1      24.622  -0.111  53.035  1.00  0.00    -0.058 A 
HETATM   20  C5  UNL     1      25.776  -0.893  53.129  1.00  0.00     0.007 A 
HETATM   21  C6  UNL     1      27.019  -0.455  52.796  1.00  0.00     0.001 A 
HETATM   22  C7  UNL     1      27.248   0.808  52.337  1.00  0.00     0.000 A 
HETATM   23  C8  UNL     1      26.167   1.617  52.223  1.00  0.00     0.001 A 
HETATM   24  C9  UNL     1      24.922   1.177  52.554  1.00  0.00     0.007 A 
ENDBRANCH  18  19
ENDBRANCH  17  18
ENDBRANCH   1  17
BRANCH  12  25
HETATM   25  C17 UNL     1      21.973   2.914  51.614  1.00  0.00     0.194 A 
HETATM   26  N4  UNL     1      22.548   2.942  50.553  1.00  0.00    -0.198 NA
HETATM   27  C18 UNL     1      23.501   3.805  50.251  1.00  0.00     0.171 A 
HETATM   28  C19 UNL     1      23.887   4.812  51.289  1.00  0.00     0.111 A 
HETATM   29  S1  UNL     1      22.703   4.302  52.674  1.00  0.00    -0.058 SA
BRANCH  27  30
HETATM   30  O2  UNL     1      24.004   3.623  48.957  1.00  0.00    -0.344 OA
HETATM   31  H18 UNL     1      24.035   4.381  48.287  1.00  0.00     0.219 HD
ENDBRANCH  27  30
ENDBRANCH  12  25
TORSDOF 6
ENDMDL
MODEL 6
REMARK VINA RESULT:      -7.1      8.431     10.150
REMARK  6 active torsions:
REMARK  status: ('A' for Active; 'I' for Inactive)
REMARK    1  A    between atoms: N1_1  and  C1_2 
REMARK    2  A    between atoms: C1_2  and  C2_3 
REMARK    3  A    between atoms: C2_3  and  C3_4 
REMARK    4  A    between atoms: C3_4  and  C4_5 
REMARK    5  A    between atoms: N3_21  and  C17_22 
REMARK    6  A    between atoms: C18_24  and  O2_25 
ROOT
HETATM    1  C1  UNL     1      30.195   6.557  48.065  1.00  0.00     0.261 C 
HETATM    2  C10 UNL     1      28.766   6.866  47.640  1.00  0.00     0.045 A 
HETATM    3  C11 UNL     1      28.895   7.866  46.731  1.00  0.00     0.030 A 
HETATM    4  C12 UNL     1      27.995   8.777  46.152  1.00  0.00     0.059 A 
HETATM    5  C13 UNL     1      27.427   7.875  47.085  1.00  0.00     0.027 A 
HETATM    6  C14 UNL     1      26.936   6.996  47.978  1.00  0.00    -0.030 A 
HETATM    7  C15 UNL     1      27.965   6.152  48.457  1.00  0.00     0.028 A 
HETATM    8  P1  UNL     1      26.921   9.674  47.475  1.00  0.00    -0.004 P 
HETATM    9  O1  UNL     1      28.278  10.364  48.413  1.00  0.00    -0.323 OA
HETATM   10  C16 UNL     1      29.271   9.657  49.025  1.00  0.00     0.277 C 
HETATM   11  N2  UNL     1      30.247   8.798  49.194  1.00  0.00    -0.156 NA
HETATM   12  N3  UNL     1      30.817   7.918  48.301  1.00  0.00    -0.203 N 
HETATM   13  H16 UNL     1      25.777   9.658  48.334  1.00  0.00     0.083 HD
ENDROOT
BRANCH   1  14
HETATM   14  N1  UNL     1      30.286   5.871  49.331  1.00  0.00     0.110 N 
HETATM   15  H1  UNL     1      29.590   6.333  49.967  1.00  0.00     0.316 HD
HETATM   16  H2  UNL     1      29.965   4.859  49.171  1.00  0.00     0.316 HD
ENDBRANCH   1  14
BRANCH   1  17
HETATM   17  C2  UNL     1      30.981   5.894  47.027  1.00  0.00     0.071 C 
BRANCH  17  18
HETATM   18  C3  UNL     1      31.564   4.541  47.367  1.00  0.00     0.043 C 
BRANCH  18  19
HETATM   19  C4  UNL     1      32.826   4.211  46.734  1.00  0.00    -0.058 A 
HETATM   20  C5  UNL     1      33.890   3.366  47.060  1.00  0.00     0.007 A 
HETATM   21  C6  UNL     1      35.003   3.215  46.294  1.00  0.00     0.001 A 
HETATM   22  C7  UNL     1      35.178   3.892  45.124  1.00  0.00     0.000 A 
HETATM   23  C8  UNL     1      34.180   4.729  44.751  1.00  0.00     0.001 A 
HETATM   24  C9  UNL     1      33.065   4.877  45.518  1.00  0.00     0.007 A 
ENDBRANCH  18  19
ENDBRANCH  17  18
ENDBRANCH   1  17
BRANCH  12  25
HETATM   25  C17 UNL     1      31.999   8.461  47.696  1.00  0.00     0.194 A 
HETATM   26  N4  UNL     1      32.363   9.185  46.802  1.00  0.00    -0.198 NA
HETATM   27  C18 UNL     1      33.628   9.447  46.530  1.00  0.00     0.171 A 
HETATM   28  C19 UNL     1      34.674   8.808  47.387  1.00  0.00     0.111 A 
HETATM   29  S1  UNL     1      33.559   7.830  48.563  1.00  0.00    -0.058 SA
BRANCH  27  30
HETATM   30  O2  UNL     1      33.778  10.316  45.442  1.00  0.00    -0.344 OA
HETATM   31  H18 UNL     1      34.326  10.061  44.630  1.00  0.00     0.219 HD
ENDBRANCH  27  30
ENDBRANCH  12  25
TORSDOF 6
ENDMDL
MODEL 7
REMARK VINA RESULT:      -7.1      7.084      9.898
REMARK  6 active torsions:
REMARK  status: ('A' for Active; 'I' for Inactive)
REMARK    1  A    between atoms: N1_1  and  C1_2 
REMARK    2  A    between atoms: C1_2  and  C2_3 
REMARK    3  A    between atoms: C2_3  and  C3_4 
REMARK    4  A    between atoms: C3_4  and  C4_5 
REMARK    5  A    between atoms: N3_21  and  C17_22 
REMARK    6  A    between atoms: C18_24  and  O2_25 
ROOT
HETATM    1  C1  UNL     1      28.352   8.613  48.933  1.00  0.00     0.261 C 
HETATM    2  C10 UNL     1      28.027   9.815  48.056  1.00  0.00     0.045 A 
HETATM    3  C11 UNL     1      28.949   9.764  47.061  1.00  0.00     0.030 A 
HETATM    4  C12 UNL     1      29.383  10.681  46.089  1.00  0.00     0.059 A 
HETATM    5  C13 UNL     1      28.371  11.155  46.959  1.00  0.00     0.027 A 
HETATM    6  C14 UNL     1      27.410  11.558  47.811  1.00  0.00    -0.030 A 
HETATM    7  C15 UNL     1      27.086  10.521  48.716  1.00  0.00     0.028 A 
HETATM    8  P1  UNL     1      29.820  12.394  46.851  1.00  0.00    -0.004 P 
HETATM    9  O1  UNL     1      31.048  11.800  48.007  1.00  0.00    -0.323 OA
HETATM   10  C16 UNL     1      30.841  10.890  49.001  1.00  0.00     0.277 C 
HETATM   11  N2  UNL     1      30.467   9.787  49.602  1.00  0.00    -0.156 NA
HETATM   12  N3  UNL     1      29.857   8.662  49.091  1.00  0.00    -0.203 N 
HETATM   13  H16 UNL     1      29.376  13.670  47.323  1.00  0.00     0.083 HD
ENDROOT
BRANCH   1  14
HETATM   14  N1  UNL     1      27.823   8.713  50.271  1.00  0.00     0.110 N 
HETATM   15  H1  UNL     1      28.568   9.176  50.848  1.00  0.00     0.316 HD
HETATM   16  H2  UNL     1      26.978   9.374  50.233  1.00  0.00     0.316 HD
ENDBRANCH   1  14
BRANCH   1  17
HETATM   17  C2  UNL     1      28.022   7.333  48.310  1.00  0.00     0.071 C 
BRANCH  17  18
HETATM   18  C3  UNL     1      26.560   7.055  48.046  1.00  0.00     0.043 C 
BRANCH  18  19
HETATM   19  C4  UNL     1      26.025   5.838  48.625  1.00  0.00    -0.058 A 
HETATM   20  C5  UNL     1      24.744   5.405  48.976  1.00  0.00     0.007 A 
HETATM   21  C6  UNL     1      24.476   4.190  49.523  1.00  0.00     0.001 A 
HETATM   22  C7  UNL     1      25.454   3.276  49.781  1.00  0.00     0.000 A 
HETATM   23  C8  UNL     1      26.720   3.636  49.462  1.00  0.00     0.001 A 
HETATM   24  C9  UNL     1      26.987   4.853  48.913  1.00  0.00     0.007 A 
ENDBRANCH  18  19
ENDBRANCH  17  18
ENDBRANCH   1  17
BRANCH  12  25
HETATM   25  C17 UNL     1      30.809   7.637  48.774  1.00  0.00     0.194 A 
HETATM   26  N4  UNL     1      31.129   6.511  49.071  1.00  0.00    -0.198 NA
HETATM   27  C18 UNL     1      32.145   5.864  48.530  1.00  0.00     0.171 A 
HETATM   28  C19 UNL     1      32.947   6.571  47.483  1.00  0.00     0.111 A 
HETATM   29  S1  UNL     1      32.021   8.221  47.442  1.00  0.00    -0.058 SA
BRANCH  27  30
HETATM   30  O2  UNL     1      32.301   4.574  49.051  1.00  0.00    -0.344 OA
HETATM   31  H18 UNL     1      32.224   4.388  50.043  1.00  0.00     0.219 HD
ENDBRANCH  27  30
ENDBRANCH  12  25
TORSDOF 6
ENDMDL
MODEL 8
REMARK VINA RESULT:      -7.0      7.993     10.667
REMARK  6 active torsions:
REMARK  status: ('A' for Active; 'I' for Inactive)
REMARK    1  A    between atoms: N1_1  and  C1_2 
REMARK    2  A    between atoms: C1_2  and  C2_3 
REMARK    3  A    between atoms: C2_3  and  C3_4 
REMARK    4  A    between atoms: C3_4  and  C4_5 
REMARK    5  A    between atoms: N3_21  and  C17_22 
REMARK    6  A    between atoms: C18_24  and  O2_25 
ROOT
HETATM    1  C1  UNL     1      30.270   7.589  48.137  1.00  0.00     0.261 C 
HETATM    2  C10 UNL     1      30.138   8.665  47.068  1.00  0.00     0.045 A 
HETATM    3  C11 UNL     1      30.680   8.103  45.958  1.00  0.00     0.030 A 
HETATM    4  C12 UNL     1      31.111   8.613  44.721  1.00  0.00     0.059 A 
HETATM    5  C13 UNL     1      30.594   9.573  45.624  1.00  0.00     0.027 A 
HETATM    6  C14 UNL     1      30.094  10.447  46.517  1.00  0.00    -0.030 A 
HETATM    7  C15 UNL     1      29.703   9.775  47.699  1.00  0.00     0.028 A 
HETATM    8  P1  UNL     1      32.285  10.124  44.929  1.00  0.00    -0.004 P 
HETATM    9  O1  UNL     1      33.511   9.299  45.935  1.00  0.00    -0.323 OA
HETATM   10  C16 UNL     1      33.293   8.713  47.146  1.00  0.00     0.277 C 
HETATM   11  N2  UNL     1      32.752   7.951  48.066  1.00  0.00    -0.156 NA
HETATM   12  N3  UNL     1      31.688   7.080  47.982  1.00  0.00    -0.203 N 
HETATM   13  H16 UNL     1      32.438  11.531  45.143  1.00  0.00     0.083 HD
ENDROOT
BRANCH   1  14
HETATM   14  N1  UNL     1      30.192   8.100  49.484  1.00  0.00     0.110 N 
HETATM   15  H1  UNL     1      31.146   7.973  49.902  1.00  0.00     0.316 HD
HETATM   16  H2  UNL     1      29.999   9.154  49.417  1.00  0.00     0.316 HD
ENDBRANCH   1  14
BRANCH   1  17
HETATM   17  C2  UNL     1      29.375   6.452  47.932  1.00  0.00     0.071 C 
BRANCH  17  18
HETATM   18  C3  UNL     1      27.891   6.716  48.047  1.00  0.00     0.043 C 
BRANCH  18  19
HETATM   19  C4  UNL     1      27.090   5.640  48.597  1.00  0.00    -0.058 A 
HETATM   20  C5  UNL     1      27.356   4.324  48.984  1.00  0.00     0.007 A 
HETATM   21  C6  UNL     1      26.419   3.475  49.484  1.00  0.00     0.001 A 
HETATM   22  C7  UNL     1      25.117   3.844  49.648  1.00  0.00     0.000 A 
HETATM   23  C8  UNL     1      24.794   5.110  49.291  1.00  0.00     0.001 A 
HETATM   24  C9  UNL     1      25.733   5.960  48.792  1.00  0.00     0.007 A 
ENDBRANCH  18  19
ENDBRANCH  17  18
ENDBRANCH   1  17
BRANCH  12  25
HETATM   25  C17 UNL     1      32.118   5.731  47.754  1.00  0.00     0.194 A 
HETATM   26  N4  UNL     1      32.274   4.675  48.316  1.00  0.00    -0.198 NA
HETATM   27  C18 UNL     1      32.741   3.587  47.731  1.00  0.00     0.171 A 
HETATM   28  C19 UNL     1      33.095   3.671  46.280  1.00  0.00     0.111 A 
HETATM   29  S1  UNL     1      32.661   5.485  45.957  1.00  0.00    -0.058 SA
BRANCH  27  30
HETATM   30  O2  UNL     1      32.824   2.497  48.606  1.00  0.00    -0.344 OA
HETATM   31  H18 UNL     1      33.649   1.910  48.646  1.00  0.00     0.219 HD
ENDBRANCH  27  30
ENDBRANCH  12  25
TORSDOF 6
ENDMDL
MODEL 9
REMARK VINA RESULT:      -6.7      3.265      6.664
REMARK  6 active torsions:
REMARK  status: ('A' for Active; 'I' for Inactive)
REMARK    1  A    between atoms: N1_1  and  C1_2 
REMARK    2  A    between atoms: C1_2  and  C2_3 
REMARK    3  A    between atoms: C2_3  and  C3_4 
REMARK    4  A    between atoms: C3_4  and  C4_5 
REMARK    5  A    between atoms: N3_21  and  C17_22 
REMARK    6  A    between atoms: C18_24  and  O2_25 
ROOT
HETATM    1  C1  UNL     1      21.605   1.984  51.969  1.00  0.00     0.261 C 
HETATM    2  C10 UNL     1      21.493   2.654  50.607  1.00  0.00     0.045 A 
HETATM    3  C11 UNL     1      22.642   2.313  49.970  1.00  0.00     0.030 A 
HETATM    4  C12 UNL     1      23.294   2.787  48.818  1.00  0.00     0.059 A 
HETATM    5  C13 UNL     1      22.080   3.443  49.141  1.00  0.00     0.027 A 
HETATM    6  C14 UNL     1      20.922   4.034  49.489  1.00  0.00    -0.030 A 
HETATM    7  C15 UNL     1      20.397   3.438  50.659  1.00  0.00     0.028 A 
HETATM    8  P1  UNL     1      23.480   4.703  48.828  1.00  0.00    -0.004 P 
HETATM    9  O1  UNL     1      24.379   4.818  50.369  1.00  0.00    -0.323 OA
HETATM   10  C16 UNL     1      23.940   4.390  51.588  1.00  0.00     0.277 C 
HETATM   11  N2  UNL     1      23.447   3.601  52.511  1.00  0.00    -0.156 NA
HETATM   12  N3  UNL     1      23.016   2.295  52.424  1.00  0.00    -0.203 N 
HETATM   13  H16 UNL     1      22.901   5.988  48.579  1.00  0.00     0.083 HD
ENDROOT
BRANCH   1  14
HETATM   14  N1  UNL     1      20.744   2.564  52.972  1.00  0.00     0.110 N 
HETATM   15  H1  UNL     1      19.816   2.720  52.507  1.00  0.00     0.316 HD
HETATM   16  H2  UNL     1      20.608   1.828  53.741  1.00  0.00     0.316 HD
ENDBRANCH   1  14
BRANCH   1  17
HETATM   17  C2  UNL     1      21.476   0.530  51.915  1.00  0.00     0.071 C 
BRANCH  17  18
HETATM   18  C3  UNL     1      20.484  -0.107  52.861  1.00  0.00     0.043 C 
BRANCH  18  19
HETATM   19  C4  UNL     1      19.146  -0.314  52.343  1.00  0.00    -0.058 A 
HETATM   20  C5  UNL     1      18.460   0.126  51.208  1.00  0.00     0.007 A 
HETATM   21  C6  UNL     1      17.172  -0.205  50.923  1.00  0.00     0.001 A 
HETATM   22  C7  UNL     1      16.429  -1.006  51.737  1.00  0.00     0.000 A 
HETATM   23  C8  UNL     1      17.039  -1.466  52.856  1.00  0.00     0.001 A 
HETATM   24  C9  UNL     1      18.329  -1.136  53.140  1.00  0.00     0.007 A 
ENDBRANCH  18  19
ENDBRANCH  17  18
ENDBRANCH   1  17
BRANCH  12  25
HETATM   25  C17 UNL     1      24.040   1.368  52.811  1.00  0.00     0.194 A 
HETATM   26  N4  UNL     1      24.277   0.491  53.606  1.00  0.00    -0.198 NA
HETATM   27  C18 UNL     1      25.422  -0.164  53.665  1.00  0.00     0.171 A 
HETATM   28  C19 UNL     1      26.488   0.203  52.682  1.00  0.00     0.111 A 
HETATM   29  S1  UNL     1      25.586   1.573  51.738  1.00  0.00    -0.058 SA
BRANCH  27  30
HETATM   30  O2  UNL     1      25.439  -1.131  54.677  1.00  0.00    -0.344 OA
HETATM   31  H18 UNL     1      24.596  -1.608  54.971  1.00  0.00     0.219 HD
ENDBRANCH  27  30
ENDBRANCH  12  25
TORSDOF 6
ENDMDL
