MODEL 1
REMARK VINA RESULT:      -9.2      0.000      0.000
REMARK  5 active torsions:
REMARK  status: ('A' for Active; 'I' for Inactive)
REMARK    1  A    between atoms: C7_11  and  C8_12 
REMARK    2  A    between atoms: N3_22  and  C17_23 
REMARK    3  A    between atoms: C17_23  and  C18_24 
REMARK    4  A    between atoms: C18_24  and  C19_25 
REMARK    5  A    between atoms: C19_25  and  N4_26 
ROOT
HETATM    1  O1  UNL     1      26.104  -0.872  54.884  1.00  0.00    -0.271 OA
HETATM    2  C1  UNL     1      24.847  -0.796  54.682  1.00  0.00     0.248 C 
HETATM    3  C2  UNL     1      24.109  -1.407  55.817  1.00  0.00     0.279 C 
HETATM    4  O2  UNL     1      22.734  -1.490  55.499  1.00  0.00    -0.340 OA
HETATM    5  C3  UNL     1      22.208  -0.918  54.368  1.00  0.00     0.098 A 
HETATM    6  C4  UNL     1      20.834  -1.011  54.257  1.00  0.00     0.071 A 
HETATM    7  C5  UNL     1      20.167  -0.477  53.165  1.00  0.00     0.073 A 
HETATM    8  N1  UNL     1      18.836  -0.562  53.023  1.00  0.00    -0.241 NA
HETATM    9  C6  UNL     1      18.287  -0.018  51.917  1.00  0.00     0.234 A 
HETATM   10  N2  UNL     1      19.004   0.597  50.961  1.00  0.00    -0.240 NA
HETATM   11  C7  UNL     1      20.358   0.708  51.060  1.00  0.00     0.081 A 
HETATM   12  C14 UNL     1      20.906   0.150  52.191  1.00  0.00     0.025 A 
HETATM   13  C15 UNL     1      22.278   0.254  52.282  1.00  0.00     0.049 A 
HETATM   14  C16 UNL     1      22.923  -0.283  53.374  1.00  0.00     0.071 A 
HETATM   15  N3  UNL     1      24.337  -0.193  53.501  1.00  0.00    -0.314 N 
ENDROOT
BRANCH  15  16
HETATM   16  C17 UNL     1      25.169   0.449  52.534  1.00  0.00     0.134 C 
BRANCH  16  17
HETATM   17  C18 UNL     1      25.523   1.848  52.903  1.00  0.00     0.050 C 
BRANCH  17  18
HETATM   18  C19 UNL     1      26.325   2.484  51.822  1.00  0.00     0.274 C 
BRANCH  18  19
HETATM   19  N4  UNL     1      25.448   2.962  50.735  1.00  0.00     0.088 N 
HETATM   20  C20 UNL     1      24.619   4.005  51.159  1.00  0.00     0.272 C 
HETATM   21  C21 UNL     1      24.542   5.243  50.337  1.00  0.00     0.030 C 
HETATM   22  C22 UNL     1      25.260   5.206  49.022  1.00  0.00     0.003 C 
HETATM   23  C23 UNL     1      26.629   4.568  49.303  1.00  0.00     0.030 C 
HETATM   24  C24 UNL     1      26.274   3.121  49.599  1.00  0.00     0.272 C 
ENDBRANCH  18  19
ENDBRANCH  17  18
ENDBRANCH  16  17
ENDBRANCH  15  16
BRANCH  11  25
HETATM   25  C8  UNL     1      21.011   1.391  49.957  1.00  0.00    -0.004 A 
HETATM   26  C9  UNL     1      21.635   0.919  48.847  1.00  0.00     0.014 A 
HETATM   27  C10 UNL     1      22.175   1.764  47.896  1.00  0.00     0.004 A 
HETATM   28  C11 UNL     1      22.111   3.135  48.024  1.00  0.00     0.042 A 
HETATM   29  C12 UNL     1      21.485   3.656  49.137  1.00  0.00     0.117 A 
HETATM   30  F1  UNL     1      21.413   5.000  49.277  1.00  0.00    -0.206 F 
HETATM   31  C13 UNL     1      20.955   2.788  50.069  1.00  0.00     0.056 A 
ENDBRANCH  11  25
TORSDOF 5
ENDMDL
MODEL 2
REMARK VINA RESULT:      -9.2      3.129      5.699
REMARK  5 active torsions:
REMARK  status: ('A' for Active; 'I' for Inactive)
REMARK    1  A    between atoms: C7_11  and  C8_12 
REMARK    2  A    between atoms: N3_22  and  C17_23 
REMARK    3  A    between atoms: C17_23  and  C18_24 
REMARK    4  A    between atoms: C18_24  and  C19_25 
REMARK    5  A    between atoms: C19_25  and  N4_26 
ROOT
HETATM    1  O1  UNL     1      21.133   2.350  49.203  1.00  0.00    -0.271 OA
HETATM    2  C1  UNL     1      21.369   1.605  50.211  1.00  0.00     0.248 C 
HETATM    3  C2  UNL     1      20.140   0.870  50.604  1.00  0.00     0.279 C 
HETATM    4  O2  UNL     1      20.359   0.199  51.828  1.00  0.00    -0.340 OA
HETATM    5  C3  UNL     1      21.596   0.140  52.421  1.00  0.00     0.098 A 
HETATM    6  C4  UNL     1      21.655  -0.634  53.564  1.00  0.00     0.071 A 
HETATM    7  C5  UNL     1      22.841  -0.783  54.265  1.00  0.00     0.073 A 
HETATM    8  N1  UNL     1      22.928  -1.517  55.384  1.00  0.00    -0.241 NA
HETATM    9  C6  UNL     1      24.128  -1.589  55.997  1.00  0.00     0.234 A 
HETATM   10  N2  UNL     1      25.229  -0.964  55.543  1.00  0.00    -0.240 NA
HETATM   11  C7  UNL     1      25.191  -0.206  54.412  1.00  0.00     0.081 A 
HETATM   12  C14 UNL     1      23.962  -0.141  53.797  1.00  0.00     0.025 A 
HETATM   13  C15 UNL     1      23.926   0.636  52.658  1.00  0.00     0.049 A 
HETATM   14  C16 UNL     1      22.738   0.773  51.975  1.00  0.00     0.071 A 
HETATM   15  N3  UNL     1      22.663   1.566  50.796  1.00  0.00    -0.314 N 
ENDROOT
BRANCH  15  16
HETATM   16  C17 UNL     1      23.786   2.255  50.247  1.00  0.00     0.134 C 
BRANCH  16  17
HETATM   17  C18 UNL     1      23.958   3.628  50.799  1.00  0.00     0.050 C 
BRANCH  17  18
HETATM   18  C19 UNL     1      24.342   4.579  49.720  1.00  0.00     0.274 C 
BRANCH  18  19
HETATM   19  N4  UNL     1      25.695   5.119  49.958  1.00  0.00     0.088 N 
HETATM   20  C20 UNL     1      26.686   4.291  49.420  1.00  0.00     0.272 C 
HETATM   21  C21 UNL     1      27.742   4.896  48.566  1.00  0.00     0.030 C 
HETATM   22  C22 UNL     1      27.740   6.391  48.474  1.00  0.00     0.003 C 
HETATM   23  C23 UNL     1      26.274   6.802  48.269  1.00  0.00     0.030 C 
HETATM   24  C24 UNL     1      25.643   6.489  49.615  1.00  0.00     0.272 C 
ENDBRANCH  18  19
ENDBRANCH  17  18
ENDBRANCH  16  17
ENDBRANCH  15  16
BRANCH  11  25
HETATM   25  C8  UNL     1      26.448   0.417  54.036  1.00  0.00    -0.004 A 
HETATM   26  C9  UNL     1      26.779   1.714  53.814  1.00  0.00     0.014 A 
HETATM   27  C10 UNL     1      28.065   2.095  53.483  1.00  0.00     0.004 A 
HETATM   28  C11 UNL     1      29.084   1.175  53.359  1.00  0.00     0.042 A 
HETATM   29  C12 UNL     1      28.790  -0.155  53.576  1.00  0.00     0.117 A 
HETATM   30  F1  UNL     1      29.780  -1.070  53.458  1.00  0.00    -0.206 F 
HETATM   31  C13 UNL     1      27.497  -0.504  53.905  1.00  0.00     0.056 A 
ENDBRANCH  11  25
TORSDOF 5
ENDMDL
MODEL 3
REMARK VINA RESULT:      -9.2      1.983      3.289
REMARK  5 active torsions:
REMARK  status: ('A' for Active; 'I' for Inactive)
REMARK    1  A    between atoms: C7_11  and  C8_12 
REMARK    2  A    between atoms: N3_22  and  C17_23 
REMARK    3  A    between atoms: C17_23  and  C18_24 
REMARK    4  A    between atoms: C18_24  and  C19_25 
REMARK    5  A    between atoms: C19_25  and  N4_26 
ROOT
HETATM    1  O1  UNL     1      28.856   1.259  52.807  1.00  0.00    -0.271 OA
HETATM    2  C1  UNL     1      27.775   0.819  53.323  1.00  0.00     0.248 C 
HETATM    3  C2  UNL     1      28.049   0.219  54.653  1.00  0.00     0.279 C 
HETATM    4  O2  UNL     1      26.888  -0.431  55.128  1.00  0.00    -0.340 OA
HETATM    5  C3  UNL     1      25.679  -0.336  54.485  1.00  0.00     0.098 A 
HETATM    6  C4  UNL     1      24.627  -0.954  55.133  1.00  0.00     0.071 A 
HETATM    7  C5  UNL     1      23.349  -0.937  54.598  1.00  0.00     0.073 A 
HETATM    8  N1  UNL     1      22.310  -1.537  55.197  1.00  0.00    -0.241 NA
HETATM    9  C6  UNL     1      21.108  -1.471  54.586  1.00  0.00     0.234 A 
HETATM   10  N2  UNL     1      20.907  -0.838  53.417  1.00  0.00    -0.240 NA
HETATM   11  C7  UNL     1      21.930  -0.215  52.770  1.00  0.00     0.081 A 
HETATM   12  C14 UNL     1      23.150  -0.290  53.402  1.00  0.00     0.025 A 
HETATM   13  C15 UNL     1      24.185   0.334  52.739  1.00  0.00     0.049 A 
HETATM   14  C16 UNL     1      25.449   0.306  53.286  1.00  0.00     0.071 A 
HETATM   15  N3  UNL     1      26.540   0.938  52.629  1.00  0.00    -0.314 N 
ENDROOT
BRANCH  15  16
HETATM   16  C17 UNL     1      26.409   1.635  51.390  1.00  0.00     0.134 C 
BRANCH  16  17
HETATM   17  C18 UNL     1      25.959   3.046  51.556  1.00  0.00     0.050 C 
BRANCH  17  18
HETATM   18  C19 UNL     1      25.049   3.437  50.445  1.00  0.00     0.274 C 
BRANCH  18  19
HETATM   19  N4  UNL     1      24.252   4.622  50.816  1.00  0.00     0.088 N 
HETATM   20  C20 UNL     1      23.370   4.995  49.797  1.00  0.00     0.272 C 
HETATM   21  C21 UNL     1      21.942   5.238  50.135  1.00  0.00     0.030 C 
HETATM   22  C22 UNL     1      21.595   5.207  51.592  1.00  0.00     0.003 C 
HETATM   23  C23 UNL     1      22.312   3.978  52.174  1.00  0.00     0.030 C 
HETATM   24  C24 UNL     1      23.774   4.386  52.125  1.00  0.00     0.272 C 
ENDBRANCH  18  19
ENDBRANCH  17  18
ENDBRANCH  16  17
ENDBRANCH  15  16
BRANCH  11  25
HETATM   25  C8  UNL     1      21.578   0.426  51.515  1.00  0.00    -0.004 A 
HETATM   26  C9  UNL     1      22.343   0.974  50.537  1.00  0.00     0.014 A 
HETATM   27  C10 UNL     1      21.791   1.518  49.393  1.00  0.00     0.004 A 
HETATM   28  C11 UNL     1      20.429   1.533  49.183  1.00  0.00     0.042 A 
HETATM   29  C12 UNL     1      19.614   0.986  50.152  1.00  0.00     0.117 A 
HETATM   30  F1  UNL     1      18.275   0.993  49.960  1.00  0.00    -0.206 F 
HETATM   31  C13 UNL     1      20.195   0.451  51.283  1.00  0.00     0.056 A 
ENDBRANCH  11  25
TORSDOF 5
ENDMDL
MODEL 4
REMARK VINA RESULT:      -9.0      1.918      3.259
REMARK  5 active torsions:
REMARK  status: ('A' for Active; 'I' for Inactive)
REMARK    1  A    between atoms: C7_11  and  C8_12 
REMARK    2  A    between atoms: N3_22  and  C17_23 
REMARK    3  A    between atoms: C17_23  and  C18_24 
REMARK    4  A    between atoms: C18_24  and  C19_25 
REMARK    5  A    between atoms: C19_25  and  N4_26 
ROOT
HETATM    1  O1  UNL     1      28.814   2.028  53.099  1.00  0.00    -0.271 OA
HETATM    2  C1  UNL     1      27.801   1.400  53.555  1.00  0.00     0.248 C 
HETATM    3  C2  UNL     1      28.216   0.486  54.649  1.00  0.00     0.279 C 
HETATM    4  O2  UNL     1      27.129  -0.339  55.016  1.00  0.00    -0.340 OA
HETATM    5  C3  UNL     1      25.865  -0.152  54.514  1.00  0.00     0.098 A 
HETATM    6  C4  UNL     1      24.901  -0.986  55.047  1.00  0.00     0.071 A 
HETATM    7  C5  UNL     1      23.580  -0.907  54.632  1.00  0.00     0.073 A 
HETATM    8  N1  UNL     1      22.624  -1.709  55.122  1.00  0.00    -0.241 NA
HETATM    9  C6  UNL     1      21.371  -1.559  54.643  1.00  0.00     0.234 A 
HETATM   10  N2  UNL     1      21.042  -0.651  53.707  1.00  0.00    -0.240 NA
HETATM   11  C7  UNL     1      21.978   0.185  53.179  1.00  0.00     0.081 A 
HETATM   12  C14 UNL     1      23.250   0.021  53.675  1.00  0.00     0.025 A 
HETATM   13  C15 UNL     1      24.197   0.862  53.130  1.00  0.00     0.049 A 
HETATM   14  C16 UNL     1      25.504   0.770  53.554  1.00  0.00     0.071 A 
HETATM   15  N3  UNL     1      26.507   1.621  53.013  1.00  0.00    -0.314 N 
ENDROOT
BRANCH  15  16
HETATM   16  C17 UNL     1      26.238   2.613  52.022  1.00  0.00     0.134 C 
BRANCH  16  17
HETATM   17  C18 UNL     1      26.422   2.115  50.630  1.00  0.00     0.050 C 
BRANCH  17  18
HETATM   18  C19 UNL     1      26.422   3.250  49.667  1.00  0.00     0.274 C 
BRANCH  18  19
HETATM   19  N4  UNL     1      25.419   4.261  50.053  1.00  0.00     0.088 N 
HETATM   20  C20 UNL     1      25.758   5.534  49.584  1.00  0.00     0.272 C 
HETATM   21  C21 UNL     1      24.732   6.329  48.857  1.00  0.00     0.030 C 
HETATM   22  C22 UNL     1      23.352   5.748  48.819  1.00  0.00     0.003 C 
HETATM   23  C23 UNL     1      23.528   4.257  48.489  1.00  0.00     0.030 C 
HETATM   24  C24 UNL     1      24.155   3.702  49.756  1.00  0.00     0.272 C 
ENDBRANCH  18  19
ENDBRANCH  17  18
ENDBRANCH  16  17
ENDBRANCH  15  16
BRANCH  11  25
HETATM   25  C8  UNL     1      21.490   1.113  52.173  1.00  0.00    -0.004 A 
HETATM   26  C9  UNL     1      21.027   2.385  52.271  1.00  0.00     0.014 A 
HETATM   27  C10 UNL     1      20.629   3.107  51.162  1.00  0.00     0.004 A 
HETATM   28  C11 UNL     1      20.683   2.573  49.892  1.00  0.00     0.042 A 
HETATM   29  C12 UNL     1      21.147   1.282  49.748  1.00  0.00     0.117 A 
HETATM   30  F1  UNL     1      21.206   0.743  48.509  1.00  0.00    -0.206 F 
HETATM   31  C13 UNL     1      21.537   0.587  50.874  1.00  0.00     0.056 A 
ENDBRANCH  11  25
TORSDOF 5
ENDMDL
MODEL 5
REMARK VINA RESULT:      -8.7      1.940      5.217
REMARK  5 active torsions:
REMARK  status: ('A' for Active; 'I' for Inactive)
REMARK    1  A    between atoms: C7_11  and  C8_12 
REMARK    2  A    between atoms: N3_22  and  C17_23 
REMARK    3  A    between atoms: C17_23  and  C18_24 
REMARK    4  A    between atoms: C18_24  and  C19_25 
REMARK    5  A    between atoms: C19_25  and  N4_26 
ROOT
HETATM    1  O1  UNL     1      19.720  -0.560  53.577  1.00  0.00    -0.271 OA
HETATM    2  C1  UNL     1      20.994  -0.529  53.634  1.00  0.00     0.248 C 
HETATM    3  C2  UNL     1      21.488  -1.567  54.575  1.00  0.00     0.279 C 
HETATM    4  O2  UNL     1      22.877  -1.401  54.776  1.00  0.00    -0.340 OA
HETATM    5  C3  UNL     1      23.621  -0.505  54.050  1.00  0.00     0.098 A 
HETATM    6  C4  UNL     1      24.979  -0.536  54.307  1.00  0.00     0.071 A 
HETATM    7  C5  UNL     1      25.851   0.315  53.645  1.00  0.00     0.073 A 
HETATM    8  N1  UNL     1      27.171   0.316  53.880  1.00  0.00    -0.241 NA
HETATM    9  C6  UNL     1      27.931   1.192  53.190  1.00  0.00     0.234 A 
HETATM   10  N2  UNL     1      27.431   2.053  52.286  1.00  0.00    -0.240 NA
HETATM   11  C7  UNL     1      26.097   2.089  52.013  1.00  0.00     0.081 A 
HETATM   12  C14 UNL     1      25.333   1.193  52.724  1.00  0.00     0.025 A 
HETATM   13  C15 UNL     1      23.983   1.240  52.452  1.00  0.00     0.049 A 
HETATM   14  C16 UNL     1      23.131   0.388  53.120  1.00  0.00     0.071 A 
HETATM   15  N3  UNL     1      21.732   0.409  52.864  1.00  0.00    -0.314 N 
ENDROOT
BRANCH  15  16
HETATM   16  C17 UNL     1      21.124   1.288  51.918  1.00  0.00     0.134 C 
BRANCH  16  17
HETATM   17  C18 UNL     1      20.839   0.633  50.610  1.00  0.00     0.050 C 
BRANCH  17  18
HETATM   18  C19 UNL     1      20.304   1.625  49.637  1.00  0.00     0.274 C 
BRANCH  18  19
HETATM   19  N4  UNL     1      21.361   2.567  49.220  1.00  0.00     0.088 N 
HETATM   20  C20 UNL     1      22.096   2.075  48.136  1.00  0.00     0.272 C 
HETATM   21  C21 UNL     1      22.315   2.956  46.957  1.00  0.00     0.030 C 
HETATM   22  C22 UNL     1      21.847   4.372  47.096  1.00  0.00     0.003 C 
HETATM   23  C23 UNL     1      20.452   4.298  47.736  1.00  0.00     0.030 C 
HETATM   24  C24 UNL     1      20.754   3.842  49.153  1.00  0.00     0.272 C 
ENDBRANCH  18  19
ENDBRANCH  17  18
ENDBRANCH  16  17
ENDBRANCH  15  16
BRANCH  11  25
HETATM   25  C8  UNL     1      25.689   3.069  51.021  1.00  0.00    -0.004 A 
HETATM   26  C9  UNL     1      24.503   3.691  50.805  1.00  0.00     0.014 A 
HETATM   27  C10 UNL     1      24.339   4.626  49.800  1.00  0.00     0.004 A 
HETATM   28  C11 UNL     1      25.374   4.977  48.960  1.00  0.00     0.042 A 
HETATM   29  C12 UNL     1      26.598   4.367  49.146  1.00  0.00     0.117 A 
HETATM   30  F1  UNL     1      27.625   4.701  48.331  1.00  0.00    -0.206 F 
HETATM   31  C13 UNL     1      26.730   3.439  50.157  1.00  0.00     0.056 A 
ENDBRANCH  11  25
TORSDOF 5
ENDMDL
MODEL 6
REMARK VINA RESULT:      -8.6      2.620      5.073
REMARK  5 active torsions:
REMARK  status: ('A' for Active; 'I' for Inactive)
REMARK    1  A    between atoms: C7_11  and  C8_12 
REMARK    2  A    between atoms: N3_22  and  C17_23 
REMARK    3  A    between atoms: C17_23  and  C18_24 
REMARK    4  A    between atoms: C18_24  and  C19_25 
REMARK    5  A    between atoms: C19_25  and  N4_26 
ROOT
HETATM    1  O1  UNL     1      18.635   1.326  50.458  1.00  0.00    -0.271 OA
HETATM    2  C1  UNL     1      19.322   0.708  51.338  1.00  0.00     0.248 C 
HETATM    3  C2  UNL     1      18.446  -0.190  52.133  1.00  0.00     0.279 C 
HETATM    4  O2  UNL     1      19.175  -0.721  53.221  1.00  0.00    -0.340 OA
HETATM    5  C3  UNL     1      20.527  -0.529  53.361  1.00  0.00     0.098 A 
HETATM    6  C4  UNL     1      21.099  -1.194  54.428  1.00  0.00     0.071 A 
HETATM    7  C5  UNL     1      22.457  -1.091  54.690  1.00  0.00     0.073 A 
HETATM    8  N1  UNL     1      23.039  -1.715  55.724  1.00  0.00    -0.241 NA
HETATM    9  C6  UNL     1      24.366  -1.539  55.897  1.00  0.00     0.234 A 
HETATM   10  N2  UNL     1      25.122  -0.776  55.089  1.00  0.00    -0.240 NA
HETATM   11  C7  UNL     1      24.577  -0.121  54.027  1.00  0.00     0.081 A 
HETATM   12  C14 UNL     1      23.224  -0.308  53.861  1.00  0.00     0.025 A 
HETATM   13  C15 UNL     1      22.673   0.365  52.791  1.00  0.00     0.049 A 
HETATM   14  C16 UNL     1      21.322   0.250  52.547  1.00  0.00     0.071 A 
HETATM   15  N3  UNL     1      20.721   0.929  51.452  1.00  0.00    -0.314 N 
ENDROOT
BRANCH  15  16
HETATM   16  C17 UNL     1      21.454   1.753  50.546  1.00  0.00     0.134 C 
BRANCH  16  17
HETATM   17  C18 UNL     1      21.512   3.181  50.968  1.00  0.00     0.050 C 
BRANCH  17  18
HETATM   18  C19 UNL     1      22.926   3.616  51.140  1.00  0.00     0.274 C 
BRANCH  18  19
HETATM   19  N4  UNL     1      23.244   4.728  50.224  1.00  0.00     0.088 N 
HETATM   20  C20 UNL     1      23.654   5.871  50.918  1.00  0.00     0.272 C 
HETATM   21  C21 UNL     1      24.902   6.560  50.494  1.00  0.00     0.030 C 
HETATM   22  C22 UNL     1      25.546   6.048  49.242  1.00  0.00     0.003 C 
HETATM   23  C23 UNL     1      25.528   4.515  49.352  1.00  0.00     0.030 C 
HETATM   24  C24 UNL     1      24.053   4.182  49.202  1.00  0.00     0.272 C 
ENDBRANCH  18  19
ENDBRANCH  17  18
ENDBRANCH  16  17
ENDBRANCH  15  16
BRANCH  11  25
HETATM   25  C8  UNL     1      25.503   0.673  53.239  1.00  0.00    -0.004 A 
HETATM   26  C9  UNL     1      25.519   0.993  51.920  1.00  0.00     0.014 A 
HETATM   27  C10 UNL     1      26.501   1.798  51.374  1.00  0.00     0.004 A 
HETATM   28  C11 UNL     1      27.520   2.320  52.141  1.00  0.00     0.042 A 
HETATM   29  C12 UNL     1      27.541   2.019  53.487  1.00  0.00     0.117 A 
HETATM   30  F1  UNL     1      28.535   2.523  54.254  1.00  0.00    -0.206 F 
HETATM   31  C13 UNL     1      26.548   1.213  54.003  1.00  0.00     0.056 A 
ENDBRANCH  11  25
TORSDOF 5
ENDMDL
MODEL 7
REMARK VINA RESULT:      -8.4      2.091      3.429
REMARK  5 active torsions:
REMARK  status: ('A' for Active; 'I' for Inactive)
REMARK    1  A    between atoms: C7_11  and  C8_12 
REMARK    2  A    between atoms: N3_22  and  C17_23 
REMARK    3  A    between atoms: C17_23  and  C18_24 
REMARK    4  A    between atoms: C18_24  and  C19_25 
REMARK    5  A    between atoms: C19_25  and  N4_26 
ROOT
HETATM    1  O1  UNL     1      24.975  -0.940  55.095  1.00  0.00    -0.271 OA
HETATM    2  C1  UNL     1      23.781  -0.839  54.659  1.00  0.00     0.248 C 
HETATM    3  C2  UNL     1      22.842  -1.543  55.569  1.00  0.00     0.279 C 
HETATM    4  O2  UNL     1      21.557  -1.589  54.983  1.00  0.00    -0.340 OA
HETATM    5  C3  UNL     1      21.256  -0.916  53.825  1.00  0.00     0.098 A 
HETATM    6  C4  UNL     1      19.931  -0.990  53.439  1.00  0.00     0.071 A 
HETATM    7  C5  UNL     1      19.485  -0.358  52.289  1.00  0.00     0.073 A 
HETATM    8  N1  UNL     1      18.208  -0.421  51.883  1.00  0.00    -0.241 NA
HETATM    9  C6  UNL     1      17.880   0.222  50.743  1.00  0.00     0.234 A 
HETATM   10  N2  UNL     1      18.763   0.915  50.004  1.00  0.00    -0.240 NA
HETATM   11  C7  UNL     1      20.070   1.008  50.375  1.00  0.00     0.081 A 
HETATM   12  C14 UNL     1      20.393   0.348  51.538  1.00  0.00     0.025 A 
HETATM   13  C15 UNL     1      21.719   0.436  51.904  1.00  0.00     0.049 A 
HETATM   14  C16 UNL     1      22.144  -0.200  53.050  1.00  0.00     0.071 A 
HETATM   15  N3  UNL     1      23.505  -0.131  53.458  1.00  0.00    -0.314 N 
ENDROOT
BRANCH  15  16
HETATM   16  C17 UNL     1      24.502   0.588  52.733  1.00  0.00     0.134 C 
BRANCH  16  17
HETATM   17  C18 UNL     1      25.578  -0.289  52.189  1.00  0.00     0.050 C 
BRANCH  17  18
HETATM   18  C19 UNL     1      26.917   0.308  52.448  1.00  0.00     0.274 C 
BRANCH  18  19
HETATM   19  N4  UNL     1      27.637  -0.461  53.482  1.00  0.00     0.088 N 
HETATM   20  C20 UNL     1      27.917  -1.764  53.059  1.00  0.00     0.272 C 
HETATM   21  C21 UNL     1      29.302  -2.287  53.207  1.00  0.00     0.030 C 
HETATM   22  C22 UNL     1      30.263  -1.408  53.947  1.00  0.00     0.003 C 
HETATM   23  C23 UNL     1      30.044   0.013  53.403  1.00  0.00     0.030 C 
HETATM   24  C24 UNL     1      28.675   0.378  53.951  1.00  0.00     0.272 C 
ENDBRANCH  18  19
ENDBRANCH  17  18
ENDBRANCH  16  17
ENDBRANCH  15  16
BRANCH  11  25
HETATM   25  C8  UNL     1      20.919   1.782  49.485  1.00  0.00    -0.004 A 
HETATM   26  C9  UNL     1      21.692   1.414  48.432  1.00  0.00     0.014 A 
HETATM   27  C10 UNL     1      22.412   2.335  47.696  1.00  0.00     0.004 A 
HETATM   28  C11 UNL     1      22.384   3.681  47.992  1.00  0.00     0.042 A 
HETATM   29  C12 UNL     1      21.610   4.097  49.055  1.00  0.00     0.117 A 
HETATM   30  F1  UNL     1      21.571   5.416  49.359  1.00  0.00    -0.206 F 
HETATM   31  C13 UNL     1      20.903   3.154  49.771  1.00  0.00     0.056 A 
ENDBRANCH  11  25
TORSDOF 5
ENDMDL
MODEL 8
REMARK VINA RESULT:      -8.3      2.140      5.145
REMARK  5 active torsions:
REMARK  status: ('A' for Active; 'I' for Inactive)
REMARK    1  A    between atoms: C7_11  and  C8_12 
REMARK    2  A    between atoms: N3_22  and  C17_23 
REMARK    3  A    between atoms: C17_23  and  C18_24 
REMARK    4  A    between atoms: C18_24  and  C19_25 
REMARK    5  A    between atoms: C19_25  and  N4_26 
ROOT
HETATM    1  O1  UNL     1      17.187  -0.126  52.350  1.00  0.00    -0.271 OA
HETATM    2  C1  UNL     1      18.367  -0.422  52.735  1.00  0.00     0.248 C 
HETATM    3  C2  UNL     1      18.354  -1.706  53.482  1.00  0.00     0.279 C 
HETATM    4  O2  UNL     1      19.622  -1.928  54.065  1.00  0.00    -0.340 OA
HETATM    5  C3  UNL     1      20.703  -1.124  53.798  1.00  0.00     0.098 A 
HETATM    6  C4  UNL     1      21.888  -1.536  54.376  1.00  0.00     0.071 A 
HETATM    7  C5  UNL     1      23.060  -0.820  54.191  1.00  0.00     0.073 A 
HETATM    8  N1  UNL     1      24.223  -1.187  54.748  1.00  0.00    -0.241 NA
HETATM    9  C6  UNL     1      25.304  -0.414  54.514  1.00  0.00     0.234 A 
HETATM   10  N2  UNL     1      25.268   0.697  53.757  1.00  0.00    -0.240 NA
HETATM   11  C7  UNL     1      24.111   1.111  53.171  1.00  0.00     0.081 A 
HETATM   12  C14 UNL     1      23.017   0.315  53.417  1.00  0.00     0.025 A 
HETATM   13  C15 UNL     1      21.845   0.744  52.831  1.00  0.00     0.049 A 
HETATM   14  C16 UNL     1      20.690   0.019  53.027  1.00  0.00     0.071 A 
HETATM   15  N3  UNL     1      19.463   0.432  52.438  1.00  0.00    -0.314 N 
ENDROOT
BRANCH  15  16
HETATM   16  C17 UNL     1      19.343   1.594  51.617  1.00  0.00     0.134 C 
BRANCH  16  17
HETATM   17  C18 UNL     1      19.197   1.275  50.168  1.00  0.00     0.050 C 
BRANCH  17  18
HETATM   18  C19 UNL     1      19.137   2.527  49.364  1.00  0.00     0.274 C 
BRANCH  18  19
HETATM   19  N4  UNL     1      20.139   2.497  48.281  1.00  0.00     0.088 N 
HETATM   20  C20 UNL     1      20.644   3.772  48.007  1.00  0.00     0.272 C 
HETATM   21  C21 UNL     1      22.118   3.961  47.932  1.00  0.00     0.030 C 
HETATM   22  C22 UNL     1      22.947   2.715  48.010  1.00  0.00     0.003 C 
HETATM   23  C23 UNL     1      22.349   1.878  49.151  1.00  0.00     0.030 C 
HETATM   24  C24 UNL     1      21.016   1.429  48.578  1.00  0.00     0.272 C 
ENDBRANCH  18  19
ENDBRANCH  17  18
ENDBRANCH  16  17
ENDBRANCH  15  16
BRANCH  11  25
HETATM   25  C8  UNL     1      24.210   2.328  52.384  1.00  0.00    -0.004 A 
HETATM   26  C9  UNL     1      23.535   3.504  52.455  1.00  0.00     0.014 A 
HETATM   27  C10 UNL     1      23.812   4.559  51.606  1.00  0.00     0.004 A 
HETATM   28  C11 UNL     1      24.792   4.474  50.640  1.00  0.00     0.042 A 
HETATM   29  C12 UNL     1      25.501   3.296  50.534  1.00  0.00     0.117 A 
HETATM   30  F1  UNL     1      26.466   3.197  49.591  1.00  0.00    -0.206 F 
HETATM   31  C13 UNL     1      25.202   2.261  51.395  1.00  0.00     0.056 A 
ENDBRANCH  11  25
TORSDOF 5
ENDMDL
MODEL 9
REMARK VINA RESULT:      -8.1      3.580      5.948
REMARK  5 active torsions:
REMARK  status: ('A' for Active; 'I' for Inactive)
REMARK    1  A    between atoms: C7_11  and  C8_12 
REMARK    2  A    between atoms: N3_22  and  C17_23 
REMARK    3  A    between atoms: C17_23  and  C18_24 
REMARK    4  A    between atoms: C18_24  and  C19_25 
REMARK    5  A    between atoms: C19_25  and  N4_26 
ROOT
HETATM    1  O1  UNL     1      23.239   4.910  48.164  1.00  0.00    -0.271 OA
HETATM    2  C1  UNL     1      22.830   4.070  49.033  1.00  0.00     0.248 C 
HETATM    3  C2  UNL     1      21.346   4.074  49.089  1.00  0.00     0.279 C 
HETATM    4  O2  UNL     1      20.911   3.287  50.179  1.00  0.00    -0.340 OA
HETATM    5  C3  UNL     1      21.776   2.526  50.925  1.00  0.00     0.098 A 
HETATM    6  C4  UNL     1      21.173   1.745  51.893  1.00  0.00     0.071 A 
HETATM    7  C5  UNL     1      21.926   0.926  52.720  1.00  0.00     0.073 A 
HETATM    8  N1  UNL     1      21.372   0.165  53.675  1.00  0.00    -0.241 NA
HETATM    9  C6  UNL     1      22.195  -0.589  54.434  1.00  0.00     0.234 A 
HETATM   10  N2  UNL     1      23.530  -0.611  54.278  1.00  0.00    -0.240 NA
HETATM   11  C7  UNL     1      24.139   0.144  53.323  1.00  0.00     0.081 A 
HETATM   12  C14 UNL     1      23.290   0.908  52.556  1.00  0.00     0.025 A 
HETATM   13  C15 UNL     1      23.911   1.679  51.597  1.00  0.00     0.049 A 
HETATM   14  C16 UNL     1      23.147   2.487  50.784  1.00  0.00     0.071 A 
HETATM   15  N3  UNL     1      23.754   3.296  49.784  1.00  0.00    -0.314 N 
ENDROOT
BRANCH  15  16
HETATM   16  C17 UNL     1      25.163   3.324  49.552  1.00  0.00     0.134 C 
BRANCH  16  17
HETATM   17  C18 UNL     1      25.782   4.642  49.867  1.00  0.00     0.050 C 
BRANCH  17  18
HETATM   18  C19 UNL     1      26.890   4.937  48.917  1.00  0.00     0.274 C 
BRANCH  18  19
HETATM   19  N4  UNL     1      27.194   6.381  48.903  1.00  0.00     0.088 N 
HETATM   20  C20 UNL     1      28.227   6.685  48.011  1.00  0.00     0.272 C 
HETATM   21  C21 UNL     1      28.032   7.793  47.036  1.00  0.00     0.030 C 
HETATM   22  C22 UNL     1      26.780   8.599  47.196  1.00  0.00     0.003 C 
HETATM   23  C23 UNL     1      25.648   7.585  47.426  1.00  0.00     0.030 C 
HETATM   24  C24 UNL     1      25.951   7.049  48.815  1.00  0.00     0.272 C 
ENDBRANCH  18  19
ENDBRANCH  17  18
ENDBRANCH  16  17
ENDBRANCH  15  16
BRANCH  11  25
HETATM   25  C8  UNL     1      25.586   0.030  53.265  1.00  0.00    -0.004 A 
HETATM   26  C9  UNL     1      26.570   0.942  53.471  1.00  0.00     0.014 A 
HETATM   27  C10 UNL     1      27.908   0.606  53.386  1.00  0.00     0.004 A 
HETATM   28  C11 UNL     1      28.317  -0.676  53.087  1.00  0.00     0.042 A 
HETATM   29  C12 UNL     1      27.348  -1.633  52.870  1.00  0.00     0.117 A 
HETATM   30  F1  UNL     1      27.732  -2.897  52.575  1.00  0.00    -0.206 F 
HETATM   31  C13 UNL     1      26.021  -1.268  52.961  1.00  0.00     0.056 A 
ENDBRANCH  11  25
TORSDOF 5
ENDMDL
