MODEL 1
REMARK VINA RESULT:      -6.9      0.000      0.000
REMARK  7 active torsions:
REMARK  status: ('A' for Active; 'I' for Inactive)
REMARK    1  A    between atoms: C1_2  and  O1_3 
REMARK    2  A    between atoms: O1_3  and  C2_4 
REMARK    3  A    between atoms: C7_9  and  O2_10 
REMARK    4  A    between atoms: O2_10  and  C8_11 
REMARK    5  A    between atoms: N1_12  and  C9_13 
REMARK    6  A    between atoms: C9_13  and  N2_14 
REMARK    7  A    between atoms: N2_14  and  C10_15 
ROOT
HETATM    1  C8  UNL     1      25.498   1.466  52.909  1.00  0.00     0.255 C 
HETATM    2  N1  UNL     1      24.475   2.203  53.066  1.00  0.00    -0.259 NA
ENDROOT
BRANCH   1   3
HETATM    3  O2  UNL     1      26.064   0.771  53.971  1.00  0.00    -0.302 OA
BRANCH   3   4
HETATM    4  C7  UNL     1      26.985  -0.202  53.689  1.00  0.00     0.106 A 
HETATM    5  C2  UNL     1      28.375  -0.055  54.176  1.00  0.00     0.101 A 
HETATM    6  C3  UNL     1      29.199  -1.064  53.844  1.00  0.00     0.013 A 
HETATM    7  C4  UNL     1      28.928  -2.290  53.072  1.00  0.00     0.034 A 
HETATM    8  C5  UNL     1      27.518  -2.401  52.599  1.00  0.00     0.034 A 
HETATM    9  C6  UNL     1      26.642  -1.267  52.987  1.00  0.00     0.014 A 
BRANCH   5  10
HETATM   10  O1  UNL     1      28.668   1.091  54.909  1.00  0.00    -0.319 OA
BRANCH  10  11
HETATM   11  C1  UNL     1      29.361   2.150  54.271  1.00  0.00     0.398 C 
HETATM   12  F1  UNL     1      28.555   2.787  53.333  1.00  0.00    -0.227 F 
ENDBRANCH  10  11
ENDBRANCH   5  10
ENDBRANCH   3   4
ENDBRANCH   1   3
BRANCH   2  13
HETATM   13  C9  UNL     1      23.788   2.969  52.087  1.00  0.00     0.272 C 
BRANCH  13  14
HETATM   14  N2  UNL     1      24.199   2.727  50.722  1.00  0.00    -0.372 N 
HETATM   15  H12 UNL     1      23.907   1.873  50.214  1.00  0.00     0.161 HD
BRANCH  14  16
HETATM   16  C10 UNL     1      25.031   3.674  50.022  1.00  0.00     0.030 A 
HETATM   17  C11 UNL     1      26.357   3.416  49.780  1.00  0.00     0.029 A 
HETATM   18  C12 UNL     1      27.182   4.295  49.115  1.00  0.00     0.004 A 
HETATM   19  C13 UNL     1      26.617   5.483  48.684  1.00  0.00     0.024 A 
HETATM   20  C14 UNL     1      25.291   5.775  48.910  1.00  0.00     0.036 A 
HETATM   21 CL1  UNL     1      24.484   7.239  48.410  1.00  0.00    -0.084 Cl
HETATM   22  C15 UNL     1      24.472   4.870  49.585  1.00  0.00     0.053 A 
ENDBRANCH  14  16
ENDBRANCH  13  14
ENDBRANCH   2  13
TORSDOF 7
ENDMDL
MODEL 2
REMARK VINA RESULT:      -6.9      4.285      6.493
REMARK  7 active torsions:
REMARK  status: ('A' for Active; 'I' for Inactive)
REMARK    1  A    between atoms: C1_2  and  O1_3 
REMARK    2  A    between atoms: O1_3  and  C2_4 
REMARK    3  A    between atoms: C7_9  and  O2_10 
REMARK    4  A    between atoms: O2_10  and  C8_11 
REMARK    5  A    between atoms: N1_12  and  C9_13 
REMARK    6  A    between atoms: C9_13  and  N2_14 
REMARK    7  A    between atoms: N2_14  and  C10_15 
ROOT
HETATM    1  C8  UNL     1      23.797   1.922  51.239  1.00  0.00     0.255 C 
HETATM    2  N1  UNL     1      24.649   2.862  51.321  1.00  0.00    -0.259 NA
ENDROOT
BRANCH   1   3
HETATM    3  O2  UNL     1      22.609   1.952  51.960  1.00  0.00    -0.302 OA
BRANCH   3   4
HETATM    4  C7  UNL     1      22.395   0.974  52.894  1.00  0.00     0.106 A 
HETATM    5  C2  UNL     1      21.032   0.766  53.434  1.00  0.00     0.101 A 
HETATM    6  C3  UNL     1      20.931  -0.217  54.345  1.00  0.00     0.013 A 
HETATM    7  C4  UNL     1      21.966  -1.117  54.883  1.00  0.00     0.034 A 
HETATM    8  C5  UNL     1      23.324  -0.876  54.314  1.00  0.00     0.034 A 
HETATM    9  C6  UNL     1      23.393   0.218  53.313  1.00  0.00     0.014 A 
BRANCH   5  10
HETATM   10  O1  UNL     1      20.028   1.599  52.948  1.00  0.00    -0.319 OA
BRANCH  10  11
HETATM   11  C1  UNL     1      19.212   1.134  51.887  1.00  0.00     0.398 C 
HETATM   12  F1  UNL     1      19.692  -0.065  51.370  1.00  0.00    -0.227 F 
ENDBRANCH  10  11
ENDBRANCH   5  10
ENDBRANCH   3   4
ENDBRANCH   1   3
BRANCH   2  13
HETATM   13  C9  UNL     1      25.897   2.973  50.654  1.00  0.00     0.272 C 
BRANCH  13  14
HETATM   14  N2  UNL     1      27.050   3.066  51.522  1.00  0.00    -0.372 N 
HETATM   15  H12 UNL     1      27.650   3.910  51.536  1.00  0.00     0.161 HD
BRANCH  14  16
HETATM   16  C10 UNL     1      27.401   1.978  52.401  1.00  0.00     0.030 A 
HETATM   17  C11 UNL     1      28.152   2.189  53.530  1.00  0.00     0.029 A 
HETATM   18  C12 UNL     1      28.507   1.176  54.393  1.00  0.00     0.004 A 
HETATM   19  C13 UNL     1      28.071  -0.099  54.079  1.00  0.00     0.024 A 
HETATM   20  C14 UNL     1      27.316  -0.347  52.954  1.00  0.00     0.036 A 
HETATM   21 CL1  UNL     1      26.718  -1.912  52.468  1.00  0.00    -0.084 Cl
HETATM   22  C15 UNL     1      26.967   0.693  52.094  1.00  0.00     0.053 A 
ENDBRANCH  14  16
ENDBRANCH  13  14
ENDBRANCH   2  13
TORSDOF 7
ENDMDL
MODEL 3
REMARK VINA RESULT:      -6.6      2.958      4.230
REMARK  7 active torsions:
REMARK  status: ('A' for Active; 'I' for Inactive)
REMARK    1  A    between atoms: C1_2  and  O1_3 
REMARK    2  A    between atoms: O1_3  and  C2_4 
REMARK    3  A    between atoms: C7_9  and  O2_10 
REMARK    4  A    between atoms: O2_10  and  C8_11 
REMARK    5  A    between atoms: N1_12  and  C9_13 
REMARK    6  A    between atoms: C9_13  and  N2_14 
REMARK    7  A    between atoms: N2_14  and  C10_15 
ROOT
HETATM    1  C8  UNL     1      26.275   2.812  50.727  1.00  0.00     0.255 C 
HETATM    2  N1  UNL     1      25.361   3.565  51.188  1.00  0.00    -0.259 NA
ENDROOT
BRANCH   1   3
HETATM    3  O2  UNL     1      27.168   2.155  51.566  1.00  0.00    -0.302 OA
BRANCH   3   4
HETATM    4  C7  UNL     1      26.659   1.307  52.513  1.00  0.00     0.106 A 
HETATM    5  C2  UNL     1      27.083   1.450  53.924  1.00  0.00     0.101 A 
HETATM    6  C3  UNL     1      26.526   0.568  54.773  1.00  0.00     0.013 A 
HETATM    7  C4  UNL     1      25.560  -0.513  54.511  1.00  0.00     0.034 A 
HETATM    8  C5  UNL     1      25.159  -0.625  53.079  1.00  0.00     0.034 A 
HETATM    9  C6  UNL     1      25.796   0.365  52.177  1.00  0.00     0.014 A 
BRANCH   5  10
HETATM   10  O1  UNL     1      27.995   2.463  54.208  1.00  0.00    -0.319 OA
BRANCH  10  11
HETATM   11  C1  UNL     1      29.377   2.149  54.226  1.00  0.00     0.398 C 
HETATM   12  F1  UNL     1      29.583   0.775  54.153  1.00  0.00    -0.227 F 
ENDBRANCH  10  11
ENDBRANCH   5  10
ENDBRANCH   3   4
ENDBRANCH   1   3
BRANCH   2  13
HETATM   13  C9  UNL     1      24.382   4.297  50.465  1.00  0.00     0.272 C 
BRANCH  13  14
HETATM   14  N2  UNL     1      23.020   4.098  50.906  1.00  0.00    -0.372 N 
HETATM   15  H12 UNL     1      22.404   4.899  51.136  1.00  0.00     0.161 HD
BRANCH  14  16
HETATM   16  C10 UNL     1      22.473   2.771  51.039  1.00  0.00     0.030 A 
HETATM   17  C11 UNL     1      22.078   2.049  49.941  1.00  0.00     0.029 A 
HETATM   18  C12 UNL     1      21.552   0.780  50.028  1.00  0.00     0.004 A 
HETATM   19  C13 UNL     1      21.429   0.237  51.295  1.00  0.00     0.024 A 
HETATM   20  C14 UNL     1      21.815   0.932  52.419  1.00  0.00     0.036 A 
HETATM   21 CL1  UNL     1      21.704   0.340  54.056  1.00  0.00    -0.084 Cl
HETATM   22  C15 UNL     1      22.347   2.216  52.308  1.00  0.00     0.053 A 
ENDBRANCH  14  16
ENDBRANCH  13  14
ENDBRANCH   2  13
TORSDOF 7
ENDMDL
MODEL 4
REMARK VINA RESULT:      -6.6      3.697      7.125
REMARK  7 active torsions:
REMARK  status: ('A' for Active; 'I' for Inactive)
REMARK    1  A    between atoms: C1_2  and  O1_3 
REMARK    2  A    between atoms: O1_3  and  C2_4 
REMARK    3  A    between atoms: C7_9  and  O2_10 
REMARK    4  A    between atoms: O2_10  and  C8_11 
REMARK    5  A    between atoms: N1_12  and  C9_13 
REMARK    6  A    between atoms: C9_13  and  N2_14 
REMARK    7  A    between atoms: N2_14  and  C10_15 
ROOT
HETATM    1  C8  UNL     1      25.434   3.136  50.938  1.00  0.00     0.255 C 
HETATM    2  N1  UNL     1      24.683   3.077  51.961  1.00  0.00    -0.259 NA
ENDROOT
BRANCH   1   3
HETATM    3  O2  UNL     1      25.083   3.883  49.820  1.00  0.00    -0.302 OA
BRANCH   3   4
HETATM    4  C7  UNL     1      25.993   4.782  49.332  1.00  0.00     0.106 A 
HETATM    5  C2  UNL     1      25.621   6.211  49.221  1.00  0.00     0.101 A 
HETATM    6  C3  UNL     1      26.586   7.008  48.730  1.00  0.00     0.013 A 
HETATM    7  C4  UNL     1      27.952   6.677  48.289  1.00  0.00     0.034 A 
HETATM    8  C5  UNL     1      28.288   5.229  48.416  1.00  0.00     0.034 A 
HETATM    9  C6  UNL     1      27.197   4.384  48.961  1.00  0.00     0.014 A 
BRANCH   5  10
HETATM   10  O1  UNL     1      24.337   6.561  49.630  1.00  0.00    -0.319 OA
BRANCH  10  11
HETATM   11  C1  UNL     1      24.173   7.217  50.875  1.00  0.00     0.398 C 
HETATM   12  F1  UNL     1      24.169   6.307  51.927  1.00  0.00    -0.227 F 
ENDBRANCH  10  11
ENDBRANCH   5  10
ENDBRANCH   3   4
ENDBRANCH   1   3
BRANCH   2  13
HETATM   13  C9  UNL     1      24.902   2.363  53.169  1.00  0.00     0.272 C 
BRANCH  13  14
HETATM   14  N2  UNL     1      25.438   1.030  53.003  1.00  0.00    -0.372 N 
HETATM   15  H12 UNL     1      24.839   0.241  52.699  1.00  0.00     0.161 HD
BRANCH  14  16
HETATM   16  C10 UNL     1      26.830   0.756  53.257  1.00  0.00     0.030 A 
HETATM   17  C11 UNL     1      27.699   1.756  53.620  1.00  0.00     0.029 A 
HETATM   18  C12 UNL     1      29.034   1.533  53.871  1.00  0.00     0.004 A 
HETATM   19  C13 UNL     1      29.489   0.232  53.744  1.00  0.00     0.024 A 
HETATM   20  C14 UNL     1      28.646  -0.795  53.382  1.00  0.00     0.036 A 
HETATM   21 CL1  UNL     1      29.117  -2.464  53.195  1.00  0.00    -0.084 Cl
HETATM   22  C15 UNL     1      27.296  -0.548  53.133  1.00  0.00     0.053 A 
ENDBRANCH  14  16
ENDBRANCH  13  14
ENDBRANCH   2  13
TORSDOF 7
ENDMDL
MODEL 5
REMARK VINA RESULT:      -6.6      2.641      3.681
REMARK  7 active torsions:
REMARK  status: ('A' for Active; 'I' for Inactive)
REMARK    1  A    between atoms: C1_2  and  O1_3 
REMARK    2  A    between atoms: O1_3  and  C2_4 
REMARK    3  A    between atoms: C7_9  and  O2_10 
REMARK    4  A    between atoms: O2_10  and  C8_11 
REMARK    5  A    between atoms: N1_12  and  C9_13 
REMARK    6  A    between atoms: C9_13  and  N2_14 
REMARK    7  A    between atoms: N2_14  and  C10_15 
ROOT
HETATM    1  C8  UNL     1      26.124   2.663  51.560  1.00  0.00     0.255 C 
HETATM    2  N1  UNL     1      26.911   3.095  50.662  1.00  0.00    -0.259 NA
ENDROOT
BRANCH   1   3
HETATM    3  O2  UNL     1      26.602   2.110  52.742  1.00  0.00    -0.302 OA
BRANCH   3   4
HETATM    4  C7  UNL     1      25.855   1.135  53.348  1.00  0.00     0.106 A 
HETATM    5  C2  UNL     1      26.395   0.433  54.534  1.00  0.00     0.101 A 
HETATM    6  C3  UNL     1      25.583  -0.506  55.052  1.00  0.00     0.013 A 
HETATM    7  C4  UNL     1      24.243  -0.939  54.619  1.00  0.00     0.034 A 
HETATM    8  C5  UNL     1      23.735  -0.208  53.422  1.00  0.00     0.034 A 
HETATM    9  C6  UNL     1      24.661   0.818  52.882  1.00  0.00     0.014 A 
BRANCH   5  10
HETATM   10  O1  UNL     1      27.660   0.817  54.972  1.00  0.00    -0.319 OA
BRANCH  10  11
HETATM   11  C1  UNL     1      28.777   0.027  54.603  1.00  0.00     0.398 C 
HETATM   12  F1  UNL     1      29.099   0.206  53.261  1.00  0.00    -0.227 F 
ENDBRANCH  10  11
ENDBRANCH   5  10
ENDBRANCH   3   4
ENDBRANCH   1   3
BRANCH   2  13
HETATM   13  C9  UNL     1      26.577   3.681  49.412  1.00  0.00     0.272 C 
BRANCH  13  14
HETATM   14  N2  UNL     1      26.510   5.126  49.412  1.00  0.00    -0.372 N 
HETATM   15  H12 UNL     1      25.823   5.635  49.998  1.00  0.00     0.161 HD
BRANCH  14  16
HETATM   16  C10 UNL     1      27.402   5.907  48.591  1.00  0.00     0.030 A 
HETATM   17  C11 UNL     1      26.981   7.063  47.982  1.00  0.00     0.029 A 
HETATM   18  C12 UNL     1      27.803   7.835  47.193  1.00  0.00     0.004 A 
HETATM   19  C13 UNL     1      29.106   7.398  47.026  1.00  0.00     0.024 A 
HETATM   20  C14 UNL     1      29.562   6.243  47.622  1.00  0.00     0.036 A 
HETATM   21 CL1  UNL     1      31.179   5.607  47.477  1.00  0.00    -0.084 Cl
HETATM   22  C15 UNL     1      28.713   5.477  48.419  1.00  0.00     0.053 A 
ENDBRANCH  14  16
ENDBRANCH  13  14
ENDBRANCH   2  13
TORSDOF 7
ENDMDL
MODEL 6
REMARK VINA RESULT:      -6.5      4.373      6.029
REMARK  7 active torsions:
REMARK  status: ('A' for Active; 'I' for Inactive)
REMARK    1  A    between atoms: C1_2  and  O1_3 
REMARK    2  A    between atoms: O1_3  and  C2_4 
REMARK    3  A    between atoms: C7_9  and  O2_10 
REMARK    4  A    between atoms: O2_10  and  C8_11 
REMARK    5  A    between atoms: N1_12  and  C9_13 
REMARK    6  A    between atoms: C9_13  and  N2_14 
REMARK    7  A    between atoms: N2_14  and  C10_15 
ROOT
HETATM    1  C8  UNL     1      22.918  -1.125  53.567  1.00  0.00     0.255 C 
HETATM    2  N1  UNL     1      21.998  -1.228  54.438  1.00  0.00    -0.259 NA
ENDROOT
BRANCH   1   3
HETATM    3  O2  UNL     1      24.220  -0.794  53.919  1.00  0.00    -0.302 OA
BRANCH   3   4
HETATM    4  C7  UNL     1      24.910   0.068  53.108  1.00  0.00     0.106 A 
HETATM    5  C2  UNL     1      26.361  -0.134  52.896  1.00  0.00     0.101 A 
HETATM    6  C3  UNL     1      26.942   0.767  52.084  1.00  0.00     0.013 A 
HETATM    7  C4  UNL     1      26.355   1.917  51.376  1.00  0.00     0.034 A 
HETATM    8  C5  UNL     1      24.893   2.085  51.615  1.00  0.00     0.034 A 
HETATM    9  C6  UNL     1      24.291   1.072  52.516  1.00  0.00     0.014 A 
BRANCH   5  10
HETATM   10  O1  UNL     1      26.950  -1.212  53.551  1.00  0.00    -0.319 OA
BRANCH  10  11
HETATM   11  C1  UNL     1      27.404  -2.311  52.780  1.00  0.00     0.398 C 
HETATM   12  F1  UNL     1      26.521  -2.600  51.745  1.00  0.00    -0.227 F 
ENDBRANCH  10  11
ENDBRANCH   5  10
ENDBRANCH   3   4
ENDBRANCH   1   3
BRANCH   2  13
HETATM   13  C9  UNL     1      20.632  -1.556  54.235  1.00  0.00     0.272 C 
BRANCH  13  14
HETATM   14  N2  UNL     1      19.759  -0.427  54.003  1.00  0.00    -0.372 N 
HETATM   15  H12 UNL     1      19.415   0.160  54.785  1.00  0.00     0.161 HD
BRANCH  14  16
HETATM   16  C10 UNL     1      19.340  -0.080  52.668  1.00  0.00     0.030 A 
HETATM   17  C11 UNL     1      18.087  -0.401  52.208  1.00  0.00     0.029 A 
HETATM   18  C12 UNL     1      17.651  -0.086  50.941  1.00  0.00     0.004 A 
HETATM   19  C13 UNL     1      18.540   0.585  50.119  1.00  0.00     0.024 A 
HETATM   20  C14 UNL     1      19.804   0.923  50.547  1.00  0.00     0.036 A 
HETATM   21 CL1  UNL     1      20.998   1.765  49.594  1.00  0.00    -0.084 Cl
HETATM   22  C15 UNL     1      20.225   0.595  51.835  1.00  0.00     0.053 A 
ENDBRANCH  14  16
ENDBRANCH  13  14
ENDBRANCH   2  13
TORSDOF 7
ENDMDL
MODEL 7
REMARK VINA RESULT:      -6.5      2.176      3.076
REMARK  7 active torsions:
REMARK  status: ('A' for Active; 'I' for Inactive)
REMARK    1  A    between atoms: C1_2  and  O1_3 
REMARK    2  A    between atoms: O1_3  and  C2_4 
REMARK    3  A    between atoms: C7_9  and  O2_10 
REMARK    4  A    between atoms: O2_10  and  C8_11 
REMARK    5  A    between atoms: N1_12  and  C9_13 
REMARK    6  A    between atoms: C9_13  and  N2_14 
REMARK    7  A    between atoms: N2_14  and  C10_15 
ROOT
HETATM    1  C8  UNL     1      26.327   2.354  52.953  1.00  0.00     0.255 C 
HETATM    2  N1  UNL     1      26.726   2.548  51.762  1.00  0.00    -0.259 NA
ENDROOT
BRANCH   1   3
HETATM    3  O2  UNL     1      27.187   1.891  53.942  1.00  0.00    -0.302 OA
BRANCH   3   4
HETATM    4  C7  UNL     1      27.854   0.716  53.718  1.00  0.00     0.106 A 
HETATM    5  C2  UNL     1      27.087  -0.513  53.415  1.00  0.00     0.101 A 
HETATM    6  C3  UNL     1      27.838  -1.611  53.214  1.00  0.00     0.013 A 
HETATM    7  C4  UNL     1      29.301  -1.773  53.247  1.00  0.00     0.034 A 
HETATM    8  C5  UNL     1      30.037  -0.513  53.555  1.00  0.00     0.034 A 
HETATM    9  C6  UNL     1      29.173   0.674  53.771  1.00  0.00     0.014 A 
BRANCH   5  10
HETATM   10  O1  UNL     1      25.701  -0.397  53.375  1.00  0.00    -0.319 OA
BRANCH  10  11
HETATM   11  C1  UNL     1      24.953  -0.768  54.520  1.00  0.00     0.398 C 
HETATM   12  F1  UNL     1      25.701  -0.614  55.683  1.00  0.00    -0.227 F 
ENDBRANCH  10  11
ENDBRANCH   5  10
ENDBRANCH   3   4
ENDBRANCH   1   3
BRANCH   2  13
HETATM   13  C9  UNL     1      25.975   3.014  50.651  1.00  0.00     0.272 C 
BRANCH  13  14
HETATM   14  N2  UNL     1      26.749   3.297  49.463  1.00  0.00    -0.372 N 
HETATM   15  H12 UNL     1      27.217   2.541  48.930  1.00  0.00     0.161 HD
BRANCH  14  16
HETATM   16  C10 UNL     1      26.895   4.648  48.980  1.00  0.00     0.030 A 
HETATM   17  C11 UNL     1      25.840   5.527  48.993  1.00  0.00     0.029 A 
HETATM   18  C12 UNL     1      25.941   6.823  48.540  1.00  0.00     0.004 A 
HETATM   19  C13 UNL     1      27.174   7.226  48.058  1.00  0.00     0.024 A 
HETATM   20  C14 UNL     1      28.253   6.371  48.031  1.00  0.00     0.036 A 
HETATM   21 CL1  UNL     1      29.845   6.779  47.446  1.00  0.00    -0.084 Cl
HETATM   22  C15 UNL     1      28.130   5.062  48.494  1.00  0.00     0.053 A 
ENDBRANCH  14  16
ENDBRANCH  13  14
ENDBRANCH   2  13
TORSDOF 7
ENDMDL
MODEL 8
REMARK VINA RESULT:      -6.5      3.119      4.549
REMARK  7 active torsions:
REMARK  status: ('A' for Active; 'I' for Inactive)
REMARK    1  A    between atoms: C1_2  and  O1_3 
REMARK    2  A    between atoms: O1_3  and  C2_4 
REMARK    3  A    between atoms: C7_9  and  O2_10 
REMARK    4  A    between atoms: O2_10  and  C8_11 
REMARK    5  A    between atoms: N1_12  and  C9_13 
REMARK    6  A    between atoms: C9_13  and  N2_14 
REMARK    7  A    between atoms: N2_14  and  C10_15 
ROOT
HETATM    1  C8  UNL     1      23.332  -0.894  53.714  1.00  0.00     0.255 C 
HETATM    2  N1  UNL     1      22.306  -0.666  54.427  1.00  0.00    -0.259 NA
ENDROOT
BRANCH   1   3
HETATM    3  O2  UNL     1      24.603  -0.510  54.123  1.00  0.00    -0.302 OA
BRANCH   3   4
HETATM    4  C7  UNL     1      25.293   0.379  53.341  1.00  0.00     0.106 A 
HETATM    5  C2  UNL     1      26.741   0.583  53.571  1.00  0.00     0.101 A 
HETATM    6  C3  UNL     1      27.321   1.476  52.751  1.00  0.00     0.013 A 
HETATM    7  C4  UNL     1      26.737   2.277  51.661  1.00  0.00     0.034 A 
HETATM    8  C5  UNL     1      25.278   2.043  51.461  1.00  0.00     0.034 A 
HETATM    9  C6  UNL     1      24.676   1.051  52.386  1.00  0.00     0.014 A 
BRANCH   5  10
HETATM   10  O1  UNL     1      27.327  -0.158  54.593  1.00  0.00    -0.319 OA
BRANCH  10  11
HETATM   11  C1  UNL     1      28.717  -0.014  54.829  1.00  0.00     0.398 C 
HETATM   12  F1  UNL     1      29.457  -0.856  54.005  1.00  0.00    -0.227 F 
ENDBRANCH  10  11
ENDBRANCH   5  10
ENDBRANCH   3   4
ENDBRANCH   1   3
BRANCH   2  13
HETATM   13  C9  UNL     1      20.953  -0.995  54.147  1.00  0.00     0.272 C 
BRANCH  13  14
HETATM   14  N2  UNL     1      20.179   0.064  53.539  1.00  0.00    -0.372 N 
HETATM   15  H12 UNL     1      19.232   0.307  53.883  1.00  0.00     0.161 HD
BRANCH  14  16
HETATM   16  C10 UNL     1      20.704   0.820  52.429  1.00  0.00     0.030 A 
HETATM   17  C11 UNL     1      20.921   0.234  51.207  1.00  0.00     0.029 A 
HETATM   18  C12 UNL     1      21.421   0.923  50.125  1.00  0.00     0.004 A 
HETATM   19  C13 UNL     1      21.707   2.264  50.311  1.00  0.00     0.024 A 
HETATM   20  C14 UNL     1      21.502   2.884  51.524  1.00  0.00     0.036 A 
HETATM   21 CL1  UNL     1      21.828   4.564  51.863  1.00  0.00    -0.084 Cl
HETATM   22  C15 UNL     1      20.994   2.168  52.607  1.00  0.00     0.053 A 
ENDBRANCH  14  16
ENDBRANCH  13  14
ENDBRANCH   2  13
TORSDOF 7
ENDMDL
MODEL 9
REMARK VINA RESULT:      -6.4      3.436      6.558
REMARK  7 active torsions:
REMARK  status: ('A' for Active; 'I' for Inactive)
REMARK    1  A    between atoms: C1_2  and  O1_3 
REMARK    2  A    between atoms: O1_3  and  C2_4 
REMARK    3  A    between atoms: C7_9  and  O2_10 
REMARK    4  A    between atoms: O2_10  and  C8_11 
REMARK    5  A    between atoms: N1_12  and  C9_13 
REMARK    6  A    between atoms: C9_13  and  N2_14 
REMARK    7  A    between atoms: N2_14  and  C10_15 
ROOT
HETATM    1  C8  UNL     1      23.159   0.296  52.412  1.00  0.00     0.255 C 
HETATM    2  N1  UNL     1      23.886   0.455  53.442  1.00  0.00    -0.259 NA
ENDROOT
BRANCH   1   3
HETATM    3  O2  UNL     1      22.323   1.305  51.949  1.00  0.00    -0.302 OA
BRANCH   3   4
HETATM    4  C7  UNL     1      22.406   1.657  50.628  1.00  0.00     0.106 A 
HETATM    5  C2  UNL     1      23.399   2.670  50.204  1.00  0.00     0.101 A 
HETATM    6  C3  UNL     1      23.398   2.945  48.888  1.00  0.00     0.013 A 
HETATM    7  C4  UNL     1      22.563   2.391  47.809  1.00  0.00     0.034 A 
HETATM    8  C5  UNL     1      21.576   1.375  48.276  1.00  0.00     0.034 A 
HETATM    9  C6  UNL     1      21.609   1.101  49.734  1.00  0.00     0.014 A 
BRANCH   5  10
HETATM   10  O1  UNL     1      24.206   3.215  51.199  1.00  0.00    -0.319 OA
BRANCH  10  11
HETATM   11  C1  UNL     1      23.696   4.279  51.984  1.00  0.00     0.398 C 
HETATM   12  F1  UNL     1      23.981   4.091  53.333  1.00  0.00    -0.227 F 
ENDBRANCH  10  11
ENDBRANCH   5  10
ENDBRANCH   3   4
ENDBRANCH   1   3
BRANCH   2  13
HETATM   13  C9  UNL     1      24.784  -0.474  54.032  1.00  0.00     0.272 C 
BRANCH  13  14
HETATM   14  N2  UNL     1      25.757  -1.045  53.127  1.00  0.00    -0.372 N 
HETATM   15  H12 UNL     1      25.473  -1.682  52.361  1.00  0.00     0.161 HD
BRANCH  14  16
HETATM   16  C10 UNL     1      27.160  -0.744  53.265  1.00  0.00     0.030 A 
HETATM   17  C11 UNL     1      28.114  -1.724  53.151  1.00  0.00     0.029 A 
HETATM   18  C12 UNL     1      29.462  -1.474  53.276  1.00  0.00     0.004 A 
HETATM   19  C13 UNL     1      29.839  -0.167  53.526  1.00  0.00     0.024 A 
HETATM   20  C14 UNL     1      28.909   0.842  53.646  1.00  0.00     0.036 A 
HETATM   21 CL1  UNL     1      29.277   2.518  53.960  1.00  0.00    -0.084 Cl
HETATM   22  C15 UNL     1      27.548   0.568  53.516  1.00  0.00     0.053 A 
ENDBRANCH  14  16
ENDBRANCH  13  14
ENDBRANCH   2  13
TORSDOF 7
ENDMDL
