MODEL 1
REMARK VINA RESULT:      -7.5      0.000      0.000
REMARK  2 active torsions:
REMARK  status: ('A' for Active; 'I' for Inactive)
REMARK    1  A    between atoms: O1_2  and  C2_3 
REMARK    2  A    between atoms: C4_5  and  O2_6 
ROOT
HETATM    1  C2  UNL     1      22.302   3.735  47.405  1.00  0.00     0.071 A 
HETATM    2  C3  UNL     1      21.785   2.504  47.605  1.00  0.00     0.073 A 
HETATM    3  C4  UNL     1      22.133   1.934  48.826  1.00  0.00     0.075 A 
HETATM    4  C5  UNL     1      22.942   2.435  49.899  1.00  0.00    -0.012 A 
HETATM    5  C6  UNL     1      23.331   3.650  49.467  1.00  0.00    -0.003 A 
HETATM    6  C7  UNL     1      23.091   4.355  48.326  1.00  0.00     0.048 A 
HETATM    7  C8  UNL     1      24.230   4.393  50.476  1.00  0.00     0.242 C 
HETATM    8  N1  UNL     1      25.328   3.642  50.623  1.00  0.00    -0.251 N 
HETATM    9  C9  UNL     1      26.405   3.124  50.656  1.00  0.00     0.228 A 
HETATM   10  N2  UNL     1      25.220   2.630  51.159  1.00  0.00    -0.258 N 
HETATM   11  C10 UNL     1      25.006   1.609  51.913  1.00  0.00     0.113 C 
HETATM   12  C11 UNL     1      23.602   1.470  52.198  1.00  0.00     0.065 A 
HETATM   13  C12 UNL     1      22.389   1.214  52.556  1.00  0.00     0.038 A 
HETATM   14 BR1  UNL     1      23.013  -0.239  53.585  1.00  0.00    -0.138 Br
HETATM   15  C13 UNL     1      21.069   1.885  52.597  1.00  0.00     0.001 C 
HETATM   16  C14 UNL     1      20.405   3.045  52.380  1.00  0.00     0.048 C 
HETATM   17  C15 UNL     1      20.994   4.349  51.930  1.00  0.00     0.003 C 
HETATM   18  C16 UNL     1      22.068   5.124  51.572  1.00  0.00    -0.001 C 
HETATM   19  C17 UNL     1      22.129   6.530  51.153  1.00  0.00     0.067 C 
HETATM   20  N3  UNL     1      23.400   4.593  51.663  1.00  0.00    -0.367 N 
HETATM   21  C18 UNL     1      22.948   1.411  50.873  1.00  0.00     0.084 A 
HETATM   22  H16 UNL     1      23.419   4.488  52.698  1.00  0.00     0.161 HD
ENDROOT
BRANCH   1  23
HETATM   23  O1  UNL     1      22.094   4.492  46.270  1.00  0.00    -0.356 OA
HETATM   24  C1  UNL     1      21.515   4.055  45.095  1.00  0.00     0.210 C 
ENDBRANCH   1  23
BRANCH   3  25
HETATM   25  O2  UNL     1      21.488   0.651  48.828  1.00  0.00    -0.360 OA
HETATM   26  H5  UNL     1      21.572   0.193  47.927  1.00  0.00     0.217 HD
ENDBRANCH   3  25
TORSDOF 2
ENDMDL
MODEL 2
REMARK VINA RESULT:      -7.0      2.505      4.407
REMARK  2 active torsions:
REMARK  status: ('A' for Active; 'I' for Inactive)
REMARK    1  A    between atoms: O1_2  and  C2_3 
REMARK    2  A    between atoms: C4_5  and  O2_6 
ROOT
HETATM    1  C2  UNL     1      21.108   5.959  50.683  1.00  0.00     0.071 A 
HETATM    2  C3  UNL     1      22.111   6.331  51.507  1.00  0.00     0.073 A 
HETATM    3  C4  UNL     1      22.862   5.269  52.001  1.00  0.00     0.075 A 
HETATM    4  C5  UNL     1      22.750   3.857  51.781  1.00  0.00    -0.012 A 
HETATM    5  C6  UNL     1      21.700   3.746  50.943  1.00  0.00    -0.003 A 
HETATM    6  C7  UNL     1      20.865   4.657  50.369  1.00  0.00     0.048 A 
HETATM    7  C8  UNL     1      21.383   2.287  50.558  1.00  0.00     0.242 C 
HETATM    8  N1  UNL     1      21.065   1.659  51.697  1.00  0.00    -0.251 N 
HETATM    9  C9  UNL     1      20.590   1.092  52.637  1.00  0.00     0.228 A 
HETATM   10  N2  UNL     1      21.901   1.485  52.467  1.00  0.00    -0.258 N 
HETATM   11  C10 UNL     1      22.943   1.205  53.169  1.00  0.00     0.113 C 
HETATM   12  C11 UNL     1      24.114   1.834  52.617  1.00  0.00     0.065 A 
HETATM   13  C12 UNL     1      25.253   2.316  52.246  1.00  0.00     0.038 A 
HETATM   14 BR1  UNL     1      26.089   1.402  53.670  1.00  0.00    -0.138 Br
HETATM   15  C13 UNL     1      25.868   2.940  51.052  1.00  0.00     0.001 C 
HETATM   16  C14 UNL     1      25.676   3.292  49.758  1.00  0.00     0.048 C 
HETATM   17  C15 UNL     1      24.442   3.061  48.936  1.00  0.00     0.003 C 
HETATM   18  C16 UNL     1      23.171   2.568  48.787  1.00  0.00    -0.001 C 
HETATM   19  C17 UNL     1      22.265   2.606  47.633  1.00  0.00     0.067 C 
HETATM   20  N3  UNL     1      22.566   1.806  49.845  1.00  0.00    -0.367 N 
HETATM   21  C18 UNL     1      23.779   3.274  52.553  1.00  0.00     0.084 A 
HETATM   22  H16 UNL     1      23.223   1.000  49.806  1.00  0.00     0.161 HD
ENDROOT
BRANCH   1  23
HETATM   23  O1  UNL     1      20.234   6.837  50.076  1.00  0.00    -0.356 OA
HETATM   24  C1  UNL     1      20.501   8.148  49.735  1.00  0.00     0.210 C 
ENDBRANCH   1  23
BRANCH   3  25
HETATM   25  O2  UNL     1      23.854   5.881  52.840  1.00  0.00    -0.360 OA
HETATM   26  H5  UNL     1      23.747   5.598  53.808  1.00  0.00     0.217 HD
ENDBRANCH   3  25
TORSDOF 2
ENDMDL
MODEL 3
REMARK VINA RESULT:      -6.8      3.033      5.126
REMARK  2 active torsions:
REMARK  status: ('A' for Active; 'I' for Inactive)
REMARK    1  A    between atoms: O1_2  and  C2_3 
REMARK    2  A    between atoms: C4_5  and  O2_6 
ROOT
HETATM    1  C2  UNL     1      22.388  -0.249  52.718  1.00  0.00     0.071 A 
HETATM    2  C3  UNL     1      23.654   0.174  52.921  1.00  0.00     0.073 A 
HETATM    3  C4  UNL     1      24.044   1.217  52.087  1.00  0.00     0.075 A 
HETATM    4  C5  UNL     1      23.330   1.913  51.057  1.00  0.00    -0.012 A 
HETATM    5  C6  UNL     1      22.121   1.319  51.049  1.00  0.00    -0.003 A 
HETATM    6  C7  UNL     1      21.574   0.306  51.778  1.00  0.00     0.048 A 
HETATM    7  C8  UNL     1      21.161   1.913  49.998  1.00  0.00     0.242 C 
HETATM    8  N1  UNL     1      21.731   1.696  48.806  1.00  0.00    -0.251 N 
HETATM    9  C9  UNL     1      22.085   1.369  47.711  1.00  0.00     0.228 A 
HETATM   10  N2  UNL     1      22.689   2.279  48.553  1.00  0.00    -0.258 N 
HETATM   11  C10 UNL     1      23.651   3.103  48.322  1.00  0.00     0.113 C 
HETATM   12  C11 UNL     1      23.958   3.871  49.500  1.00  0.00     0.065 A 
HETATM   13  C12 UNL     1      24.347   4.644  50.458  1.00  0.00     0.038 A 
HETATM   14 BR1  UNL     1      25.587   5.449  49.285  1.00  0.00    -0.138 Br
HETATM   15  C13 UNL     1      23.869   5.120  51.776  1.00  0.00     0.001 C 
HETATM   16  C14 UNL     1      22.843   5.101  52.659  1.00  0.00     0.048 C 
HETATM   17  C15 UNL     1      21.519   4.415  52.487  1.00  0.00     0.003 C 
HETATM   18  C16 UNL     1      20.639   3.668  51.746  1.00  0.00    -0.001 C 
HETATM   19  C17 UNL     1      19.288   3.194  52.068  1.00  0.00     0.067 C 
HETATM   20  N3  UNL     1      20.964   3.307  50.393  1.00  0.00    -0.367 N 
HETATM   21  C18 UNL     1      24.241   2.866  50.548  1.00  0.00     0.084 A 
HETATM   22  H16 UNL     1      20.962   4.272  50.005  1.00  0.00     0.161 HD
ENDROOT
BRANCH   1  23
HETATM   23  O1  UNL     1      21.785  -1.269  53.424  1.00  0.00    -0.356 OA
HETATM   24  C1  UNL     1      21.897  -1.498  54.782  1.00  0.00     0.210 C 
ENDBRANCH   1  23
BRANCH   3  25
HETATM   25  O2  UNL     1      25.399   1.502  52.468  1.00  0.00    -0.360 OA
HETATM   26  H5  UNL     1      25.772   2.291  51.949  1.00  0.00     0.217 HD
ENDBRANCH   3  25
TORSDOF 2
ENDMDL
MODEL 4
REMARK VINA RESULT:      -6.6      9.586     11.807
REMARK  2 active torsions:
REMARK  status: ('A' for Active; 'I' for Inactive)
REMARK    1  A    between atoms: O1_2  and  C2_3 
REMARK    2  A    between atoms: C4_5  and  O2_6 
ROOT
HETATM    1  C2  UNL     1      30.049   8.078  47.553  1.00  0.00     0.071 A 
HETATM    2  C3  UNL     1      30.086   6.830  48.068  1.00  0.00     0.073 A 
HETATM    3  C4  UNL     1      31.107   6.035  47.556  1.00  0.00     0.075 A 
HETATM    4  C5  UNL     1      32.118   6.320  46.580  1.00  0.00    -0.012 A 
HETATM    5  C6  UNL     1      31.873   7.597  46.228  1.00  0.00    -0.003 A 
HETATM    6  C7  UNL     1      30.939   8.509  46.617  1.00  0.00     0.048 A 
HETATM    7  C8  UNL     1      32.855   8.132  45.167  1.00  0.00     0.242 C 
HETATM    8  N1  UNL     1      32.686   7.368  44.080  1.00  0.00    -0.251 N 
HETATM    9  C9  UNL     1      32.452   6.856  43.025  1.00  0.00     0.228 A 
HETATM   10  N2  UNL     1      33.028   6.272  44.134  1.00  0.00    -0.258 N 
HETATM   11  C10 UNL     1      33.595   5.123  44.260  1.00  0.00     0.113 C 
HETATM   12  C11 UNL     1      34.061   4.929  45.608  1.00  0.00     0.065 A 
HETATM   13  C12 UNL     1      34.545   4.607  46.760  1.00  0.00     0.038 A 
HETATM   14 BR1  UNL     1      35.168   2.983  46.028  1.00  0.00    -0.138 Br
HETATM   15  C13 UNL     1      34.916   5.254  48.039  1.00  0.00     0.001 C 
HETATM   16  C14 UNL     1      35.031   6.433  48.696  1.00  0.00     0.048 C 
HETATM   17  C15 UNL     1      34.754   7.801  48.145  1.00  0.00     0.003 C 
HETATM   18  C16 UNL     1      34.390   8.633  47.117  1.00  0.00    -0.001 C 
HETATM   19  C17 UNL     1      34.244  10.093  47.080  1.00  0.00     0.067 C 
HETATM   20  N3  UNL     1      34.172   8.097  45.801  1.00  0.00    -0.367 N 
HETATM   21  C18 UNL     1      32.865   5.127  46.457  1.00  0.00     0.084 A 
HETATM   22  H16 UNL     1      35.153   7.793  45.629  1.00  0.00     0.161 HD
ENDROOT
BRANCH   1  23
HETATM   23  O1  UNL     1      29.126   9.040  47.909  1.00  0.00    -0.356 OA
HETATM   24  C1  UNL     1      28.815   9.434  49.196  1.00  0.00     0.210 C 
ENDBRANCH   1  23
BRANCH   3  25
HETATM   25  O2  UNL     1      30.962   4.775  48.229  1.00  0.00    -0.360 OA
HETATM   26  H5  UNL     1      31.339   4.811  49.170  1.00  0.00     0.217 HD
ENDBRANCH   3  25
TORSDOF 2
ENDMDL
MODEL 5
REMARK VINA RESULT:      -6.5      2.908      5.239
REMARK  2 active torsions:
REMARK  status: ('A' for Active; 'I' for Inactive)
REMARK    1  A    between atoms: O1_2  and  C2_3 
REMARK    2  A    between atoms: C4_5  and  O2_6 
ROOT
HETATM    1  C2  UNL     1      21.244   3.664  52.142  1.00  0.00     0.071 A 
HETATM    2  C3  UNL     1      21.262   5.012  52.067  1.00  0.00     0.073 A 
HETATM    3  C4  UNL     1      22.260   5.521  51.240  1.00  0.00     0.075 A 
HETATM    4  C5  UNL     1      23.263   4.856  50.461  1.00  0.00    -0.012 A 
HETATM    5  C6  UNL     1      23.039   3.549  50.700  1.00  0.00    -0.003 A 
HETATM    6  C7  UNL     1      22.128   2.882  51.462  1.00  0.00     0.048 A 
HETATM    7  C8  UNL     1      24.018   2.620  49.952  1.00  0.00     0.242 C 
HETATM    8  N1  UNL     1      25.240   2.917  50.412  1.00  0.00    -0.251 N 
HETATM    9  C9  UNL     1      26.324   2.995  50.910  1.00  0.00     0.228 A 
HETATM   10  N2  UNL     1      25.686   3.940  50.135  1.00  0.00    -0.258 N 
HETATM   11  C10 UNL     1      26.138   5.033  49.627  1.00  0.00     0.113 C 
HETATM   12  C11 UNL     1      25.112   5.712  48.881  1.00  0.00     0.065 A 
HETATM   13  C12 UNL     1      24.315   6.436  48.169  1.00  0.00     0.038 A 
HETATM   14 BR1  UNL     1      25.729   7.639  47.832  1.00  0.00    -0.138 Br
HETATM   15  C13 UNL     1      23.011   6.314  47.477  1.00  0.00     0.001 C 
HETATM   16  C14 UNL     1      22.004   5.472  47.144  1.00  0.00     0.048 C 
HETATM   17  C15 UNL     1      21.917   4.006  47.452  1.00  0.00     0.003 C 
HETATM   18  C16 UNL     1      22.440   2.856  47.986  1.00  0.00    -0.001 C 
HETATM   19  C17 UNL     1      21.887   1.498  48.046  1.00  0.00     0.067 C 
HETATM   20  N3  UNL     1      23.770   2.857  48.530  1.00  0.00    -0.367 N 
HETATM   21  C18 UNL     1      23.998   5.889  49.838  1.00  0.00     0.084 A 
HETATM   22  H16 UNL     1      24.267   3.043  47.636  1.00  0.00     0.161 HD
ENDROOT
BRANCH   1  23
HETATM   23  O1  UNL     1      20.346   2.939  52.898  1.00  0.00    -0.356 OA
HETATM   24  C1  UNL     1      20.241   1.562  52.940  1.00  0.00     0.210 C 
ENDBRANCH   1  23
BRANCH   3  25
HETATM   25  O2  UNL     1      22.099   6.946  51.308  1.00  0.00    -0.360 OA
HETATM   26  H5  UNL     1      21.238   7.200  51.780  1.00  0.00     0.217 HD
ENDBRANCH   3  25
TORSDOF 2
ENDMDL
MODEL 6
REMARK VINA RESULT:      -6.5      2.530      4.459
REMARK  2 active torsions:
REMARK  status: ('A' for Active; 'I' for Inactive)
REMARK    1  A    between atoms: O1_2  and  C2_3 
REMARK    2  A    between atoms: C4_5  and  O2_6 
ROOT
HETATM    1  C2  UNL     1      24.218   6.968  50.772  1.00  0.00     0.071 A 
HETATM    2  C3  UNL     1      23.731   6.613  51.981  1.00  0.00     0.073 A 
HETATM    3  C4  UNL     1      23.406   5.264  52.088  1.00  0.00     0.075 A 
HETATM    4  C5  UNL     1      23.502   4.197  51.136  1.00  0.00    -0.012 A 
HETATM    5  C6  UNL     1      24.003   4.793  50.037  1.00  0.00    -0.003 A 
HETATM    6  C7  UNL     1      24.373   6.074  49.756  1.00  0.00     0.048 A 
HETATM    7  C8  UNL     1      24.196   3.821  48.855  1.00  0.00     0.242 C 
HETATM    8  N1  UNL     1      22.979   3.356  48.550  1.00  0.00    -0.251 N 
HETATM    9  C9  UNL     1      21.912   3.051  48.104  1.00  0.00     0.228 A 
HETATM   10  N2  UNL     1      22.465   2.655  49.303  1.00  0.00    -0.258 N 
HETATM   11  C10 UNL     1      22.069   1.759  50.138  1.00  0.00     0.113 C 
HETATM   12  C11 UNL     1      22.963   1.678  51.263  1.00  0.00     0.065 A 
HETATM   13  C12 UNL     1      23.667   1.474  52.325  1.00  0.00     0.038 A 
HETATM   14 BR1  UNL     1      22.484   0.093  52.828  1.00  0.00    -0.138 Br
HETATM   15  C13 UNL     1      25.021   1.775  52.845  1.00  0.00     0.001 C 
HETATM   16  C14 UNL     1      26.227   2.319  52.557  1.00  0.00     0.048 C 
HETATM   17  C15 UNL     1      26.655   2.918  51.249  1.00  0.00     0.003 C 
HETATM   18  C16 UNL     1      26.411   3.247  49.939  1.00  0.00    -0.001 C 
HETATM   19  C17 UNL     1      27.265   3.920  48.953  1.00  0.00     0.067 C 
HETATM   20  N3  UNL     1      25.183   2.843  49.313  1.00  0.00    -0.367 N 
HETATM   21  C18 UNL     1      23.016   3.052  51.807  1.00  0.00     0.084 A 
HETATM   22  H16 UNL     1      25.357   1.817  49.354  1.00  0.00     0.161 HD
ENDROOT
BRANCH   1  23
HETATM   23  O1  UNL     1      24.606   8.248  50.434  1.00  0.00    -0.356 OA
HETATM   24  C1  UNL     1      25.869   8.637  50.034  1.00  0.00     0.210 C 
ENDBRANCH   1  23
BRANCH   3  25
HETATM   25  O2  UNL     1      22.917   5.112  53.430  1.00  0.00    -0.360 OA
HETATM   26  H5  UNL     1      23.154   4.202  53.810  1.00  0.00     0.217 HD
ENDBRANCH   3  25
TORSDOF 2
ENDMDL
MODEL 7
REMARK VINA RESULT:      -6.3      2.855      4.903
REMARK  2 active torsions:
REMARK  status: ('A' for Active; 'I' for Inactive)
REMARK    1  A    between atoms: O1_2  and  C2_3 
REMARK    2  A    between atoms: C4_5  and  O2_6 
ROOT
HETATM    1  C2  UNL     1      20.823   7.348  49.919  1.00  0.00     0.071 A 
HETATM    2  C3  UNL     1      21.810   7.168  50.823  1.00  0.00     0.073 A 
HETATM    3  C4  UNL     1      21.903   5.868  51.310  1.00  0.00     0.075 A 
HETATM    4  C5  UNL     1      21.131   4.697  51.013  1.00  0.00    -0.012 A 
HETATM    5  C6  UNL     1      20.232   5.127  50.106  1.00  0.00    -0.003 A 
HETATM    6  C7  UNL     1      19.999   6.338  49.526  1.00  0.00     0.048 A 
HETATM    7  C8  UNL     1      19.273   4.018  49.630  1.00  0.00     0.242 C 
HETATM    8  N1  UNL     1      18.599   3.614  50.714  1.00  0.00    -0.251 N 
HETATM    9  C9  UNL     1      17.834   3.343  51.592  1.00  0.00     0.228 A 
HETATM   10  N2  UNL     1      19.178   3.042  51.526  1.00  0.00    -0.258 N 
HETATM   11  C10 UNL     1      19.890   2.277  52.278  1.00  0.00     0.113 C 
HETATM   12  C11 UNL     1      21.259   2.255  51.833  1.00  0.00     0.065 A 
HETATM   13  C12 UNL     1      22.512   2.118  51.559  1.00  0.00     0.038 A 
HETATM   14 BR1  UNL     1      22.678   0.895  52.986  1.00  0.00    -0.138 Br
HETATM   15  C13 UNL     1      23.447   2.374  50.439  1.00  0.00     0.001 C 
HETATM   16  C14 UNL     1      23.556   2.790  49.155  1.00  0.00     0.048 C 
HETATM   17  C15 UNL     1      22.437   3.206  48.245  1.00  0.00     0.003 C 
HETATM   18  C16 UNL     1      21.103   3.404  47.992  1.00  0.00    -0.001 C 
HETATM   19  C17 UNL     1      20.427   3.897  46.786  1.00  0.00     0.067 C 
HETATM   20  N3  UNL     1      20.122   3.026  48.971  1.00  0.00    -0.367 N 
HETATM   21  C18 UNL     1      21.678   3.674  51.819  1.00  0.00     0.084 A 
HETATM   22  H16 UNL     1      20.301   2.001  48.933  1.00  0.00     0.161 HD
ENDROOT
BRANCH   1  23
HETATM   23  O1  UNL     1      20.542   8.550  49.302  1.00  0.00    -0.356 OA
HETATM   24  C1  UNL     1      19.694   9.531  49.777  1.00  0.00     0.210 C 
ENDBRANCH   1  23
BRANCH   3  25
HETATM   25  O2  UNL     1      22.997   5.903  52.240  1.00  0.00    -0.360 OA
HETATM   26  H5  UNL     1      23.226   6.855  52.506  1.00  0.00     0.217 HD
ENDBRANCH   3  25
TORSDOF 2
ENDMDL
MODEL 8
REMARK VINA RESULT:      -6.3      3.382      5.307
REMARK  2 active torsions:
REMARK  status: ('A' for Active; 'I' for Inactive)
REMARK    1  A    between atoms: O1_2  and  C2_3 
REMARK    2  A    between atoms: C4_5  and  O2_6 
ROOT
HETATM    1  C2  UNL     1      24.315   2.145  52.958  1.00  0.00     0.071 A 
HETATM    2  C3  UNL     1      24.038   3.311  53.580  1.00  0.00     0.073 A 
HETATM    3  C4  UNL     1      24.033   4.417  52.735  1.00  0.00     0.075 A 
HETATM    4  C5  UNL     1      24.269   4.522  51.325  1.00  0.00    -0.012 A 
HETATM    5  C6  UNL     1      24.517   3.252  50.946  1.00  0.00    -0.003 A 
HETATM    6  C7  UNL     1      24.563   2.070  51.621  1.00  0.00     0.048 A 
HETATM    7  C8  UNL     1      24.805   3.115  49.438  1.00  0.00     0.242 C 
HETATM    8  N1  UNL     1      25.909   3.835  49.201  1.00  0.00    -0.251 N 
HETATM    9  C9  UNL     1      26.985   4.296  48.956  1.00  0.00     0.228 A 
HETATM   10  N2  UNL     1      25.834   4.979  49.286  1.00  0.00    -0.258 N 
HETATM   11  C10 UNL     1      25.587   6.242  49.251  1.00  0.00     0.113 C 
HETATM   12  C11 UNL     1      24.240   6.510  49.683  1.00  0.00     0.065 A 
HETATM   13  C12 UNL     1      23.065   6.916  50.031  1.00  0.00     0.038 A 
HETATM   14 BR1  UNL     1      23.570   8.687  49.622  1.00  0.00    -0.138 Br
HETATM   15  C13 UNL     1      21.710   6.362  50.250  1.00  0.00     0.001 C 
HETATM   16  C14 UNL     1      20.936   5.253  50.173  1.00  0.00     0.048 C 
HETATM   17  C15 UNL     1      21.353   3.897  49.683  1.00  0.00     0.003 C 
HETATM   18  C16 UNL     1      22.290   3.043  49.158  1.00  0.00    -0.001 C 
HETATM   19  C17 UNL     1      22.195   1.618  48.821  1.00  0.00     0.067 C 
HETATM   20  N3  UNL     1      23.579   3.543  48.766  1.00  0.00    -0.367 N 
HETATM   21  C18 UNL     1      24.141   5.896  51.025  1.00  0.00     0.084 A 
HETATM   22  H16 UNL     1      23.243   4.155  47.994  1.00  0.00     0.161 HD
ENDROOT
BRANCH   1  23
HETATM   23  O1  UNL     1      24.375   0.920  53.592  1.00  0.00    -0.356 OA
HETATM   24  C1  UNL     1      24.645  -0.294  52.993  1.00  0.00     0.210 C 
ENDBRANCH   1  23
BRANCH   3  25
HETATM   25  O2  UNL     1      23.724   5.529  53.590  1.00  0.00    -0.360 OA
HETATM   26  H5  UNL     1      24.182   5.443  54.490  1.00  0.00     0.217 HD
ENDBRANCH   3  25
TORSDOF 2
ENDMDL
MODEL 9
REMARK VINA RESULT:      -6.2     24.108     26.306
REMARK  2 active torsions:
REMARK  status: ('A' for Active; 'I' for Inactive)
REMARK    1  A    between atoms: O1_2  and  C2_3 
REMARK    2  A    between atoms: C4_5  and  O2_6 
ROOT
HETATM    1  C2  UNL     1      38.228  -2.216  67.551  1.00  0.00     0.071 A 
HETATM    2  C3  UNL     1      38.988  -1.602  66.619  1.00  0.00     0.073 A 
HETATM    3  C4  UNL     1      39.856  -0.645  67.135  1.00  0.00     0.075 A 
HETATM    4  C5  UNL     1      40.077  -0.207  68.481  1.00  0.00    -0.012 A 
HETATM    5  C6  UNL     1      39.220  -0.953  69.205  1.00  0.00    -0.003 A 
HETATM    6  C7  UNL     1      38.315  -1.917  68.877  1.00  0.00     0.048 A 
HETATM    7  C8  UNL     1      39.279  -0.650  70.716  1.00  0.00     0.242 C 
HETATM    8  N1  UNL     1      38.923   0.633  70.855  1.00  0.00    -0.251 N 
HETATM    9  C9  UNL     1      38.435   1.704  71.068  1.00  0.00     0.228 A 
HETATM   10  N2  UNL     1      39.644   1.438  70.462  1.00  0.00    -0.258 N 
HETATM   11  C10 UNL     1      40.598   2.240  70.137  1.00  0.00     0.113 C 
HETATM   12  C11 UNL     1      41.684   1.520  69.525  1.00  0.00     0.065 A 
HETATM   13  C12 UNL     1      42.741   1.025  68.974  1.00  0.00     0.038 A 
HETATM   14 BR1  UNL     1      43.513   2.747  68.942  1.00  0.00    -0.138 Br
HETATM   15  C13 UNL     1      43.393  -0.291  68.784  1.00  0.00     0.001 C 
HETATM   16  C14 UNL     1      43.339  -1.611  69.081  1.00  0.00     0.048 C 
HETATM   17  C15 UNL     1      42.327  -2.298  69.951  1.00  0.00     0.003 C 
HETATM   18  C16 UNL     1      41.226  -2.268  70.769  1.00  0.00    -0.001 C 
HETATM   19  C17 UNL     1      40.527  -3.356  71.463  1.00  0.00     0.067 C 
HETATM   20  N3  UNL     1      40.634  -1.010  71.133  1.00  0.00    -0.367 N 
HETATM   21  C18 UNL     1      41.070   0.794  68.392  1.00  0.00     0.084 A 
HETATM   22  H16 UNL     1      41.443  -0.648  71.679  1.00  0.00     0.161 HD
ENDROOT
BRANCH   1  23
HETATM   23  O1  UNL     1      37.297  -3.196  67.274  1.00  0.00    -0.356 OA
HETATM   24  C1  UNL     1      36.741  -4.072  68.185  1.00  0.00     0.210 C 
ENDBRANCH   1  23
BRANCH   3  25
HETATM   25  O2  UNL     1      40.553  -0.128  65.990  1.00  0.00    -0.360 OA
HETATM   26  H5  UNL     1      39.950  -0.093  65.174  1.00  0.00     0.217 HD
ENDBRANCH   3  25
TORSDOF 2
ENDMDL
