MODEL 1
REMARK VINA RESULT:      -8.4      0.000      0.000
REMARK  2 active torsions:
REMARK  status: ('A' for Active; 'I' for Inactive)
REMARK    1  A    between atoms: C3_3  and  C4_4 
REMARK    2  A    between atoms: C4_4  and  C5_6 
ROOT
HETATM    1  C1  UNL     1      22.530   4.306  48.180  1.00  0.00     0.112 C 
HETATM    2  C2  UNL     1      23.637   3.897  49.046  1.00  0.00    -0.103 C 
HETATM    3  C3  UNL     1      24.535   3.549  49.768  1.00  0.00    -0.029 C 
ENDROOT
BRANCH   3   4
HETATM    4  C4  UNL     1      25.621   3.149  50.614  1.00  0.00     0.210 C 
HETATM    5  O1  UNL     1      26.831   3.275  50.284  1.00  0.00    -0.283 OA
BRANCH   4   6
HETATM    6  C5  UNL     1      25.165   2.557  51.953  1.00  0.00     0.092 C 
HETATM    7  C6  UNL     1      26.369   2.083  52.664  1.00  0.00    -0.001 C 
HETATM    8  C7  UNL     1      27.240   1.283  53.338  1.00  0.00     0.006 C 
HETATM    9  C8  UNL     1      28.547   1.889  53.682  1.00  0.00     0.192 C 
HETATM   10  C10 UNL     1      26.961  -0.131  53.705  1.00  0.00     0.158 C 
HETATM   11  N1  UNL     1      29.479   0.888  54.053  1.00  0.00    -0.278 NA
HETATM   12  C9  UNL     1      29.224  -0.331  54.257  1.00  0.00     0.229 C 
HETATM   13  N2  UNL     1      27.901  -0.900  54.110  1.00  0.00    -0.222 NA
HETATM   14  N3  UNL     1      25.564  -0.147  53.655  1.00  0.00    -0.241 NA
HETATM   15  C11 UNL     1      24.856  -0.789  54.560  1.00  0.00     0.119 C 
HETATM   16  C12 UNL     1      23.406  -0.972  54.781  1.00  0.00     0.016 C 
HETATM   17  C13 UNL     1      22.354  -0.477  54.136  1.00  0.00    -0.009 C 
HETATM   18  C14 UNL     1      22.124   0.430  52.973  1.00  0.00     0.026 C 
HETATM   19 BR1  UNL     1      20.176   0.633  52.714  1.00  0.00    -0.086 Br
HETATM   20  C15 UNL     1      23.389   0.773  52.536  1.00  0.00     0.067 C 
HETATM   21  C16 UNL     1      24.169   1.522  51.572  1.00  0.00     0.024 C 
ENDBRANCH   4   6
ENDBRANCH   3   4
TORSDOF 2
ENDMDL
MODEL 2
REMARK VINA RESULT:      -7.9      3.699      6.288
REMARK  2 active torsions:
REMARK  status: ('A' for Active; 'I' for Inactive)
REMARK    1  A    between atoms: C3_3  and  C4_4 
REMARK    2  A    between atoms: C4_4  and  C5_6 
ROOT
HETATM    1  C1  UNL     1      27.066  -0.242  53.565  1.00  0.00     0.112 C 
HETATM    2  C2  UNL     1      25.687  -0.538  53.956  1.00  0.00    -0.103 C 
HETATM    3  C3  UNL     1      24.559  -0.787  54.296  1.00  0.00    -0.029 C 
ENDROOT
BRANCH   3   4
HETATM    4  C4  UNL     1      23.207  -1.075  54.677  1.00  0.00     0.210 C 
HETATM    5  O1  UNL     1      22.889  -1.472  55.831  1.00  0.00    -0.283 OA
BRANCH   4   6
HETATM    6  C5  UNL     1      22.195  -0.853  53.548  1.00  0.00     0.092 C 
HETATM    7  C6  UNL     1      22.500   0.451  52.926  1.00  0.00    -0.001 C 
HETATM    8  C7  UNL     1      22.358   1.712  52.435  1.00  0.00     0.006 C 
HETATM    9  C8  UNL     1      23.585   2.342  51.896  1.00  0.00     0.192 C 
HETATM   10  C10 UNL     1      21.079   2.472  52.442  1.00  0.00     0.158 C 
HETATM   11  N1  UNL     1      23.405   3.740  51.745  1.00  0.00    -0.278 NA
HETATM   12  C9  UNL     1      22.317   4.368  51.861  1.00  0.00     0.229 C 
HETATM   13  N2  UNL     1      21.064   3.729  52.201  1.00  0.00    -0.222 NA
HETATM   14  N3  UNL     1      20.153   1.430  52.554  1.00  0.00    -0.241 NA
HETATM   15  C11 UNL     1      19.031   1.439  51.867  1.00  0.00     0.119 C 
HETATM   16  C12 UNL     1      17.892   0.502  51.760  1.00  0.00     0.016 C 
HETATM   17  C13 UNL     1      17.688  -0.693  52.307  1.00  0.00    -0.009 C 
HETATM   18  C14 UNL     1      18.435  -1.610  53.217  1.00  0.00     0.026 C 
HETATM   19 BR1  UNL     1      17.347  -3.233  53.501  1.00  0.00    -0.086 Br
HETATM   20  C15 UNL     1      19.613  -0.945  53.502  1.00  0.00     0.067 C 
HETATM   21  C16 UNL     1      20.873  -0.977  54.216  1.00  0.00     0.024 C 
ENDBRANCH   4   6
ENDBRANCH   3   4
TORSDOF 2
ENDMDL
MODEL 3
REMARK VINA RESULT:      -7.7      3.094      5.232
REMARK  2 active torsions:
REMARK  status: ('A' for Active; 'I' for Inactive)
REMARK    1  A    between atoms: C3_3  and  C4_4 
REMARK    2  A    between atoms: C4_4  and  C5_6 
ROOT
HETATM    1  C1  UNL     1      27.892   5.124  48.561  1.00  0.00     0.112 C 
HETATM    2  C2  UNL     1      26.665   4.614  49.176  1.00  0.00    -0.103 C 
HETATM    3  C3  UNL     1      25.647   4.198  49.665  1.00  0.00    -0.029 C 
ENDROOT
BRANCH   3   4
HETATM    4  C4  UNL     1      24.447   3.698  50.269  1.00  0.00     0.210 C 
HETATM    5  O1  UNL     1      23.367   4.348  50.292  1.00  0.00    -0.283 OA
BRANCH   4   6
HETATM    6  C5  UNL     1      24.608   2.301  50.881  1.00  0.00     0.092 C 
HETATM    7  C6  UNL     1      23.272   1.675  50.921  1.00  0.00    -0.001 C 
HETATM    8  C7  UNL     1      22.155   1.042  51.374  1.00  0.00     0.006 C 
HETATM    9  C8  UNL     1      21.076   0.836  50.379  1.00  0.00     0.192 C 
HETATM   10  C10 UNL     1      21.962   0.593  52.778  1.00  0.00     0.158 C 
HETATM   11  N1  UNL     1      19.859   0.503  51.025  1.00  0.00    -0.278 NA
HETATM   12  C9  UNL     1      19.714   0.226  52.247  1.00  0.00     0.229 C 
HETATM   13  N2  UNL     1      20.806   0.237  53.198  1.00  0.00    -0.222 NA
HETATM   14  N3  UNL     1      23.286   0.524  53.219  1.00  0.00    -0.241 NA
HETATM   15  C11 UNL     1      23.701  -0.464  53.982  1.00  0.00     0.119 C 
HETATM   16  C12 UNL     1      25.007  -0.814  54.580  1.00  0.00     0.016 C 
HETATM   17  C13 UNL     1      26.201  -0.240  54.470  1.00  0.00    -0.009 C 
HETATM   18  C14 UNL     1      26.776   0.937  53.755  1.00  0.00     0.026 C 
HETATM   19 BR1  UNL     1      28.705   1.040  54.167  1.00  0.00    -0.086 Br
HETATM   20  C15 UNL     1      25.709   1.495  53.075  1.00  0.00     0.067 C 
HETATM   21  C16 UNL     1      25.263   2.552  52.191  1.00  0.00     0.024 C 
ENDBRANCH   4   6
ENDBRANCH   3   4
TORSDOF 2
ENDMDL
MODEL 4
REMARK VINA RESULT:      -7.6      3.469      6.150
REMARK  2 active torsions:
REMARK  status: ('A' for Active; 'I' for Inactive)
REMARK    1  A    between atoms: C3_3  and  C4_4 
REMARK    2  A    between atoms: C4_4  and  C5_6 
ROOT
HETATM    1  C1  UNL     1      26.746  -2.222  52.134  1.00  0.00     0.112 C 
HETATM    2  C2  UNL     1      26.832  -0.815  52.528  1.00  0.00    -0.103 C 
HETATM    3  C3  UNL     1      26.894   0.347  52.835  1.00  0.00    -0.029 C 
ENDROOT
BRANCH   3   4
HETATM    4  C4  UNL     1      26.979   1.725  53.223  1.00  0.00     0.210 C 
HETATM    5  O1  UNL     1      27.849   2.160  54.025  1.00  0.00    -0.283 OA
BRANCH   4   6
HETATM    6  C5  UNL     1      25.913   2.610  52.568  1.00  0.00     0.092 C 
HETATM    7  C6  UNL     1      24.611   1.932  52.729  1.00  0.00    -0.001 C 
HETATM    8  C7  UNL     1      23.402   1.373  52.448  1.00  0.00     0.006 C 
HETATM    9  C8  UNL     1      22.673   0.787  53.597  1.00  0.00     0.192 C 
HETATM   10  C10 UNL     1      22.814   1.299  51.084  1.00  0.00     0.158 C 
HETATM   11  N1  UNL     1      21.628  -0.057  53.147  1.00  0.00    -0.278 NA
HETATM   12  C9  UNL     1      21.221  -0.172  51.959  1.00  0.00     0.229 C 
HETATM   13  N2  UNL     1      21.805   0.548  50.847  1.00  0.00    -0.222 NA
HETATM   14  N3  UNL     1      23.515   2.321  50.437  1.00  0.00    -0.241 NA
HETATM   15  C11 UNL     1      22.913   3.137  49.599  1.00  0.00     0.119 C 
HETATM   16  C12 UNL     1      23.366   4.291  48.795  1.00  0.00     0.016 C 
HETATM   17  C13 UNL     1      24.547   4.898  48.724  1.00  0.00    -0.009 C 
HETATM   18  C14 UNL     1      25.887   4.738  49.361  1.00  0.00     0.026 C 
HETATM   19 BR1  UNL     1      27.089   6.135  48.649  1.00  0.00    -0.086 Br
HETATM   20  C15 UNL     1      25.749   3.658  50.212  1.00  0.00     0.067 C 
HETATM   21  C16 UNL     1      26.398   2.792  51.175  1.00  0.00     0.024 C 
ENDBRANCH   4   6
ENDBRANCH   3   4
TORSDOF 2
ENDMDL
MODEL 5
REMARK VINA RESULT:      -7.5      3.247      5.091
REMARK  2 active torsions:
REMARK  status: ('A' for Active; 'I' for Inactive)
REMARK    1  A    between atoms: C3_3  and  C4_4 
REMARK    2  A    between atoms: C4_4  and  C5_6 
ROOT
HETATM    1  C1  UNL     1      20.158   6.227  49.395  1.00  0.00     0.112 C 
HETATM    2  C2  UNL     1      20.393   5.118  50.323  1.00  0.00    -0.103 C 
HETATM    3  C3  UNL     1      20.571   4.213  51.097  1.00  0.00    -0.029 C 
ENDROOT
BRANCH   3   4
HETATM    4  C4  UNL     1      20.803   3.127  52.003  1.00  0.00     0.210 C 
HETATM    5  O1  UNL     1      20.089   2.917  53.020  1.00  0.00    -0.283 OA
BRANCH   4   6
HETATM    6  C5  UNL     1      21.998   2.251  51.611  1.00  0.00     0.092 C 
HETATM    7  C6  UNL     1      21.947   1.030  52.440  1.00  0.00    -0.001 C 
HETATM    8  C7  UNL     1      22.309   0.027  53.287  1.00  0.00     0.006 C 
HETATM    9  C8  UNL     1      21.262  -0.975  53.593  1.00  0.00     0.192 C 
HETATM   10  C10 UNL     1      23.650  -0.087  53.920  1.00  0.00     0.158 C 
HETATM   11  N1  UNL     1      21.624  -1.744  54.727  1.00  0.00    -0.278 NA
HETATM   12  C9  UNL     1      22.745  -1.740  55.305  1.00  0.00     0.229 C 
HETATM   13  N2  UNL     1      23.847  -0.898  54.891  1.00  0.00    -0.222 NA
HETATM   14  N3  UNL     1      24.420   0.692  53.052  1.00  0.00    -0.241 NA
HETATM   15  C11 UNL     1      25.630   0.319  52.693  1.00  0.00     0.119 C 
HETATM   16  C12 UNL     1      26.655   0.900  51.802  1.00  0.00     0.016 C 
HETATM   17  C13 UNL     1      26.632   1.985  51.032  1.00  0.00    -0.009 C 
HETATM   18  C14 UNL     1      25.651   3.061  50.706  1.00  0.00     0.026 C 
HETATM   19 BR1  UNL     1      26.487   4.299  49.414  1.00  0.00    -0.086 Br
HETATM   20  C15 UNL     1      24.527   2.755  51.451  1.00  0.00     0.067 C 
HETATM   21  C16 UNL     1      23.176   3.136  51.806  1.00  0.00     0.024 C 
ENDBRANCH   4   6
ENDBRANCH   3   4
TORSDOF 2
ENDMDL
MODEL 6
REMARK VINA RESULT:      -7.5      2.938      4.768
REMARK  2 active torsions:
REMARK  status: ('A' for Active; 'I' for Inactive)
REMARK    1  A    between atoms: C3_3  and  C4_4 
REMARK    2  A    between atoms: C4_4  and  C5_6 
ROOT
HETATM    1  C1  UNL     1      17.779   2.803  51.267  1.00  0.00     0.112 C 
HETATM    2  C2  UNL     1      18.976   2.210  51.867  1.00  0.00    -0.103 C 
HETATM    3  C3  UNL     1      19.966   1.717  52.343  1.00  0.00    -0.029 C 
ENDROOT
BRANCH   3   4
HETATM    4  C4  UNL     1      21.137   1.138  52.934  1.00  0.00     0.210 C 
HETATM    5  O1  UNL     1      21.141   0.615  54.080  1.00  0.00    -0.283 OA
BRANCH   4   6
HETATM    6  C5  UNL     1      22.376   1.219  52.034  1.00  0.00     0.092 C 
HETATM    7  C6  UNL     1      23.512   0.654  52.789  1.00  0.00    -0.001 C 
HETATM    8  C7  UNL     1      24.735   0.516  53.372  1.00  0.00     0.006 C 
HETATM    9  C8  UNL     1      24.960  -0.743  54.119  1.00  0.00     0.192 C 
HETATM   10  C10 UNL     1      25.805   1.547  53.321  1.00  0.00     0.158 C 
HETATM   11  N1  UNL     1      26.097  -0.629  54.958  1.00  0.00    -0.278 NA
HETATM   12  C9  UNL     1      26.932   0.316  54.958  1.00  0.00     0.229 C 
HETATM   13  N2  UNL     1      26.826   1.469  54.089  1.00  0.00    -0.222 NA
HETATM   14  N3  UNL     1      25.411   2.283  52.199  1.00  0.00    -0.241 NA
HETATM   15  C11 UNL     1      26.292   2.717  51.324  1.00  0.00     0.119 C 
HETATM   16  C12 UNL     1      26.189   3.484  50.065  1.00  0.00     0.016 C 
HETATM   17  C13 UNL     1      25.128   3.929  49.396  1.00  0.00    -0.009 C 
HETATM   18  C14 UNL     1      23.645   3.881  49.561  1.00  0.00     0.026 C 
HETATM   19 BR1  UNL     1      22.816   4.821  48.035  1.00  0.00    -0.086 Br
HETATM   20  C15 UNL     1      23.441   3.182  50.736  1.00  0.00     0.067 C 
HETATM   21  C16 UNL     1      22.469   2.657  51.672  1.00  0.00     0.024 C 
ENDBRANCH   4   6
ENDBRANCH   3   4
TORSDOF 2
ENDMDL
MODEL 7
REMARK VINA RESULT:      -7.2      3.030      5.155
REMARK  2 active torsions:
REMARK  status: ('A' for Active; 'I' for Inactive)
REMARK    1  A    between atoms: C3_3  and  C4_4 
REMARK    2  A    between atoms: C4_4  and  C5_6 
ROOT
HETATM    1  C1  UNL     1      22.240   4.559  47.218  1.00  0.00     0.112 C 
HETATM    2  C2  UNL     1      22.554   4.374  48.637  1.00  0.00    -0.103 C 
HETATM    3  C3  UNL     1      22.822   4.238  49.802  1.00  0.00    -0.029 C 
ENDROOT
BRANCH   3   4
HETATM    4  C4  UNL     1      23.127   4.055  51.191  1.00  0.00     0.210 C 
HETATM    5  O1  UNL     1      22.949   4.954  52.057  1.00  0.00    -0.283 OA
BRANCH   4   6
HETATM    6  C5  UNL     1      23.685   2.665  51.515  1.00  0.00     0.092 C 
HETATM    7  C6  UNL     1      22.537   1.756  51.702  1.00  0.00    -0.001 C 
HETATM    8  C7  UNL     1      21.691   0.838  52.245  1.00  0.00     0.006 C 
HETATM    9  C8  UNL     1      20.479   0.522  51.454  1.00  0.00     0.192 C 
HETATM   10  C10 UNL     1      21.905   0.184  53.564  1.00  0.00     0.158 C 
HETATM   11  N1  UNL     1      19.523  -0.153  52.253  1.00  0.00    -0.278 NA
HETATM   12  C9  UNL     1      19.709  -0.606  53.416  1.00  0.00     0.229 C 
HETATM   13  N2  UNL     1      20.961  -0.471  54.129  1.00  0.00    -0.222 NA
HETATM   14  N3  UNL     1      23.282   0.358  53.726  1.00  0.00    -0.241 NA
HETATM   15  C11 UNL     1      24.038  -0.600  54.218  1.00  0.00     0.119 C 
HETATM   16  C12 UNL     1      25.486  -0.722  54.487  1.00  0.00     0.016 C 
HETATM   17  C13 UNL     1      26.493   0.115  54.252  1.00  0.00    -0.009 C 
HETATM   18  C14 UNL     1      26.657   1.471  53.650  1.00  0.00     0.026 C 
HETATM   19 BR1  UNL     1      28.573   1.949  53.699  1.00  0.00    -0.086 Br
HETATM   20  C15 UNL     1      25.379   1.856  53.290  1.00  0.00     0.067 C 
HETATM   21  C16 UNL     1      24.554   2.889  52.700  1.00  0.00     0.024 C 
ENDBRANCH   4   6
ENDBRANCH   3   4
TORSDOF 2
ENDMDL
MODEL 8
REMARK VINA RESULT:      -7.1      3.616      5.865
REMARK  2 active torsions:
REMARK  status: ('A' for Active; 'I' for Inactive)
REMARK    1  A    between atoms: C3_3  and  C4_4 
REMARK    2  A    between atoms: C4_4  and  C5_6 
ROOT
HETATM    1  C1  UNL     1      29.290   5.517  48.206  1.00  0.00     0.112 C 
HETATM    2  C2  UNL     1      27.887   5.256  48.535  1.00  0.00    -0.103 C 
HETATM    3  C3  UNL     1      26.729   5.043  48.787  1.00  0.00    -0.029 C 
ENDROOT
BRANCH   3   4
HETATM    4  C4  UNL     1      25.357   4.785  49.112  1.00  0.00     0.210 C 
HETATM    5  O1  UNL     1      24.446   5.646  48.976  1.00  0.00    -0.283 OA
BRANCH   4   6
HETATM    6  C5  UNL     1      25.110   3.366  49.637  1.00  0.00     0.092 C 
HETATM    7  C6  UNL     1      23.718   3.003  49.303  1.00  0.00    -0.001 C 
HETATM    8  C7  UNL     1      22.430   2.581  49.422  1.00  0.00     0.006 C 
HETATM    9  C8  UNL     1      21.618   2.612  48.183  1.00  0.00     0.192 C 
HETATM   10  C10 UNL     1      21.812   2.135  50.700  1.00  0.00     0.158 C 
HETATM   11  N1  UNL     1      20.239   2.496  48.487  1.00  0.00    -0.278 NA
HETATM   12  C9  UNL     1      19.743   2.216  49.613  1.00  0.00     0.229 C 
HETATM   13  N2  UNL     1      20.544   1.992  50.798  1.00  0.00    -0.222 NA
HETATM   14  N3  UNL     1      22.949   1.804  51.442  1.00  0.00    -0.241 NA
HETATM   15  C11 UNL     1      22.977   0.733  52.207  1.00  0.00     0.119 C 
HETATM   16  C12 UNL     1      24.007   0.124  53.075  1.00  0.00     0.016 C 
HETATM   17  C13 UNL     1      25.272   0.466  53.302  1.00  0.00    -0.009 C 
HETATM   18  C14 UNL     1      26.206   1.533  52.839  1.00  0.00     0.026 C 
HETATM   19 BR1  UNL     1      27.955   1.256  53.714  1.00  0.00    -0.086 Br
HETATM   20  C15 UNL     1      25.461   2.302  51.965  1.00  0.00     0.067 C 
HETATM   21  C16 UNL     1      25.446   3.450  51.082  1.00  0.00     0.024 C 
ENDBRANCH   4   6
ENDBRANCH   3   4
TORSDOF 2
ENDMDL
MODEL 9
REMARK VINA RESULT:      -7.0      3.368      4.629
REMARK  2 active torsions:
REMARK  status: ('A' for Active; 'I' for Inactive)
REMARK    1  A    between atoms: C3_3  and  C4_4 
REMARK    2  A    between atoms: C4_4  and  C5_6 
ROOT
HETATM    1  C1  UNL     1      21.157   8.064  50.030  1.00  0.00     0.112 C 
HETATM    2  C2  UNL     1      21.224   6.621  50.270  1.00  0.00    -0.103 C 
HETATM    3  C3  UNL     1      21.287   5.438  50.486  1.00  0.00    -0.029 C 
ENDROOT
BRANCH   3   4
HETATM    4  C4  UNL     1      21.351   4.025  50.719  1.00  0.00     0.210 C 
HETATM    5  O1  UNL     1      20.480   3.219  50.293  1.00  0.00    -0.283 OA
BRANCH   4   6
HETATM    6  C5  UNL     1      22.577   3.596  51.532  1.00  0.00     0.092 C 
HETATM    7  C6  UNL     1      23.760   4.243  50.930  1.00  0.00    -0.001 C 
HETATM    8  C7  UNL     1      24.990   4.427  50.377  1.00  0.00     0.006 C 
HETATM    9  C8  UNL     1      25.328   5.817  49.991  1.00  0.00     0.192 C 
HETATM   10  C10 UNL     1      25.963   3.332  50.121  1.00  0.00     0.158 C 
HETATM   11  N1  UNL     1      26.450   5.836  49.126  1.00  0.00    -0.278 NA
HETATM   12  C9  UNL     1      27.196   4.858  48.850  1.00  0.00     0.229 C 
HETATM   13  N2  UNL     1      26.986   3.526  49.378  1.00  0.00    -0.222 NA
HETATM   14  N3  UNL     1      25.504   2.357  51.012  1.00  0.00    -0.241 NA
HETATM   15  C11 UNL     1      26.342   1.627  51.715  1.00  0.00     0.119 C 
HETATM   16  C12 UNL     1      26.170   0.559  52.723  1.00  0.00     0.016 C 
HETATM   17  C13 UNL     1      25.073   0.044  53.273  1.00  0.00    -0.009 C 
HETATM   18  C14 UNL     1      23.601   0.264  53.164  1.00  0.00     0.026 C 
HETATM   19 BR1  UNL     1      22.690  -0.980  54.399  1.00  0.00    -0.086 Br
HETATM   20  C15 UNL     1      23.461   1.270  52.226  1.00  0.00     0.067 C 
HETATM   21  C16 UNL     1      22.540   2.111  51.491  1.00  0.00     0.024 C 
ENDBRANCH   4   6
ENDBRANCH   3   4
TORSDOF 2
ENDMDL
