MODEL 1
REMARK VINA RESULT:      -6.8      0.000      0.000
REMARK  7 active torsions:
REMARK  status: ('A' for Active; 'I' for Inactive)
REMARK    1  A    between atoms: C6_8  and  O1_9 
REMARK    2  A    between atoms: O1_9  and  C7_10 
REMARK    3  A    between atoms: C7_10  and  C8_11 
REMARK    4  A    between atoms: C9_14  and  C10_15 
REMARK    5  A    between atoms: C10_15  and  S1_16 
REMARK    6  A    between atoms: S1_16  and  C11_17 
REMARK    7  A    between atoms: C11_17  and  N2_18 
ROOT
HETATM    1  C8  UNL     1      24.589   1.987  52.983  1.00  0.00     0.180 A 
HETATM    2  N1  UNL     1      23.960   3.172  52.925  1.00  0.00    -0.109 NA
HETATM    3  O2  UNL     1      22.935   3.123  52.126  1.00  0.00    -0.195 OA
HETATM    4  C9  UNL     1      22.879   1.902  51.646  1.00  0.00     0.182 A 
HETATM    5  N4  UNL     1      23.890   1.178  52.159  1.00  0.00    -0.206 NA
ENDROOT
BRANCH   1   6
HETATM    6  C7  UNL     1      25.777   1.468  53.706  1.00  0.00     0.258 C 
BRANCH   6   7
HETATM    7  O1  UNL     1      26.675   0.912  52.775  1.00  0.00    -0.340 OA
BRANCH   7   8
HETATM    8  C6  UNL     1      27.875   0.324  53.113  1.00  0.00     0.112 A 
HETATM    9  C1  UNL     1      29.055   0.894  53.556  1.00  0.00     0.069 A 
HETATM   10 CL1  UNL     1      28.998   2.621  53.701  1.00  0.00    -0.081 Cl
HETATM   11  C2  UNL     1      30.145   0.098  53.839  1.00  0.00     0.027 A 
HETATM   12  C3  UNL     1      30.110  -1.280  53.696  1.00  0.00     0.003 A 
HETATM   13  C4  UNL     1      28.949  -1.842  53.260  1.00  0.00     0.027 A 
HETATM   14  C5  UNL     1      27.827  -1.067  52.965  1.00  0.00     0.069 A 
HETATM   15 CL2  UNL     1      26.432  -1.962  52.419  1.00  0.00    -0.081 Cl
ENDBRANCH   7   8
ENDBRANCH   6   7
ENDBRANCH   1   6
BRANCH   4  16
HETATM   16  C10 UNL     1      21.878   1.356  50.688  1.00  0.00     0.164 C 
BRANCH  16  17
HETATM   17  S1  UNL     1      20.503   0.521  51.470  1.00  0.00    -0.141 SA
BRANCH  17  18
HETATM   18  C11 UNL     1      20.352   0.812  53.230  1.00  0.00     0.199 C 
BRANCH  18  19
HETATM   19  N2  UNL     1      20.976  -0.238  53.978  1.00  0.00    -0.349 N 
HETATM   20  C12 UNL     1      20.666  -1.619  54.144  1.00  0.00     0.202 A 
HETATM   21  N3  UNL     1      21.652  -1.828  54.916  1.00  0.00    -0.265 NA
HETATM   22  C13 UNL     1      22.097  -0.464  54.851  1.00  0.00     0.276 A 
ENDBRANCH  18  19
ENDBRANCH  17  18
ENDBRANCH  16  17
ENDBRANCH   4  16
TORSDOF 7
ENDMDL
MODEL 2
REMARK VINA RESULT:      -6.7      3.149      5.063
REMARK  7 active torsions:
REMARK  status: ('A' for Active; 'I' for Inactive)
REMARK    1  A    between atoms: C6_8  and  O1_9 
REMARK    2  A    between atoms: O1_9  and  C7_10 
REMARK    3  A    between atoms: C7_10  and  C8_11 
REMARK    4  A    between atoms: C9_14  and  C10_15 
REMARK    5  A    between atoms: C10_15  and  S1_16 
REMARK    6  A    between atoms: S1_16  and  C11_17 
REMARK    7  A    between atoms: C11_17  and  N2_18 
ROOT
HETATM    1  C8  UNL     1      24.319   1.530  52.689  1.00  0.00     0.180 A 
HETATM    2  N1  UNL     1      23.263   1.415  51.867  1.00  0.00    -0.109 NA
HETATM    3  O2  UNL     1      22.775   2.581  51.560  1.00  0.00    -0.195 OA
HETATM    4  C9  UNL     1      23.506   3.480  52.178  1.00  0.00     0.182 A 
HETATM    5  N4  UNL     1      24.468   2.859  52.884  1.00  0.00    -0.206 NA
ENDROOT
BRANCH   1   6
HETATM    6  C7  UNL     1      25.244   0.572  53.345  1.00  0.00     0.258 C 
BRANCH   6   7
HETATM    7  O1  UNL     1      26.350   0.352  52.502  1.00  0.00    -0.340 OA
BRANCH   7   8
HETATM    8  C6  UNL     1      27.615   0.038  52.951  1.00  0.00     0.112 A 
HETATM    9  C1  UNL     1      28.605   0.852  53.472  1.00  0.00     0.069 A 
HETATM   10 CL1  UNL     1      28.169   2.528  53.565  1.00  0.00    -0.081 Cl
HETATM   11  C2  UNL     1      29.812   0.311  53.863  1.00  0.00     0.027 A 
HETATM   12  C3  UNL     1      30.084  -1.044  53.754  1.00  0.00     0.003 A 
HETATM   13  C4  UNL     1      29.109  -1.845  53.241  1.00  0.00     0.027 A 
HETATM   14  C5  UNL     1      27.877  -1.332  52.836  1.00  0.00     0.069 A 
HETATM   15 CL2  UNL     1      26.756  -2.510  52.205  1.00  0.00    -0.081 Cl
ENDBRANCH   7   8
ENDBRANCH   6   7
ENDBRANCH   1   6
BRANCH   4  16
HETATM   16  C10 UNL     1      23.340   4.959  52.137  1.00  0.00     0.164 C 
BRANCH  16  17
HETATM   17  S1  UNL     1      24.179   5.747  50.768  1.00  0.00    -0.141 SA
BRANCH  17  18
HETATM   18  C11 UNL     1      24.961   4.619  49.619  1.00  0.00     0.199 C 
BRANCH  18  19
HETATM   19  N2  UNL     1      26.166   5.184  49.087  1.00  0.00    -0.349 N 
HETATM   20  C12 UNL     1      27.444   4.626  48.795  1.00  0.00     0.202 A 
HETATM   21  N3  UNL     1      27.916   5.729  48.378  1.00  0.00    -0.265 NA
HETATM   22  C13 UNL     1      26.691   6.438  48.616  1.00  0.00     0.276 A 
ENDBRANCH  18  19
ENDBRANCH  17  18
ENDBRANCH  16  17
ENDBRANCH   4  16
TORSDOF 7
ENDMDL
MODEL 3
REMARK VINA RESULT:      -6.5      0.833      2.074
REMARK  7 active torsions:
REMARK  status: ('A' for Active; 'I' for Inactive)
REMARK    1  A    between atoms: C6_8  and  O1_9 
REMARK    2  A    between atoms: O1_9  and  C7_10 
REMARK    3  A    between atoms: C7_10  and  C8_11 
REMARK    4  A    between atoms: C9_14  and  C10_15 
REMARK    5  A    between atoms: C10_15  and  S1_16 
REMARK    6  A    between atoms: S1_16  and  C11_17 
REMARK    7  A    between atoms: C11_17  and  N2_18 
ROOT
HETATM    1  C8  UNL     1      24.344   1.493  52.260  1.00  0.00     0.180 A 
HETATM    2  N1  UNL     1      24.455   2.613  51.527  1.00  0.00    -0.109 NA
HETATM    3  O2  UNL     1      23.303   2.979  51.047  1.00  0.00    -0.195 OA
HETATM    4  C9  UNL     1      22.417   2.101  51.459  1.00  0.00     0.182 A 
HETATM    5  N4  UNL     1      23.033   1.171  52.210  1.00  0.00    -0.206 NA
ENDROOT
BRANCH   1   6
HETATM    6  C7  UNL     1      25.291   0.644  53.025  1.00  0.00     0.258 C 
BRANCH   6   7
HETATM    7  O1  UNL     1      26.527   0.611  52.350  1.00  0.00    -0.340 OA
BRANCH   7   8
HETATM    8  C6  UNL     1      27.638  -0.067  52.803  1.00  0.00     0.112 A 
HETATM    9  C1  UNL     1      27.926  -1.420  52.788  1.00  0.00     0.069 A 
HETATM   10 CL1  UNL     1      26.681  -2.403  52.087  1.00  0.00    -0.081 Cl
HETATM   11  C2  UNL     1      29.119  -1.880  53.304  1.00  0.00     0.027 A 
HETATM   12  C3  UNL     1      30.065  -1.027  53.850  1.00  0.00     0.003 A 
HETATM   13  C4  UNL     1      29.782   0.306  53.865  1.00  0.00     0.027 A 
HETATM   14  C5  UNL     1      28.586   0.805  53.351  1.00  0.00     0.069 A 
HETATM   15 CL2  UNL     1      28.400   2.537  53.458  1.00  0.00    -0.081 Cl
ENDBRANCH   7   8
ENDBRANCH   6   7
ENDBRANCH   1   6
BRANCH   4  16
HETATM   16  C10 UNL     1      20.956   2.092  51.170  1.00  0.00     0.164 C 
BRANCH  16  17
HETATM   17  S1  UNL     1      20.215   0.464  51.217  1.00  0.00    -0.141 SA
BRANCH  17  18
HETATM   18  C11 UNL     1      19.369   0.070  52.745  1.00  0.00     0.199 C 
BRANCH  18  19
HETATM   19  N2  UNL     1      20.296  -0.378  53.742  1.00  0.00    -0.349 N 
HETATM   20  C12 UNL     1      20.934  -1.632  53.970  1.00  0.00     0.202 A 
HETATM   21  N3  UNL     1      21.561  -1.215  54.993  1.00  0.00    -0.265 NA
HETATM   22  C13 UNL     1      21.002   0.104  54.899  1.00  0.00     0.276 A 
ENDBRANCH  18  19
ENDBRANCH  17  18
ENDBRANCH  16  17
ENDBRANCH   4  16
TORSDOF 7
ENDMDL
MODEL 4
REMARK VINA RESULT:      -6.4      4.303      6.516
REMARK  7 active torsions:
REMARK  status: ('A' for Active; 'I' for Inactive)
REMARK    1  A    between atoms: C6_8  and  O1_9 
REMARK    2  A    between atoms: O1_9  and  C7_10 
REMARK    3  A    between atoms: C7_10  and  C8_11 
REMARK    4  A    between atoms: C9_14  and  C10_15 
REMARK    5  A    between atoms: C10_15  and  S1_16 
REMARK    6  A    between atoms: S1_16  and  C11_17 
REMARK    7  A    between atoms: C11_17  and  N2_18 
ROOT
HETATM    1  C8  UNL     1      23.849   2.827  51.945  1.00  0.00     0.180 A 
HETATM    2  N1  UNL     1      23.064   2.043  51.187  1.00  0.00    -0.109 NA
HETATM    3  O2  UNL     1      23.007   0.834  51.664  1.00  0.00    -0.195 OA
HETATM    4  C9  UNL     1      23.755   0.809  52.743  1.00  0.00     0.182 A 
HETATM    5  N4  UNL     1      24.288   2.027  52.940  1.00  0.00    -0.206 NA
ENDROOT
BRANCH   1   6
HETATM    6  C7  UNL     1      24.270   4.250  51.891  1.00  0.00     0.258 C 
BRANCH   6   7
HETATM    7  O1  UNL     1      24.249   4.685  50.551  1.00  0.00    -0.340 OA
BRANCH   7   8
HETATM    8  C6  UNL     1      25.347   5.178  49.881  1.00  0.00     0.112 A 
HETATM    9  C1  UNL     1      26.422   4.513  49.317  1.00  0.00     0.069 A 
HETATM   10 CL1  UNL     1      26.361   2.789  49.494  1.00  0.00    -0.081 Cl
HETATM   11  C2  UNL     1      27.421   5.223  48.685  1.00  0.00     0.027 A 
HETATM   12  C3  UNL     1      27.396   6.605  48.587  1.00  0.00     0.003 A 
HETATM   13  C4  UNL     1      26.339   7.259  49.141  1.00  0.00     0.027 A 
HETATM   14  C5  UNL     1      25.311   6.574  49.787  1.00  0.00     0.069 A 
HETATM   15 CL2  UNL     1      24.042   7.581  50.435  1.00  0.00    -0.081 Cl
ENDBRANCH   7   8
ENDBRANCH   6   7
ENDBRANCH   1   6
BRANCH   4  16
HETATM   16  C10 UNL     1      24.004  -0.355  53.639  1.00  0.00     0.164 C 
BRANCH  16  17
HETATM   17  S1  UNL     1      25.633  -0.366  54.380  1.00  0.00    -0.141 SA
BRANCH  17  18
HETATM   18  C11 UNL     1      26.984  -0.161  53.223  1.00  0.00     0.199 C 
BRANCH  18  19
HETATM   19  N2  UNL     1      27.878   0.870  53.658  1.00  0.00    -0.349 N 
HETATM   20  C12 UNL     1      27.880   2.283  53.479  1.00  0.00     0.202 A 
HETATM   21  N3  UNL     1      28.953   2.444  54.138  1.00  0.00    -0.265 NA
HETATM   22  C13 UNL     1      29.094   1.041  54.408  1.00  0.00     0.276 A 
ENDBRANCH  18  19
ENDBRANCH  17  18
ENDBRANCH  16  17
ENDBRANCH   4  16
TORSDOF 7
ENDMDL
MODEL 5
REMARK VINA RESULT:      -6.4      4.409      6.514
REMARK  7 active torsions:
REMARK  status: ('A' for Active; 'I' for Inactive)
REMARK    1  A    between atoms: C6_8  and  O1_9 
REMARK    2  A    between atoms: O1_9  and  C7_10 
REMARK    3  A    between atoms: C7_10  and  C8_11 
REMARK    4  A    between atoms: C9_14  and  C10_15 
REMARK    5  A    between atoms: C10_15  and  S1_16 
REMARK    6  A    between atoms: S1_16  and  C11_17 
REMARK    7  A    between atoms: C11_17  and  N2_18 
ROOT
HETATM    1  C8  UNL     1      23.961   3.108  51.967  1.00  0.00     0.180 A 
HETATM    2  N1  UNL     1      23.272   2.093  51.420  1.00  0.00    -0.109 NA
HETATM    3  O2  UNL     1      23.498   0.977  52.049  1.00  0.00    -0.195 OA
HETATM    4  C9  UNL     1      24.342   1.245  53.020  1.00  0.00     0.182 A 
HETATM    5  N4  UNL     1      24.645   2.555  52.992  1.00  0.00    -0.206 NA
ENDROOT
BRANCH   1   6
HETATM    6  C7  UNL     1      24.091   4.559  51.680  1.00  0.00     0.258 C 
BRANCH   6   7
HETATM    7  O1  UNL     1      24.250   4.741  50.293  1.00  0.00    -0.340 OA
BRANCH   7   8
HETATM    8  C6  UNL     1      25.262   5.480  49.721  1.00  0.00     0.112 A 
HETATM    9  C1  UNL     1      25.367   6.845  49.518  1.00  0.00     0.069 A 
HETATM   10 CL1  UNL     1      23.999   7.751  50.078  1.00  0.00    -0.081 Cl
HETATM   11  C2  UNL     1      26.491   7.371  48.917  1.00  0.00     0.027 A 
HETATM   12  C3  UNL     1      27.544   6.576  48.496  1.00  0.00     0.003 A 
HETATM   13  C4  UNL     1      27.442   5.232  48.695  1.00  0.00     0.027 A 
HETATM   14  C5  UNL     1      26.320   4.666  49.300  1.00  0.00     0.069 A 
HETATM   15 CL2  UNL     1      26.368   2.930  49.469  1.00  0.00    -0.081 Cl
ENDBRANCH   7   8
ENDBRANCH   6   7
ENDBRANCH   1   6
BRANCH   4  16
HETATM   16  C10 UNL     1      24.901   0.291  54.017  1.00  0.00     0.164 C 
BRANCH  16  17
HETATM   17  S1  UNL     1      26.100  -0.850  53.338  1.00  0.00    -0.141 SA
BRANCH  17  18
HETATM   18  C11 UNL     1      27.472  -0.077  52.485  1.00  0.00     0.199 C 
BRANCH  18  19
HETATM   19  N2  UNL     1      28.143   0.857  53.339  1.00  0.00    -0.349 N 
HETATM   20  C12 UNL     1      28.991   0.690  54.472  1.00  0.00     0.202 A 
HETATM   21  N3  UNL     1      29.152   1.939  54.634  1.00  0.00    -0.265 NA
HETATM   22  C13 UNL     1      28.319   2.274  53.513  1.00  0.00     0.276 A 
ENDBRANCH  18  19
ENDBRANCH  17  18
ENDBRANCH  16  17
ENDBRANCH   4  16
TORSDOF 7
ENDMDL
MODEL 6
REMARK VINA RESULT:      -6.3      6.389      7.326
REMARK  7 active torsions:
REMARK  status: ('A' for Active; 'I' for Inactive)
REMARK    1  A    between atoms: C6_8  and  O1_9 
REMARK    2  A    between atoms: O1_9  and  C7_10 
REMARK    3  A    between atoms: C7_10  and  C8_11 
REMARK    4  A    between atoms: C9_14  and  C10_15 
REMARK    5  A    between atoms: C10_15  and  S1_16 
REMARK    6  A    between atoms: S1_16  and  C11_17 
REMARK    7  A    between atoms: C11_17  and  N2_18 
ROOT
HETATM    1  C8  UNL     1      28.177   5.618  48.424  1.00  0.00     0.180 A 
HETATM    2  N1  UNL     1      27.069   6.316  48.723  1.00  0.00    -0.109 NA
HETATM    3  O2  UNL     1      26.160   5.553  49.253  1.00  0.00    -0.195 OA
HETATM    4  C9  UNL     1      26.659   4.339  49.308  1.00  0.00     0.182 A 
HETATM    5  N4  UNL     1      27.905   4.350  48.802  1.00  0.00    -0.206 NA
ENDROOT
BRANCH   1   6
HETATM    6  C7  UNL     1      29.493   5.950  47.823  1.00  0.00     0.258 C 
BRANCH   6   7
HETATM    7  O1  UNL     1      30.489   5.163  48.434  1.00  0.00    -0.340 OA
BRANCH   7   8
HETATM    8  C6  UNL     1      31.842   5.382  48.293  1.00  0.00     0.112 A 
HETATM    9  C1  UNL     1      32.646   6.375  48.825  1.00  0.00     0.069 A 
HETATM   10 CL1  UNL     1      31.800   7.514  49.821  1.00  0.00    -0.081 Cl
HETATM   11  C2  UNL     1      33.996   6.396  48.545  1.00  0.00     0.027 A 
HETATM   12  C3  UNL     1      34.598   5.446  47.736  1.00  0.00     0.003 A 
HETATM   13  C4  UNL     1      33.807   4.469  47.211  1.00  0.00     0.027 A 
HETATM   14  C5  UNL     1      32.438   4.417  47.474  1.00  0.00     0.069 A 
HETATM   15 CL2  UNL     1      31.589   3.094  46.716  1.00  0.00    -0.081 Cl
ENDBRANCH   7   8
ENDBRANCH   6   7
ENDBRANCH   1   6
BRANCH   4  16
HETATM   16  C10 UNL     1      25.995   3.115  49.837  1.00  0.00     0.164 C 
BRANCH  16  17
HETATM   17  S1  UNL     1      26.667   2.537  51.391  1.00  0.00    -0.141 SA
BRANCH  17  18
HETATM   18  C11 UNL     1      26.513   0.774  51.665  1.00  0.00     0.199 C 
BRANCH  18  19
HETATM   19  N2  UNL     1      27.022   0.410  52.953  1.00  0.00    -0.349 N 
HETATM   20  C12 UNL     1      28.012  -0.527  53.368  1.00  0.00     0.202 A 
HETATM   21  N3  UNL     1      27.870  -0.250  54.600  1.00  0.00    -0.265 NA
HETATM   22  C13 UNL     1      26.854   0.732  54.345  1.00  0.00     0.276 A 
ENDBRANCH  18  19
ENDBRANCH  17  18
ENDBRANCH  16  17
ENDBRANCH   4  16
TORSDOF 7
ENDMDL
MODEL 7
REMARK VINA RESULT:      -6.3      3.185      5.513
REMARK  7 active torsions:
REMARK  status: ('A' for Active; 'I' for Inactive)
REMARK    1  A    between atoms: C6_8  and  O1_9 
REMARK    2  A    between atoms: O1_9  and  C7_10 
REMARK    3  A    between atoms: C7_10  and  C8_11 
REMARK    4  A    between atoms: C9_14  and  C10_15 
REMARK    5  A    between atoms: C10_15  and  S1_16 
REMARK    6  A    between atoms: S1_16  and  C11_17 
REMARK    7  A    between atoms: C11_17  and  N2_18 
ROOT
HETATM    1  C8  UNL     1      24.043   1.219  53.008  1.00  0.00     0.180 A 
HETATM    2  N1  UNL     1      22.700   1.249  52.989  1.00  0.00    -0.109 NA
HETATM    3  O2  UNL     1      22.262   2.375  52.507  1.00  0.00    -0.195 OA
HETATM    4  C9  UNL     1      23.314   3.101  52.203  1.00  0.00     0.182 A 
HETATM    5  N4  UNL     1      24.428   2.410  52.503  1.00  0.00    -0.206 NA
ENDROOT
BRANCH   1   6
HETATM    6  C7  UNL     1      25.060   0.225  53.435  1.00  0.00     0.258 C 
BRANCH   6   7
HETATM    7  O1  UNL     1      26.210   0.373  52.635  1.00  0.00    -0.340 OA
BRANCH   7   8
HETATM    8  C6  UNL     1      27.442  -0.162  52.945  1.00  0.00     0.112 A 
HETATM    9  C1  UNL     1      27.904  -1.461  52.838  1.00  0.00     0.069 A 
HETATM   10 CL1  UNL     1      26.735  -2.581  52.217  1.00  0.00    -0.081 Cl
HETATM   11  C2  UNL     1      29.195  -1.770  53.213  1.00  0.00     0.027 A 
HETATM   12  C3  UNL     1      30.070  -0.814  53.703  1.00  0.00     0.003 A 
HETATM   13  C4  UNL     1      29.616   0.465  53.808  1.00  0.00     0.027 A 
HETATM   14  C5  UNL     1      28.317   0.813  53.438  1.00  0.00     0.069 A 
HETATM   15 CL2  UNL     1      27.915   2.499  53.643  1.00  0.00    -0.081 Cl
ENDBRANCH   7   8
ENDBRANCH   6   7
ENDBRANCH   1   6
BRANCH   4  16
HETATM   16  C10 UNL     1      23.325   4.471  51.619  1.00  0.00     0.164 C 
BRANCH  16  17
HETATM   17  S1  UNL     1      23.938   4.539  49.940  1.00  0.00    -0.141 SA
BRANCH  17  18
HETATM   18  C11 UNL     1      25.721   4.613  49.794  1.00  0.00     0.199 C 
BRANCH  18  19
HETATM   19  N2  UNL     1      26.156   5.947  49.504  1.00  0.00    -0.349 N 
HETATM   20  C12 UNL     1      27.042   6.479  48.523  1.00  0.00     0.202 A 
HETATM   21  N3  UNL     1      26.889   7.676  48.921  1.00  0.00    -0.265 NA
HETATM   22  C13 UNL     1      25.974   7.298  49.962  1.00  0.00     0.276 A 
ENDBRANCH  18  19
ENDBRANCH  17  18
ENDBRANCH  16  17
ENDBRANCH   4  16
TORSDOF 7
ENDMDL
MODEL 8
REMARK VINA RESULT:      -6.2      2.496      4.354
REMARK  7 active torsions:
REMARK  status: ('A' for Active; 'I' for Inactive)
REMARK    1  A    between atoms: C6_8  and  O1_9 
REMARK    2  A    between atoms: O1_9  and  C7_10 
REMARK    3  A    between atoms: C7_10  and  C8_11 
REMARK    4  A    between atoms: C9_14  and  C10_15 
REMARK    5  A    between atoms: C10_15  and  S1_16 
REMARK    6  A    between atoms: S1_16  and  C11_17 
REMARK    7  A    between atoms: C11_17  and  N2_18 
ROOT
HETATM    1  C8  UNL     1      24.135   0.963  52.766  1.00  0.00     0.180 A 
HETATM    2  N1  UNL     1      22.894   0.492  52.972  1.00  0.00    -0.109 NA
HETATM    3  O2  UNL     1      22.106   0.796  51.983  1.00  0.00    -0.195 OA
HETATM    4  C9  UNL     1      22.820   1.473  51.114  1.00  0.00     0.182 A 
HETATM    5  N4  UNL     1      24.079   1.592  51.573  1.00  0.00    -0.206 NA
ENDROOT
BRANCH   1   6
HETATM    6  C7  UNL     1      25.409   0.921  53.527  1.00  0.00     0.258 C 
BRANCH   6   7
HETATM    7  O1  UNL     1      26.467   0.652  52.637  1.00  0.00    -0.340 OA
BRANCH   7   8
HETATM    8  C6  UNL     1      27.710   0.200  53.027  1.00  0.00     0.112 A 
HETATM    9  C1  UNL     1      28.803   0.899  53.509  1.00  0.00     0.069 A 
HETATM   10 CL1  UNL     1      28.551   2.610  53.634  1.00  0.00    -0.081 Cl
HETATM   11  C2  UNL     1      29.961   0.229  53.841  1.00  0.00     0.027 A 
HETATM   12  C3  UNL     1      30.083  -1.145  53.710  1.00  0.00     0.003 A 
HETATM   13  C4  UNL     1      29.007  -1.833  53.236  1.00  0.00     0.027 A 
HETATM   14  C5  UNL     1      27.820  -1.188  52.891  1.00  0.00     0.069 A 
HETATM   15 CL2  UNL     1      26.554  -2.234  52.301  1.00  0.00    -0.081 Cl
ENDBRANCH   7   8
ENDBRANCH   6   7
ENDBRANCH   1   6
BRANCH   4  16
HETATM   16  C10 UNL     1      22.359   2.039  49.816  1.00  0.00     0.164 C 
BRANCH  16  17
HETATM   17  S1  UNL     1      22.300   3.827  49.782  1.00  0.00    -0.141 SA
BRANCH  17  18
HETATM   18  C11 UNL     1      23.860   4.622  49.406  1.00  0.00     0.199 C 
BRANCH  18  19
HETATM   19  N2  UNL     1      23.963   5.886  50.072  1.00  0.00    -0.349 N 
HETATM   20  C12 UNL     1      22.995   6.737  50.680  1.00  0.00     0.202 A 
HETATM   21  N3  UNL     1      23.857   7.607  51.016  1.00  0.00    -0.265 NA
HETATM   22  C13 UNL     1      24.947   6.865  50.449  1.00  0.00     0.276 A 
ENDBRANCH  18  19
ENDBRANCH  17  18
ENDBRANCH  16  17
ENDBRANCH   4  16
TORSDOF 7
ENDMDL
MODEL 9
REMARK VINA RESULT:      -6.2      2.189      3.368
REMARK  7 active torsions:
REMARK  status: ('A' for Active; 'I' for Inactive)
REMARK    1  A    between atoms: C6_8  and  O1_9 
REMARK    2  A    between atoms: O1_9  and  C7_10 
REMARK    3  A    between atoms: C7_10  and  C8_11 
REMARK    4  A    between atoms: C9_14  and  C10_15 
REMARK    5  A    between atoms: C10_15  and  S1_16 
REMARK    6  A    between atoms: S1_16  and  C11_17 
REMARK    7  A    between atoms: C11_17  and  N2_18 
ROOT
HETATM    1  C8  UNL     1      24.094   1.247  53.000  1.00  0.00     0.180 A 
HETATM    2  N1  UNL     1      22.751   1.274  52.973  1.00  0.00    -0.109 NA
HETATM    3  O2  UNL     1      22.313   2.377  52.440  1.00  0.00    -0.195 OA
HETATM    4  C9  UNL     1      23.365   3.091  52.111  1.00  0.00     0.182 A 
HETATM    5  N4  UNL     1      24.480   2.417  52.446  1.00  0.00    -0.206 NA
ENDROOT
BRANCH   1   6
HETATM    6  C7  UNL     1      25.111   0.276  53.474  1.00  0.00     0.258 C 
BRANCH   6   7
HETATM    7  O1  UNL     1      26.232   0.332  52.623  1.00  0.00    -0.340 OA
BRANCH   7   8
HETATM    8  C6  UNL     1      27.521   0.054  53.023  1.00  0.00     0.112 A 
HETATM    9  C1  UNL     1      28.496   0.889  53.538  1.00  0.00     0.069 A 
HETATM   10 CL1  UNL     1      28.000   2.543  53.699  1.00  0.00    -0.081 Cl
HETATM   11  C2  UNL     1      29.734   0.384  53.874  1.00  0.00     0.027 A 
HETATM   12  C3  UNL     1      30.054  -0.955  53.714  1.00  0.00     0.003 A 
HETATM   13  C4  UNL     1      29.095  -1.778  53.206  1.00  0.00     0.027 A 
HETATM   14  C5  UNL     1      27.832  -1.301  52.857  1.00  0.00     0.069 A 
HETATM   15 CL2  UNL     1      26.736  -2.502  52.223  1.00  0.00    -0.081 Cl
ENDBRANCH   7   8
ENDBRANCH   6   7
ENDBRANCH   1   6
BRANCH   4  16
HETATM   16  C10 UNL     1      23.377   4.434  51.468  1.00  0.00     0.164 C 
BRANCH  16  17
HETATM   17  S1  UNL     1      21.765   4.999  50.935  1.00  0.00    -0.141 SA
BRANCH  17  18
HETATM   18  C11 UNL     1      21.347   4.584  49.244  1.00  0.00     0.199 C 
BRANCH  18  19
HETATM   19  N2  UNL     1      21.461   3.174  49.020  1.00  0.00    -0.349 N 
HETATM   20  C12 UNL     1      20.519   2.107  49.095  1.00  0.00     0.202 A 
HETATM   21  N3  UNL     1      21.374   1.226  48.769  1.00  0.00    -0.265 NA
HETATM   22  C13 UNL     1      22.437   2.183  48.649  1.00  0.00     0.276 A 
ENDBRANCH  18  19
ENDBRANCH  17  18
ENDBRANCH  16  17
ENDBRANCH   4  16
TORSDOF 7
ENDMDL
