MODEL 1
REMARK VINA RESULT:      -7.1      0.000      0.000
REMARK  10 active torsions:
REMARK  status: ('A' for Active; 'I' for Inactive)
REMARK    1  A    between atoms: C2_2  and  O1_3 
REMARK    2  A    between atoms: O1_3  and  C3_4 
REMARK    3  A    between atoms: C3_4  and  C4_5 
REMARK    4  A    between atoms: C4_5  and  O2_6 
REMARK    5  A    between atoms: O2_6  and  C5_7 
REMARK    6  A    between atoms: C10_12  and  O3_13 
REMARK    7  A    between atoms: O3_13  and  C11_14 
REMARK    8  A    between atoms: C11_14  and  C12_15 
REMARK    9  A    between atoms: C12_15  and  O4_16 
REMARK   10  A    between atoms: N3_21  and  C15_22 
ROOT
HETATM    1  C5  UNL     1      25.885   0.810  53.728  1.00  0.00     0.104 A 
HETATM    2  C6  UNL     1      24.858   1.355  52.986  1.00  0.00     0.073 A 
HETATM    3  C7  UNL     1      25.183   2.161  51.918  1.00  0.00     0.088 A 
HETATM    4  C8  UNL     1      26.485   2.440  51.569  1.00  0.00     0.089 A 
HETATM    5  C9  UNL     1      27.462   1.867  52.348  1.00  0.00     0.073 A 
HETATM    6  C10 UNL     1      27.239   1.050  53.431  1.00  0.00     0.104 A 
HETATM    7  N1  UNL     1      26.813   3.261  50.459  1.00  0.00    -0.240 NA
HETATM    8  C14 UNL     1      25.851   3.774  49.740  1.00  0.00     0.224 A 
HETATM    9  N2  UNL     1      24.483   3.502  50.083  1.00  0.00    -0.287 N 
HETATM   10  N3  UNL     1      24.099   2.694  51.175  1.00  0.00    -0.253 N 
HETATM   11  H20 UNL     1      23.777   3.953  49.455  1.00  0.00     0.188 HD
ENDROOT
BRANCH  10  12
HETATM   12  C15 UNL     1      22.707   2.522  51.370  1.00  0.00     0.057 A 
HETATM   13  C16 UNL     1      22.118   3.639  51.975  1.00  0.00     0.031 A 
HETATM   14  C17 UNL     1      20.767   3.703  52.289  1.00  0.00     0.003 A 
HETATM   15  C18 UNL     1      19.946   2.641  52.006  1.00  0.00     0.007 A 
HETATM   16  C19 UNL     1      20.525   1.542  51.413  1.00  0.00    -0.060 A 
HETATM   17  C20 UNL     1      19.703   0.350  51.076  1.00  0.00     0.048 C 
HETATM   18  C21 UNL     1      21.860   1.471  51.100  1.00  0.00     0.038 A 
ENDBRANCH  10  12
BRANCH   1  19
HETATM   19  O2  UNL     1      25.545  -0.012  54.819  1.00  0.00    -0.346 OA
BRANCH  19  20
HETATM   20  C4  UNL     1      24.625  -1.056  54.580  1.00  0.00     0.201 C 
BRANCH  20  21
HETATM   21  C3  UNL     1      23.703  -1.298  55.737  1.00  0.00     0.194 C 
BRANCH  21  22
HETATM   22  O1  UNL     1      22.474  -1.722  55.259  1.00  0.00    -0.389 OA
BRANCH  22  23
HETATM   23  C2  UNL     1      22.071  -0.954  54.142  1.00  0.00     0.163 C 
HETATM   24  C1  UNL     1      21.102   0.076  54.713  1.00  0.00     0.033 C 
ENDBRANCH  22  23
ENDBRANCH  21  22
ENDBRANCH  20  21
ENDBRANCH  19  20
ENDBRANCH   1  19
BRANCH   6  25
HETATM   25  O3  UNL     1      28.110   0.427  54.272  1.00  0.00    -0.346 OA
BRANCH  25  26
HETATM   26  C11 UNL     1      29.360  -0.111  54.029  1.00  0.00     0.201 C 
BRANCH  26  27
HETATM   27  C12 UNL     1      29.390  -1.374  53.216  1.00  0.00     0.193 C 
BRANCH  27  28
HETATM   28  O4  UNL     1      28.292  -2.160  53.535  1.00  0.00    -0.394 OA
HETATM   29  C13 UNL     1      27.418  -2.404  52.511  1.00  0.00     0.201 C 
ENDBRANCH  27  28
ENDBRANCH  26  27
ENDBRANCH  25  26
ENDBRANCH   6  25
TORSDOF 10
ENDMDL
MODEL 2
REMARK VINA RESULT:      -7.0      2.308      4.226
REMARK  10 active torsions:
REMARK  status: ('A' for Active; 'I' for Inactive)
REMARK    1  A    between atoms: C2_2  and  O1_3 
REMARK    2  A    between atoms: O1_3  and  C3_4 
REMARK    3  A    between atoms: C3_4  and  C4_5 
REMARK    4  A    between atoms: C4_5  and  O2_6 
REMARK    5  A    between atoms: O2_6  and  C5_7 
REMARK    6  A    between atoms: C10_12  and  O3_13 
REMARK    7  A    between atoms: O3_13  and  C11_14 
REMARK    8  A    between atoms: C11_14  and  C12_15 
REMARK    9  A    between atoms: C12_15  and  O4_16 
REMARK   10  A    between atoms: N3_21  and  C15_22 
ROOT
HETATM    1  C5  UNL     1      25.634   1.176  53.517  1.00  0.00     0.104 A 
HETATM    2  C6  UNL     1      24.344   1.058  53.042  1.00  0.00     0.073 A 
HETATM    3  C7  UNL     1      23.518   0.125  53.626  1.00  0.00     0.088 A 
HETATM    4  C8  UNL     1      23.929  -0.688  54.658  1.00  0.00     0.089 A 
HETATM    5  C9  UNL     1      25.225  -0.522  55.086  1.00  0.00     0.073 A 
HETATM    6  C10 UNL     1      26.125   0.380  54.568  1.00  0.00     0.104 A 
HETATM    7  N1  UNL     1      23.068  -1.639  55.264  1.00  0.00    -0.240 NA
HETATM    8  C14 UNL     1      21.841  -1.753  54.831  1.00  0.00     0.224 A 
HETATM    9  N2  UNL     1      21.385  -0.919  53.756  1.00  0.00    -0.287 N 
HETATM   10  N3  UNL     1      22.197   0.043  53.115  1.00  0.00    -0.253 N 
HETATM   11  H20 UNL     1      20.389  -1.076  53.472  1.00  0.00     0.188 HD
ENDROOT
BRANCH  10  12
HETATM   12  C15 UNL     1      21.590   0.786  52.074  1.00  0.00     0.057 A 
HETATM   13  C16 UNL     1      20.592   1.644  52.552  1.00  0.00     0.031 A 
HETATM   14  C17 UNL     1      19.838   2.461  51.721  1.00  0.00     0.003 A 
HETATM   15  C18 UNL     1      20.057   2.451  50.366  1.00  0.00     0.007 A 
HETATM   16  C19 UNL     1      21.037   1.607  49.896  1.00  0.00    -0.060 A 
HETATM   17  C20 UNL     1      21.335   1.537  48.442  1.00  0.00     0.048 C 
HETATM   18  C21 UNL     1      21.786   0.796  50.712  1.00  0.00     0.038 A 
ENDBRANCH  10  12
BRANCH   1  19
HETATM   19  O2  UNL     1      26.473   2.132  52.915  1.00  0.00    -0.346 OA
BRANCH  19  20
HETATM   20  C4  UNL     1      26.691   2.018  51.525  1.00  0.00     0.201 C 
BRANCH  20  21
HETATM   21  C3  UNL     1      26.187   3.201  50.755  1.00  0.00     0.194 C 
BRANCH  21  22
HETATM   22  O1  UNL     1      25.015   2.856  50.103  1.00  0.00    -0.389 OA
BRANCH  22  23
HETATM   23  C2  UNL     1      24.177   3.983  49.933  1.00  0.00     0.163 C 
HETATM   24  C1  UNL     1      23.474   4.145  51.276  1.00  0.00     0.033 C 
ENDBRANCH  22  23
ENDBRANCH  21  22
ENDBRANCH  20  21
ENDBRANCH  19  20
ENDBRANCH   1  19
BRANCH   6  25
HETATM   25  O3  UNL     1      27.419   0.639  54.901  1.00  0.00    -0.346 OA
BRANCH  25  26
HETATM   26  C11 UNL     1      28.559  -0.125  54.726  1.00  0.00     0.201 C 
BRANCH  26  27
HETATM   27  C12 UNL     1      28.745  -0.731  53.364  1.00  0.00     0.193 C 
BRANCH  27  28
HETATM   28  O4  UNL     1      28.328  -2.054  53.382  1.00  0.00    -0.394 OA
HETATM   29  C13 UNL     1      27.285  -2.359  52.550  1.00  0.00     0.201 C 
ENDBRANCH  27  28
ENDBRANCH  26  27
ENDBRANCH  25  26
ENDBRANCH   6  25
TORSDOF 10
ENDMDL
MODEL 3
REMARK VINA RESULT:      -7.0      2.792      5.782
REMARK  10 active torsions:
REMARK  status: ('A' for Active; 'I' for Inactive)
REMARK    1  A    between atoms: C2_2  and  O1_3 
REMARK    2  A    between atoms: O1_3  and  C3_4 
REMARK    3  A    between atoms: C3_4  and  C4_5 
REMARK    4  A    between atoms: C4_5  and  O2_6 
REMARK    5  A    between atoms: O2_6  and  C5_7 
REMARK    6  A    between atoms: C10_12  and  O3_13 
REMARK    7  A    between atoms: O3_13  and  C11_14 
REMARK    8  A    between atoms: C11_14  and  C12_15 
REMARK    9  A    between atoms: C12_15  and  O4_16 
REMARK   10  A    between atoms: N3_21  and  C15_22 
ROOT
HETATM    1  C5  UNL     1      26.178   2.565  51.136  1.00  0.00     0.104 A 
HETATM    2  C6  UNL     1      25.086   1.881  51.629  1.00  0.00     0.073 A 
HETATM    3  C7  UNL     1      23.869   2.066  51.013  1.00  0.00     0.088 A 
HETATM    4  C8  UNL     1      23.704   2.902  49.932  1.00  0.00     0.089 A 
HETATM    5  C9  UNL     1      24.830   3.555  49.488  1.00  0.00     0.073 A 
HETATM    6  C10 UNL     1      26.086   3.437  50.035  1.00  0.00     0.104 A 
HETATM    7  N1  UNL     1      22.449   3.079  49.294  1.00  0.00    -0.240 NA
HETATM    8  C14 UNL     1      21.409   2.428  49.744  1.00  0.00     0.224 A 
HETATM    9  N2  UNL     1      21.552   1.551  50.871  1.00  0.00    -0.287 N 
HETATM   10  N3  UNL     1      22.774   1.337  51.545  1.00  0.00    -0.253 N 
HETATM   11  H20 UNL     1      20.669   1.070  51.165  1.00  0.00     0.188 HD
ENDROOT
BRANCH  10  12
HETATM   12  C15 UNL     1      22.742   0.435  52.635  1.00  0.00     0.057 A 
HETATM   13  C16 UNL     1      21.472  -0.124  52.819  1.00  0.00     0.031 A 
HETATM   14  C17 UNL     1      21.183  -1.022  53.838  1.00  0.00     0.003 A 
HETATM   15  C18 UNL     1      22.165  -1.400  54.719  1.00  0.00     0.007 A 
HETATM   16  C19 UNL     1      23.414  -0.850  54.538  1.00  0.00    -0.060 A 
HETATM   17  C20 UNL     1      24.531  -1.208  55.450  1.00  0.00     0.048 C 
HETATM   18  C21 UNL     1      23.707   0.039  53.534  1.00  0.00     0.038 A 
ENDBRANCH  10  12
BRANCH   1  19
HETATM   19  O2  UNL     1      27.419   2.371  51.771  1.00  0.00    -0.346 OA
BRANCH  19  20
HETATM   20  C4  UNL     1      27.402   2.102  53.156  1.00  0.00     0.201 C 
BRANCH  20  21
HETATM   21  C3  UNL     1      28.756   2.210  53.789  1.00  0.00     0.194 C 
BRANCH  21  22
HETATM   22  O1  UNL     1      28.837   1.321  54.848  1.00  0.00    -0.389 OA
BRANCH  22  23
HETATM   23  C2  UNL     1      28.498   0.011  54.438  1.00  0.00     0.163 C 
HETATM   24  C1  UNL     1      29.751  -0.511  53.746  1.00  0.00     0.033 C 
ENDBRANCH  22  23
ENDBRANCH  21  22
ENDBRANCH  20  21
ENDBRANCH  19  20
ENDBRANCH   1  19
BRANCH   6  25
HETATM   25  O3  UNL     1      27.267   4.021  49.690  1.00  0.00    -0.346 OA
BRANCH  25  26
HETATM   26  C11 UNL     1      27.583   4.836  48.620  1.00  0.00     0.201 C 
BRANCH  26  27
HETATM   27  C12 UNL     1      27.041   6.237  48.673  1.00  0.00     0.193 C 
BRANCH  27  28
HETATM   28  O4  UNL     1      27.770   7.052  47.819  1.00  0.00    -0.394 OA
HETATM   29  C13 UNL     1      28.920   7.580  48.341  1.00  0.00     0.201 C 
ENDBRANCH  27  28
ENDBRANCH  26  27
ENDBRANCH  25  26
ENDBRANCH   6  25
TORSDOF 10
ENDMDL
MODEL 4
REMARK VINA RESULT:      -6.9      3.227      7.719
REMARK  10 active torsions:
REMARK  status: ('A' for Active; 'I' for Inactive)
REMARK    1  A    between atoms: C2_2  and  O1_3 
REMARK    2  A    between atoms: O1_3  and  C3_4 
REMARK    3  A    between atoms: C3_4  and  C4_5 
REMARK    4  A    between atoms: C4_5  and  O2_6 
REMARK    5  A    between atoms: O2_6  and  C5_7 
REMARK    6  A    between atoms: C10_12  and  O3_13 
REMARK    7  A    between atoms: O3_13  and  C11_14 
REMARK    8  A    between atoms: C11_14  and  C12_15 
REMARK    9  A    between atoms: C12_15  and  O4_16 
REMARK   10  A    between atoms: N3_21  and  C15_22 
ROOT
HETATM    1  C5  UNL     1      23.276   1.302  51.603  1.00  0.00     0.104 A 
HETATM    2  C6  UNL     1      24.327   0.841  52.368  1.00  0.00     0.073 A 
HETATM    3  C7  UNL     1      24.041   0.067  53.469  1.00  0.00     0.088 A 
HETATM    4  C8  UNL     1      22.755  -0.262  53.831  1.00  0.00     0.089 A 
HETATM    5  C9  UNL     1      21.751   0.227  53.029  1.00  0.00     0.073 A 
HETATM    6  C10 UNL     1      21.935   1.007  51.911  1.00  0.00     0.104 A 
HETATM    7  N1  UNL     1      22.467  -1.072  54.960  1.00  0.00    -0.240 NA
HETATM    8  C14 UNL     1      23.455  -1.524  55.687  1.00  0.00     0.224 A 
HETATM    9  N2  UNL     1      24.807  -1.196  55.333  1.00  0.00    -0.287 N 
HETATM   10  N3  UNL     1      25.151  -0.395  54.223  1.00  0.00    -0.253 N 
HETATM   11  H20 UNL     1      25.534  -1.600  55.969  1.00  0.00     0.188 HD
ENDROOT
BRANCH  10  12
HETATM   12  C15 UNL     1      26.533  -0.172  54.013  1.00  0.00     0.057 A 
HETATM   13  C16 UNL     1      27.149  -1.253  53.370  1.00  0.00     0.031 A 
HETATM   14  C17 UNL     1      28.505  -1.281  53.073  1.00  0.00     0.003 A 
HETATM   15  C18 UNL     1      29.304  -0.217  53.410  1.00  0.00     0.007 A 
HETATM   16  C19 UNL     1      28.698   0.845  54.042  1.00  0.00    -0.060 A 
HETATM   17  C20 UNL     1      29.494   2.035  54.440  1.00  0.00     0.048 C 
HETATM   18  C21 UNL     1      27.359   0.880  54.340  1.00  0.00     0.038 A 
ENDBRANCH  10  12
BRANCH   1  19
HETATM   19  O2  UNL     1      23.576   2.094  50.479  1.00  0.00    -0.346 OA
BRANCH  19  20
HETATM   20  C4  UNL     1      24.351   3.253  50.692  1.00  0.00     0.201 C 
BRANCH  20  21
HETATM   21  C3  UNL     1      24.456   4.120  49.474  1.00  0.00     0.194 C 
BRANCH  21  22
HETATM   22  O1  UNL     1      25.612   4.878  49.551  1.00  0.00    -0.389 OA
BRANCH  22  23
HETATM   23  C2  UNL     1      26.760   4.075  49.363  1.00  0.00     0.163 C 
HETATM   24  C1  UNL     1      27.730   4.964  48.594  1.00  0.00     0.033 C 
ENDBRANCH  22  23
ENDBRANCH  21  22
ENDBRANCH  20  21
ENDBRANCH  19  20
ENDBRANCH   1  19
BRANCH   6  25
HETATM   25  O3  UNL     1      21.036   1.546  51.043  1.00  0.00    -0.346 OA
BRANCH  25  26
HETATM   26  C11 UNL     1      20.173   2.617  51.196  1.00  0.00     0.201 C 
BRANCH  26  27
HETATM   27  C12 UNL     1      20.758   3.852  51.822  1.00  0.00     0.193 C 
BRANCH  27  28
HETATM   28  O4  UNL     1      20.988   4.806  50.842  1.00  0.00    -0.394 OA
HETATM   29  C13 UNL     1      21.667   5.923  51.248  1.00  0.00     0.201 C 
ENDBRANCH  27  28
ENDBRANCH  26  27
ENDBRANCH  25  26
ENDBRANCH   6  25
TORSDOF 10
ENDMDL
MODEL 5
REMARK VINA RESULT:      -6.9      1.974      5.793
REMARK  10 active torsions:
REMARK  status: ('A' for Active; 'I' for Inactive)
REMARK    1  A    between atoms: C2_2  and  O1_3 
REMARK    2  A    between atoms: O1_3  and  C3_4 
REMARK    3  A    between atoms: C3_4  and  C4_5 
REMARK    4  A    between atoms: C4_5  and  O2_6 
REMARK    5  A    between atoms: O2_6  and  C5_7 
REMARK    6  A    between atoms: C10_12  and  O3_13 
REMARK    7  A    between atoms: O3_13  and  C11_14 
REMARK    8  A    between atoms: C11_14  and  C12_15 
REMARK    9  A    between atoms: C12_15  and  O4_16 
REMARK   10  A    between atoms: N3_21  and  C15_22 
ROOT
HETATM    1  C5  UNL     1      25.214   2.060  52.386  1.00  0.00     0.104 A 
HETATM    2  C6  UNL     1      25.308   2.953  51.339  1.00  0.00     0.073 A 
HETATM    3  C7  UNL     1      24.279   2.994  50.425  1.00  0.00     0.088 A 
HETATM    4  C8  UNL     1      23.170   2.184  50.519  1.00  0.00     0.089 A 
HETATM    5  C9  UNL     1      23.137   1.317  51.585  1.00  0.00     0.073 A 
HETATM    6  C10 UNL     1      24.112   1.201  52.548  1.00  0.00     0.104 A 
HETATM    7  N1  UNL     1      22.107   2.241  49.581  1.00  0.00    -0.240 NA
HETATM    8  C14 UNL     1      22.178   3.089  48.590  1.00  0.00     0.224 A 
HETATM    9  N2  UNL     1      23.323   3.946  48.466  1.00  0.00    -0.287 N 
HETATM   10  N3  UNL     1      24.409   3.932  49.369  1.00  0.00    -0.253 N 
HETATM   11  H20 UNL     1      23.298   4.594  47.644  1.00  0.00     0.188 HD
ENDROOT
BRANCH  10  12
HETATM   12  C15 UNL     1      25.458   4.846  49.104  1.00  0.00     0.057 A 
HETATM   13  C16 UNL     1      25.012   6.173  49.103  1.00  0.00     0.031 A 
HETATM   14  C17 UNL     1      25.851   7.250  48.847  1.00  0.00     0.003 A 
HETATM   15  C18 UNL     1      27.181   7.037  48.582  1.00  0.00     0.007 A 
HETATM   16  C19 UNL     1      27.618   5.732  48.583  1.00  0.00    -0.060 A 
HETATM   17  C20 UNL     1      29.044   5.418  48.304  1.00  0.00     0.048 C 
HETATM   18  C21 UNL     1      26.795   4.662  48.834  1.00  0.00     0.038 A 
ENDBRANCH  10  12
BRANCH   1  19
HETATM   19  O2  UNL     1      26.270   2.023  53.317  1.00  0.00    -0.346 OA
BRANCH  19  20
HETATM   20  C4  UNL     1      27.549   1.677  52.831  1.00  0.00     0.201 C 
BRANCH  20  21
HETATM   21  C3  UNL     1      28.662   2.199  53.688  1.00  0.00     0.194 C 
BRANCH  21  22
HETATM   22  O1  UNL     1      29.215   1.151  54.406  1.00  0.00    -0.389 OA
BRANCH  22  23
HETATM   23  C2  UNL     1      28.758  -0.096  53.917  1.00  0.00     0.163 C 
HETATM   24  C1  UNL     1      30.029  -0.902  53.675  1.00  0.00     0.033 C 
ENDBRANCH  22  23
ENDBRANCH  21  22
ENDBRANCH  20  21
ENDBRANCH  19  20
ENDBRANCH   1  19
BRANCH   6  25
HETATM   25  O3  UNL     1      24.195   0.393  53.640  1.00  0.00    -0.346 OA
BRANCH  25  26
HETATM   26  C11 UNL     1      23.658  -0.861  53.870  1.00  0.00     0.201 C 
BRANCH  26  27
HETATM   27  C12 UNL     1      23.276  -1.167  55.290  1.00  0.00     0.193 C 
BRANCH  27  28
HETATM   28  O4  UNL     1      22.036  -1.789  55.316  1.00  0.00    -0.394 OA
HETATM   29  C13 UNL     1      21.166  -1.422  54.326  1.00  0.00     0.201 C 
ENDBRANCH  27  28
ENDBRANCH  26  27
ENDBRANCH  25  26
ENDBRANCH   6  25
TORSDOF 10
ENDMDL
MODEL 6
REMARK VINA RESULT:      -6.8      2.381      4.659
REMARK  10 active torsions:
REMARK  status: ('A' for Active; 'I' for Inactive)
REMARK    1  A    between atoms: C2_2  and  O1_3 
REMARK    2  A    between atoms: O1_3  and  C3_4 
REMARK    3  A    between atoms: C3_4  and  C4_5 
REMARK    4  A    between atoms: C4_5  and  O2_6 
REMARK    5  A    between atoms: O2_6  and  C5_7 
REMARK    6  A    between atoms: C10_12  and  O3_13 
REMARK    7  A    between atoms: O3_13  and  C11_14 
REMARK    8  A    between atoms: C11_14  and  C12_15 
REMARK    9  A    between atoms: C12_15  and  O4_16 
REMARK   10  A    between atoms: N3_21  and  C15_22 
ROOT
HETATM    1  C5  UNL     1      25.796   0.576  52.134  1.00  0.00     0.104 A 
HETATM    2  C6  UNL     1      24.457   0.908  52.101  1.00  0.00     0.073 A 
HETATM    3  C7  UNL     1      23.618   0.322  53.021  1.00  0.00     0.088 A 
HETATM    4  C8  UNL     1      24.064  -0.575  53.966  1.00  0.00     0.089 A 
HETATM    5  C9  UNL     1      25.408  -0.864  53.947  1.00  0.00     0.073 A 
HETATM    6  C10 UNL     1      26.324  -0.333  53.069  1.00  0.00     0.104 A 
HETATM    7  N1  UNL     1      23.196  -1.166  54.921  1.00  0.00    -0.240 NA
HETATM    8  C14 UNL     1      21.928  -0.851  54.908  1.00  0.00     0.224 A 
HETATM    9  N2  UNL     1      21.435   0.081  53.933  1.00  0.00    -0.287 N 
HETATM   10  N3  UNL     1      22.252   0.697  52.960  1.00  0.00    -0.253 N 
HETATM   11  H20 UNL     1      20.408   0.275  53.994  1.00  0.00     0.188 HD
ENDROOT
BRANCH  10  12
HETATM   12  C15 UNL     1      21.607   1.596  52.076  1.00  0.00     0.057 A 
HETATM   13  C16 UNL     1      20.947   0.930  51.036  1.00  0.00     0.031 A 
HETATM   14  C17 UNL     1      20.259   1.596  50.031  1.00  0.00     0.003 A 
HETATM   15  C18 UNL     1      20.205   2.968  50.029  1.00  0.00     0.007 A 
HETATM   16  C19 UNL     1      20.854   3.622  51.051  1.00  0.00    -0.060 A 
HETATM   17  C20 UNL     1      20.843   5.107  51.119  1.00  0.00     0.048 C 
HETATM   18  C21 UNL     1      21.537   2.971  52.047  1.00  0.00     0.038 A 
ENDBRANCH  10  12
BRANCH   1  19
HETATM   19  O2  UNL     1      26.648   1.178  51.188  1.00  0.00    -0.346 OA
BRANCH  19  20
HETATM   20  C4  UNL     1      26.693   2.588  51.164  1.00  0.00     0.201 C 
BRANCH  20  21
HETATM   21  C3  UNL     1      26.378   3.161  49.815  1.00  0.00     0.194 C 
BRANCH  21  22
HETATM   22  O1  UNL     1      25.836   4.426  49.971  1.00  0.00    -0.389 OA
BRANCH  22  23
HETATM   23  C2  UNL     1      24.440   4.357  50.185  1.00  0.00     0.163 C 
HETATM   24  C1  UNL     1      23.943   3.349  49.154  1.00  0.00     0.033 C 
ENDBRANCH  22  23
ENDBRANCH  21  22
ENDBRANCH  20  21
ENDBRANCH  19  20
ENDBRANCH   1  19
BRANCH   6  25
HETATM   25  O3  UNL     1      27.665  -0.534  52.950  1.00  0.00    -0.346 OA
BRANCH  25  26
HETATM   26  C11 UNL     1      28.668  -0.473  53.900  1.00  0.00     0.201 C 
BRANCH  26  27
HETATM   27  C12 UNL     1      28.462   0.511  55.016  1.00  0.00     0.193 C 
BRANCH  27  28
HETATM   28  O4  UNL     1      29.294   1.606  54.832  1.00  0.00    -0.394 OA
HETATM   29  C13 UNL     1      28.942   2.455  53.817  1.00  0.00     0.201 C 
ENDBRANCH  27  28
ENDBRANCH  26  27
ENDBRANCH  25  26
ENDBRANCH   6  25
TORSDOF 10
ENDMDL
MODEL 7
REMARK VINA RESULT:      -6.7      2.665      5.338
REMARK  10 active torsions:
REMARK  status: ('A' for Active; 'I' for Inactive)
REMARK    1  A    between atoms: C2_2  and  O1_3 
REMARK    2  A    between atoms: O1_3  and  C3_4 
REMARK    3  A    between atoms: C3_4  and  C4_5 
REMARK    4  A    between atoms: C4_5  and  O2_6 
REMARK    5  A    between atoms: O2_6  and  C5_7 
REMARK    6  A    between atoms: C10_12  and  O3_13 
REMARK    7  A    between atoms: O3_13  and  C11_14 
REMARK    8  A    between atoms: C11_14  and  C12_15 
REMARK    9  A    between atoms: C12_15  and  O4_16 
REMARK   10  A    between atoms: N3_21  and  C15_22 
ROOT
HETATM    1  C5  UNL     1      26.004   2.407  51.476  1.00  0.00     0.104 A 
HETATM    2  C6  UNL     1      24.661   2.218  51.224  1.00  0.00     0.073 A 
HETATM    3  C7  UNL     1      23.999   1.234  51.923  1.00  0.00     0.088 A 
HETATM    4  C8  UNL     1      24.624   0.439  52.857  1.00  0.00     0.089 A 
HETATM    5  C9  UNL     1      25.963   0.677  53.063  1.00  0.00     0.073 A 
HETATM    6  C10 UNL     1      26.710   1.633  52.416  1.00  0.00     0.104 A 
HETATM    7  N1  UNL     1      23.933  -0.565  53.584  1.00  0.00    -0.240 NA
HETATM    8  C14 UNL     1      22.658  -0.746  53.362  1.00  0.00     0.224 A 
HETATM    9  N2  UNL     1      21.981   0.067  52.393  1.00  0.00    -0.287 N 
HETATM   10  N3  UNL     1      22.617   1.079  51.641  1.00  0.00    -0.253 N 
HETATM   11  H20 UNL     1      20.962  -0.146  52.279  1.00  0.00     0.188 HD
ENDROOT
BRANCH  10  12
HETATM   12  C15 UNL     1      21.802   1.793  50.730  1.00  0.00     0.057 A 
HETATM   13  C16 UNL     1      21.757   1.180  49.472  1.00  0.00     0.031 A 
HETATM   14  C17 UNL     1      21.040   1.702  48.404  1.00  0.00     0.003 A 
HETATM   15  C18 UNL     1      20.333   2.869  48.556  1.00  0.00     0.007 A 
HETATM   16  C19 UNL     1      20.379   3.472  49.793  1.00  0.00    -0.060 A 
HETATM   17  C20 UNL     1      19.641   4.738  50.038  1.00  0.00     0.048 C 
HETATM   18  C21 UNL     1      21.086   2.962  50.853  1.00  0.00     0.038 A 
ENDBRANCH  10  12
BRANCH   1  19
HETATM   19  O2  UNL     1      26.674   3.414  50.757  1.00  0.00    -0.346 OA
BRANCH  19  20
HETATM   20  C4  UNL     1      26.124   3.799  49.516  1.00  0.00     0.201 C 
BRANCH  20  21
HETATM   21  C3  UNL     1      26.835   4.963  48.897  1.00  0.00     0.194 C 
BRANCH  21  22
HETATM   22  O1  UNL     1      28.159   4.622  48.673  1.00  0.00    -0.389 OA
BRANCH  22  23
HETATM   23  C2  UNL     1      28.902   5.739  48.223  1.00  0.00     0.163 C 
HETATM   24  C1  UNL     1      27.867   6.846  48.054  1.00  0.00     0.033 C 
ENDBRANCH  22  23
ENDBRANCH  21  22
ENDBRANCH  20  21
ENDBRANCH  19  20
ENDBRANCH   1  19
BRANCH   6  25
HETATM   25  O3  UNL     1      28.025   1.964  52.530  1.00  0.00    -0.346 OA
BRANCH  25  26
HETATM   26  C11 UNL     1      28.787   2.231  53.653  1.00  0.00     0.201 C 
BRANCH  26  27
HETATM   27  C12 UNL     1      29.242   1.037  54.443  1.00  0.00     0.193 C 
BRANCH  27  28
HETATM   28  O4  UNL     1      29.960   0.180  53.621  1.00  0.00    -0.394 OA
HETATM   29  C13 UNL     1      29.467  -1.092  53.514  1.00  0.00     0.201 C 
ENDBRANCH  27  28
ENDBRANCH  26  27
ENDBRANCH  25  26
ENDBRANCH   6  25
TORSDOF 10
ENDMDL
MODEL 8
REMARK VINA RESULT:      -6.5      3.186      7.673
REMARK  10 active torsions:
REMARK  status: ('A' for Active; 'I' for Inactive)
REMARK    1  A    between atoms: C2_2  and  O1_3 
REMARK    2  A    between atoms: O1_3  and  C3_4 
REMARK    3  A    between atoms: C3_4  and  C4_5 
REMARK    4  A    between atoms: C4_5  and  O2_6 
REMARK    5  A    between atoms: O2_6  and  C5_7 
REMARK    6  A    between atoms: C10_12  and  O3_13 
REMARK    7  A    between atoms: O3_13  and  C11_14 
REMARK    8  A    between atoms: C11_14  and  C12_15 
REMARK    9  A    between atoms: C12_15  and  O4_16 
REMARK   10  A    between atoms: N3_21  and  C15_22 
ROOT
HETATM    1  C5  UNL     1      23.194   1.466  51.525  1.00  0.00     0.104 A 
HETATM    2  C6  UNL     1      24.271   1.074  52.292  1.00  0.00     0.073 A 
HETATM    3  C7  UNL     1      24.039   0.238  53.361  1.00  0.00     0.088 A 
HETATM    4  C8  UNL     1      22.782  -0.218  53.686  1.00  0.00     0.089 A 
HETATM    5  C9  UNL     1      21.751   0.208  52.883  1.00  0.00     0.073 A 
HETATM    6  C10 UNL     1      21.881   1.041  51.797  1.00  0.00     0.104 A 
HETATM    7  N1  UNL     1      22.552  -1.091  54.782  1.00  0.00    -0.240 NA
HETATM    8  C14 UNL     1      23.565  -1.478  55.511  1.00  0.00     0.224 A 
HETATM    9  N2  UNL     1      24.887  -1.017  55.194  1.00  0.00    -0.287 N 
HETATM   10  N3  UNL     1      25.174  -0.148  54.119  1.00  0.00    -0.253 N 
HETATM   11  H20 UNL     1      25.638  -1.376  55.829  1.00  0.00     0.188 HD
ENDROOT
BRANCH  10  12
HETATM   12  C15 UNL     1      26.534   0.206  53.943  1.00  0.00     0.057 A 
HETATM   13  C16 UNL     1      26.714   1.593  53.890  1.00  0.00     0.031 A 
HETATM   14  C17 UNL     1      27.955   2.186  53.703  1.00  0.00     0.003 A 
HETATM   15  C18 UNL     1      29.075   1.405  53.559  1.00  0.00     0.007 A 
HETATM   16  C19 UNL     1      28.897   0.041  53.610  1.00  0.00    -0.060 A 
HETATM   17  C20 UNL     1      30.059  -0.874  53.462  1.00  0.00     0.048 C 
HETATM   18  C21 UNL     1      27.673  -0.552  53.794  1.00  0.00     0.038 A 
ENDBRANCH  10  12
BRANCH   1  19
HETATM   19  O2  UNL     1      23.439   2.322  50.434  1.00  0.00    -0.346 OA
BRANCH  19  20
HETATM   20  C4  UNL     1      24.499   3.244  50.561  1.00  0.00     0.201 C 
BRANCH  20  21
HETATM   21  C3  UNL     1      24.688   4.090  49.337  1.00  0.00     0.194 C 
BRANCH  21  22
HETATM   22  O1  UNL     1      25.795   4.904  49.512  1.00  0.00    -0.389 OA
BRANCH  22  23
HETATM   23  C2  UNL     1      26.985   4.224  49.167  1.00  0.00     0.163 C 
HETATM   24  C1  UNL     1      27.853   5.283  48.497  1.00  0.00     0.033 C 
ENDBRANCH  22  23
ENDBRANCH  21  22
ENDBRANCH  20  21
ENDBRANCH  19  20
ENDBRANCH   1  19
BRANCH   6  25
HETATM   25  O3  UNL     1      20.950   1.527  50.930  1.00  0.00    -0.346 OA
BRANCH  25  26
HETATM   26  C11 UNL     1      20.079   0.864  50.086  1.00  0.00     0.201 C 
BRANCH  26  27
HETATM   27  C12 UNL     1      18.649   0.782  50.543  1.00  0.00     0.193 C 
BRANCH  27  28
HETATM   28  O4  UNL     1      18.519  -0.223  51.489  1.00  0.00    -0.394 OA
HETATM   29  C13 UNL     1      17.248  -0.692  51.687  1.00  0.00     0.201 C 
ENDBRANCH  27  28
ENDBRANCH  26  27
ENDBRANCH  25  26
ENDBRANCH   6  25
TORSDOF 10
ENDMDL
MODEL 9
REMARK VINA RESULT:      -6.5      3.371      7.558
REMARK  10 active torsions:
REMARK  status: ('A' for Active; 'I' for Inactive)
REMARK    1  A    between atoms: C2_2  and  O1_3 
REMARK    2  A    between atoms: O1_3  and  C3_4 
REMARK    3  A    between atoms: C3_4  and  C4_5 
REMARK    4  A    between atoms: C4_5  and  O2_6 
REMARK    5  A    between atoms: O2_6  and  C5_7 
REMARK    6  A    between atoms: C10_12  and  O3_13 
REMARK    7  A    between atoms: O3_13  and  C11_14 
REMARK    8  A    between atoms: C11_14  and  C12_15 
REMARK    9  A    between atoms: C12_15  and  O4_16 
REMARK   10  A    between atoms: N3_21  and  C15_22 
ROOT
HETATM    1  C5  UNL     1      22.258   1.399  50.696  1.00  0.00     0.104 A 
HETATM    2  C6  UNL     1      23.253   0.984  51.556  1.00  0.00     0.073 A 
HETATM    3  C7  UNL     1      22.888   0.286  52.685  1.00  0.00     0.088 A 
HETATM    4  C8  UNL     1      21.577  -0.010  52.983  1.00  0.00     0.089 A 
HETATM    5  C9  UNL     1      20.633   0.431  52.087  1.00  0.00     0.073 A 
HETATM    6  C10 UNL     1      20.897   1.134  50.934  1.00  0.00     0.104 A 
HETATM    7  N1  UNL     1      21.209  -0.741  54.142  1.00  0.00    -0.240 NA
HETATM    8  C14 UNL     1      22.143  -1.150  54.959  1.00  0.00     0.224 A 
HETATM    9  N2  UNL     1      23.518  -0.855  54.674  1.00  0.00    -0.287 N 
HETATM   10  N3  UNL     1      23.942  -0.131  53.538  1.00  0.00    -0.253 N 
HETATM   11  H20 UNL     1      24.199  -1.219  55.381  1.00  0.00     0.188 HD
ENDROOT
BRANCH  10  12
HETATM   12  C15 UNL     1      25.337   0.069  53.404  1.00  0.00     0.057 A 
HETATM   13  C16 UNL     1      26.009  -1.113  53.067  1.00  0.00     0.031 A 
HETATM   14  C17 UNL     1      27.386  -1.176  52.901  1.00  0.00     0.003 A 
HETATM   15  C18 UNL     1      28.151  -0.049  53.066  1.00  0.00     0.007 A 
HETATM   16  C19 UNL     1      27.490   1.113  53.398  1.00  0.00    -0.060 A 
HETATM   17  C20 UNL     1      28.246   2.376  53.595  1.00  0.00     0.048 C 
HETATM   18  C21 UNL     1      26.129   1.183  53.565  1.00  0.00     0.038 A 
ENDBRANCH  10  12
BRANCH   1  19
HETATM   19  O2  UNL     1      22.638   2.113  49.544  1.00  0.00    -0.346 OA
BRANCH  19  20
HETATM   20  C4  UNL     1      23.737   2.990  49.659  1.00  0.00     0.201 C 
BRANCH  20  21
HETATM   21  C3  UNL     1      23.328   4.427  49.783  1.00  0.00     0.194 C 
BRANCH  21  22
HETATM   22  O1  UNL     1      23.864   4.955  50.947  1.00  0.00    -0.389 OA
BRANCH  22  23
HETATM   23  C2  UNL     1      22.956   4.831  52.025  1.00  0.00     0.163 C 
HETATM   24  C1  UNL     1      23.777   4.211  53.149  1.00  0.00     0.033 C 
ENDBRANCH  22  23
ENDBRANCH  21  22
ENDBRANCH  20  21
ENDBRANCH  19  20
ENDBRANCH   1  19
BRANCH   6  25
HETATM   25  O3  UNL     1      20.061   1.620  49.975  1.00  0.00    -0.346 OA
BRANCH  25  26
HETATM   26  C11 UNL     1      19.221   2.718  49.993  1.00  0.00     0.201 C 
BRANCH  26  27
HETATM   27  C12 UNL     1      19.471   3.724  51.080  1.00  0.00     0.193 C 
BRANCH  27  28
HETATM   28  O4  UNL     1      18.487   3.614  52.052  1.00  0.00    -0.394 OA
HETATM   29  C13 UNL     1      17.199   3.582  51.593  1.00  0.00     0.201 C 
ENDBRANCH  27  28
ENDBRANCH  26  27
ENDBRANCH  25  26
ENDBRANCH   6  25
TORSDOF 10
ENDMDL
