MODEL 1
REMARK VINA RESULT:      -9.9      0.000      0.000
REMARK  0 active torsions:
REMARK  status: ('A' for Active; 'I' for Inactive)
ROOT
HETATM    1  C1  UNL     1      24.732  -1.135  54.408  1.00  0.00     0.013 C 
HETATM    2  C2  UNL     1      24.643   0.130  53.611  1.00  0.00    -0.016 C 
HETATM    3  C3  UNL     1      23.332   0.180  53.536  1.00  0.00     0.039 C 
HETATM    4  C4  UNL     1      22.112   0.807  53.104  1.00  0.00     0.072 C 
HETATM    5  C5  UNL     1      21.809   1.931  52.382  1.00  0.00     0.067 C 
HETATM    6  N1  UNL     1      21.624   3.122  51.621  1.00  0.00    -0.388 N 
HETATM    7  C6  UNL     1      21.617   3.941  50.487  1.00  0.00     0.055 C 
HETATM    8  C7  UNL     1      22.733   4.214  49.773  1.00  0.00    -0.025 C 
HETATM    9  C8  UNL     1      23.796   3.449  50.464  1.00  0.00     0.082 C 
HETATM   10  C9  UNL     1      25.171   3.835  50.067  1.00  0.00     0.011 C 
HETATM   11  C10 UNL     1      26.040   2.931  50.538  1.00  0.00     0.016 C 
HETATM   12  C11 UNL     1      25.813   1.687  51.323  1.00  0.00     0.301 C 
HETATM   13  N2  UNL     1      26.276   1.771  52.667  1.00  0.00     0.101 N 
HETATM   14  C12 UNL     1      27.626   2.226  52.713  1.00  0.00     0.299 C 
HETATM   15  C13 UNL     1      28.496   1.192  53.446  1.00  0.00     0.198 C 
HETATM   16  O1  UNL     1      27.997   1.053  54.710  1.00  0.00    -0.387 OA
HETATM   17  C14 UNL     1      26.656   0.782  54.767  1.00  0.00     0.203 C 
HETATM   18  C15 UNL     1      26.046   0.554  53.376  1.00  0.00     0.251 C 
HETATM   19  C16 UNL     1      25.557   4.986  49.288  1.00  0.00     0.248 C 
HETATM   20  O2  UNL     1      26.740   5.362  49.251  1.00  0.00    -0.268 OA
HETATM   21  N3  UNL     1      24.438   5.554  48.634  1.00  0.00    -0.348 N 
HETATM   22  C17 UNL     1      23.009   5.151  48.681  1.00  0.00     0.123 C 
HETATM   23  C18 UNL     1      22.588   4.826  47.350  1.00  0.00     0.044 A 
HETATM   24  C19 UNL     1      21.942   4.513  46.263  1.00  0.00     0.026 A 
HETATM   25  C20 UNL     1      20.885   4.540  47.259  1.00  0.00     0.119 A 
HETATM   26  N4  UNL     1      20.816   4.824  48.553  1.00  0.00    -0.294 NA
HETATM   27  C21 UNL     1      19.522   4.708  49.175  1.00  0.00     0.135 C 
HETATM   28  C22 UNL     1      20.182   4.196  50.209  1.00  0.00     0.088 C 
HETATM   29  C23 UNL     1      19.132   3.887  51.179  1.00  0.00     0.103 C 
HETATM   30  N5  UNL     1      18.293   3.621  51.973  1.00  0.00    -0.191 NA
HETATM   31  H7  UNL     1      21.294   3.759  52.425  1.00  0.00     0.159 HD
HETATM   32  H20 UNL     1      24.656   6.383  48.024  1.00  0.00     0.163 HD
ENDROOT
TORSDOF 0
ENDMDL
MODEL 2
REMARK VINA RESULT:      -9.9      2.167      6.586
REMARK  0 active torsions:
REMARK  status: ('A' for Active; 'I' for Inactive)
ROOT
HETATM    1  C1  UNL     1      21.152   6.770  50.451  1.00  0.00     0.013 C 
HETATM    2  C2  UNL     1      21.829   5.449  50.648  1.00  0.00    -0.016 C 
HETATM    3  C3  UNL     1      20.808   4.827  51.195  1.00  0.00     0.039 C 
HETATM    4  C4  UNL     1      20.201   3.660  51.776  1.00  0.00     0.072 C 
HETATM    5  C5  UNL     1      20.626   2.386  52.049  1.00  0.00     0.067 C 
HETATM    6  N1  UNL     1      21.186   1.096  52.283  1.00  0.00    -0.388 N 
HETATM    7  C6  UNL     1      21.979   0.127  52.906  1.00  0.00     0.055 C 
HETATM    8  C7  UNL     1      23.328   0.211  52.965  1.00  0.00    -0.025 C 
HETATM    9  C8  UNL     1      23.638   1.487  52.283  1.00  0.00     0.082 C 
HETATM   10  C9  UNL     1      25.068   1.651  51.932  1.00  0.00     0.011 C 
HETATM   11  C10 UNL     1      25.293   2.919  51.564  1.00  0.00     0.016 C 
HETATM   12  C11 UNL     1      24.370   4.084  51.489  1.00  0.00     0.301 C 
HETATM   13  N2  UNL     1      24.091   4.504  50.157  1.00  0.00     0.101 N 
HETATM   14  C12 UNL     1      25.296   4.694  49.420  1.00  0.00     0.299 C 
HETATM   15  C13 UNL     1      25.353   6.133  48.884  1.00  0.00     0.198 C 
HETATM   16  O1  UNL     1      24.266   6.317  48.077  1.00  0.00    -0.387 OA
HETATM   17  C14 UNL     1      23.067   5.993  48.652  1.00  0.00     0.203 C 
HETATM   18  C15 UNL     1      23.210   5.627  50.136  1.00  0.00     0.251 C 
HETATM   19  C16 UNL     1      26.093   0.638  51.978  1.00  0.00     0.248 C 
HETATM   20  O2  UNL     1      27.182   0.807  51.405  1.00  0.00    -0.268 OA
HETATM   21  N3  UNL     1      25.665  -0.483  52.728  1.00  0.00    -0.348 N 
HETATM   22  C17 UNL     1      24.363  -0.732  53.398  1.00  0.00     0.123 C 
HETATM   23  C18 UNL     1      24.605  -0.919  54.798  1.00  0.00     0.044 A 
HETATM   24  C19 UNL     1      24.541  -1.160  56.077  1.00  0.00     0.026 A 
HETATM   25  C20 UNL     1      23.180  -1.417  55.642  1.00  0.00     0.119 A 
HETATM   26  N4  UNL     1      22.546  -1.413  54.477  1.00  0.00    -0.294 NA
HETATM   27  C21 UNL     1      21.140  -1.730  54.502  1.00  0.00     0.135 C 
HETATM   28  C22 UNL     1      21.016  -0.772  53.589  1.00  0.00     0.088 C 
HETATM   29  C23 UNL     1      19.582  -0.739  53.306  1.00  0.00     0.103 C 
HETATM   30  N5  UNL     1      18.420  -0.691  53.072  1.00  0.00    -0.191 NA
HETATM   31  H7  UNL     1      20.682   0.573  51.487  1.00  0.00     0.159 HD
HETATM   32  H20 UNL     1      26.379  -1.250  52.825  1.00  0.00     0.163 HD
ENDROOT
TORSDOF 0
ENDMDL
MODEL 3
REMARK VINA RESULT:      -9.5      2.531      5.198
REMARK  0 active torsions:
REMARK  status: ('A' for Active; 'I' for Inactive)
ROOT
HETATM    1  C1  UNL     1      25.701  -0.000  54.341  1.00  0.00     0.013 C 
HETATM    2  C2  UNL     1      25.106   0.807  53.229  1.00  0.00    -0.016 C 
HETATM    3  C3  UNL     1      26.223   1.371  52.826  1.00  0.00     0.039 C 
HETATM    4  C4  UNL     1      26.954   2.248  51.952  1.00  0.00     0.072 C 
HETATM    5  C5  UNL     1      26.619   3.063  50.902  1.00  0.00     0.067 C 
HETATM    6  N1  UNL     1      26.144   3.871  49.828  1.00  0.00    -0.388 N 
HETATM    7  C6  UNL     1      25.499   4.947  49.210  1.00  0.00     0.055 C 
HETATM    8  C7  UNL     1      24.178   5.196  49.365  1.00  0.00    -0.025 C 
HETATM    9  C8  UNL     1      23.719   4.135  50.289  1.00  0.00     0.082 C 
HETATM   10  C9  UNL     1      22.246   3.996  50.363  1.00  0.00     0.011 C 
HETATM   11  C10 UNL     1      21.924   3.208  51.396  1.00  0.00     0.016 C 
HETATM   12  C11 UNL     1      22.787   2.530  52.403  1.00  0.00     0.301 C 
HETATM   13  N2  UNL     1      22.821   1.114  52.261  1.00  0.00     0.101 N 
HETATM   14  C12 UNL     1      21.503   0.577  52.199  1.00  0.00     0.299 C 
HETATM   15  C13 UNL     1      21.313  -0.459  53.319  1.00  0.00     0.198 C 
HETATM   16  O1  UNL     1      22.239  -1.446  53.131  1.00  0.00    -0.387 OA
HETATM   17  C14 UNL     1      23.528  -1.002  53.007  1.00  0.00     0.203 C 
HETATM   18  C15 UNL     1      23.652   0.509  53.251  1.00  0.00     0.251 C 
HETATM   19  C16 UNL     1      21.273   4.605  49.489  1.00  0.00     0.248 C 
HETATM   20  O2  UNL     1      20.098   4.205  49.467  1.00  0.00    -0.268 OA
HETATM   21  N3  UNL     1      21.856   5.648  48.730  1.00  0.00    -0.348 N 
HETATM   22  C17 UNL     1      23.261   6.130  48.707  1.00  0.00     0.123 C 
HETATM   23  C18 UNL     1      23.269   7.512  49.088  1.00  0.00     0.044 A 
HETATM   24  C19 UNL     1      23.559   8.753  49.360  1.00  0.00     0.026 A 
HETATM   25  C20 UNL     1      24.832   8.229  48.898  1.00  0.00     0.119 A 
HETATM   26  N4  UNL     1      25.255   7.065  48.424  1.00  0.00    -0.294 NA
HETATM   27  C21 UNL     1      26.653   6.972  48.084  1.00  0.00     0.135 C 
HETATM   28  C22 UNL     1      26.591   5.751  48.608  1.00  0.00     0.088 C 
HETATM   29  C23 UNL     1      27.953   5.239  48.470  1.00  0.00     0.103 C 
HETATM   30  N5  UNL     1      29.055   4.812  48.375  1.00  0.00    -0.191 NA
HETATM   31  H7  UNL     1      26.519   3.268  49.017  1.00  0.00     0.159 HD
HETATM   32  H20 UNL     1      21.192   6.155  48.091  1.00  0.00     0.163 HD
ENDROOT
TORSDOF 0
ENDMDL
MODEL 4
REMARK VINA RESULT:      -9.3      3.227      7.801
REMARK  0 active torsions:
REMARK  status: ('A' for Active; 'I' for Inactive)
ROOT
HETATM    1  C1  UNL     1      18.071   2.625  48.108  1.00  0.00     0.013 C 
HETATM    2  C2  UNL     1      18.982   2.310  49.254  1.00  0.00    -0.016 C 
HETATM    3  C3  UNL     1      20.051   2.907  48.776  1.00  0.00     0.039 C 
HETATM    4  C4  UNL     1      21.431   3.301  48.875  1.00  0.00     0.072 C 
HETATM    5  C5  UNL     1      22.421   3.120  49.804  1.00  0.00     0.067 C 
HETATM    6  N1  UNL     1      23.363   2.865  50.844  1.00  0.00    -0.388 N 
HETATM    7  C6  UNL     1      24.253   2.120  51.624  1.00  0.00     0.055 C 
HETATM    8  C7  UNL     1      23.871   1.039  52.341  1.00  0.00    -0.025 C 
HETATM    9  C8  UNL     1      22.427   0.906  52.047  1.00  0.00     0.082 C 
HETATM   10  C9  UNL     1      21.707  -0.010  52.963  1.00  0.00     0.011 C 
HETATM   11  C10 UNL     1      20.488  -0.266  52.469  1.00  0.00     0.016 C 
HETATM   12  C11 UNL     1      19.834   0.200  51.216  1.00  0.00     0.301 C 
HETATM   13  N2  UNL     1      18.765   1.114  51.439  1.00  0.00     0.101 N 
HETATM   14  C12 UNL     1      17.843   0.596  52.394  1.00  0.00     0.299 C 
HETATM   15  C13 UNL     1      16.438   0.528  51.775  1.00  0.00     0.198 C 
HETATM   16  O1  UNL     1      16.085   1.796  51.411  1.00  0.00    -0.387 OA
HETATM   17  C14 UNL     1      17.002   2.440  50.624  1.00  0.00     0.203 C 
HETATM   18  C15 UNL     1      18.163   1.525  50.211  1.00  0.00     0.251 C 
HETATM   19  C16 UNL     1      22.205  -0.573  54.194  1.00  0.00     0.248 C 
HETATM   20  O2  UNL     1      21.433  -1.096  55.013  1.00  0.00    -0.268 OA
HETATM   21  N3  UNL     1      23.610  -0.429  54.285  1.00  0.00    -0.348 N 
HETATM   22  C17 UNL     1      24.558   0.218  53.342  1.00  0.00     0.123 C 
HETATM   23  C18 UNL     1      25.510  -0.764  52.915  1.00  0.00     0.044 A 
HETATM   24  C19 UNL     1      26.506  -1.428  52.401  1.00  0.00     0.026 A 
HETATM   25  C20 UNL     1      26.783  -0.069  51.973  1.00  0.00     0.119 A 
HETATM   26  N4  UNL     1      26.217   1.115  52.169  1.00  0.00    -0.294 NA
HETATM   27  C21 UNL     1      26.837   2.245  51.526  1.00  0.00     0.135 C 
HETATM   28  C22 UNL     1      25.595   2.658  51.290  1.00  0.00     0.088 C 
HETATM   29  C23 UNL     1      25.774   3.912  50.559  1.00  0.00     0.103 C 
HETATM   30  N5  UNL     1      25.900   4.925  49.956  1.00  0.00    -0.191 NA
HETATM   31  H7  UNL     1      23.380   3.855  51.271  1.00  0.00     0.159 HD
HETATM   32  H20 UNL     1      24.042  -0.845  55.149  1.00  0.00     0.163 HD
ENDROOT
TORSDOF 0
ENDMDL
MODEL 5
REMARK VINA RESULT:      -9.2      2.562      6.218
REMARK  0 active torsions:
REMARK  status: ('A' for Active; 'I' for Inactive)
ROOT
HETATM    1  C1  UNL     1      27.896   4.754  48.587  1.00  0.00     0.013 C 
HETATM    2  C2  UNL     1      26.566   4.666  49.271  1.00  0.00    -0.016 C 
HETATM    3  C3  UNL     1      26.791   3.542  49.914  1.00  0.00     0.039 C 
HETATM    4  C4  UNL     1      26.383   2.492  50.807  1.00  0.00     0.072 C 
HETATM    5  C5  UNL     1      25.244   2.220  51.518  1.00  0.00     0.067 C 
HETATM    6  N1  UNL     1      24.008   2.047  52.207  1.00  0.00    -0.388 N 
HETATM    7  C6  UNL     1      22.651   1.748  52.368  1.00  0.00     0.055 C 
HETATM    8  C7  UNL     1      21.669   2.434  51.739  1.00  0.00    -0.025 C 
HETATM    9  C8  UNL     1      22.397   3.433  50.924  1.00  0.00     0.082 C 
HETATM   10  C9  UNL     1      21.537   4.515  50.389  1.00  0.00     0.011 C 
HETATM   11  C10 UNL     1      22.218   5.210  49.468  1.00  0.00     0.016 C 
HETATM   12  C11 UNL     1      23.601   5.032  48.948  1.00  0.00     0.301 C 
HETATM   13  N2  UNL     1      24.496   6.066  49.348  1.00  0.00     0.101 N 
HETATM   14  C12 UNL     1      23.949   7.350  49.062  1.00  0.00     0.299 C 
HETATM   15  C13 UNL     1      24.910   8.131  48.150  1.00  0.00     0.198 C 
HETATM   16  O1  UNL     1      26.099   8.255  48.812  1.00  0.00    -0.387 OA
HETATM   17  C14 UNL     1      26.618   7.077  49.277  1.00  0.00     0.203 C 
HETATM   18  C15 UNL     1      25.805   5.858  48.819  1.00  0.00     0.251 C 
HETATM   19  C16 UNL     1      20.174   4.803  50.762  1.00  0.00     0.248 C 
HETATM   20  O2  UNL     1      19.648   5.887  50.462  1.00  0.00    -0.268 OA
HETATM   21  N3  UNL     1      19.602   3.719  51.469  1.00  0.00    -0.348 N 
HETATM   22  C17 UNL     1      20.210   2.426  51.872  1.00  0.00     0.123 C 
HETATM   23  C18 UNL     1      19.454   1.366  51.271  1.00  0.00     0.044 A 
HETATM   24  C19 UNL     1      18.936   0.232  50.892  1.00  0.00     0.026 A 
HETATM   25  C20 UNL     1      19.953  -0.190  51.839  1.00  0.00     0.119 A 
HETATM   26  N4  UNL     1      20.819   0.429  52.630  1.00  0.00    -0.294 NA
HETATM   27  C21 UNL     1      21.681  -0.405  53.428  1.00  0.00     0.135 C 
HETATM   28  C22 UNL     1      22.629   0.483  53.144  1.00  0.00     0.088 C 
HETATM   29  C23 UNL     1      23.815  -0.039  53.820  1.00  0.00     0.103 C 
HETATM   30  N5  UNL     1      24.790  -0.453  54.353  1.00  0.00    -0.191 NA
HETATM   31  H7  UNL     1      24.351   2.319  53.192  1.00  0.00     0.159 HD
HETATM   32  H20 UNL     1      18.596   3.854  51.746  1.00  0.00     0.163 HD
ENDROOT
TORSDOF 0
ENDMDL
MODEL 6
REMARK VINA RESULT:      -9.2      2.632      7.143
REMARK  0 active torsions:
REMARK  status: ('A' for Active; 'I' for Inactive)
ROOT
HETATM    1  C1  UNL     1      27.008   5.069  48.582  1.00  0.00     0.013 C 
HETATM    2  C2  UNL     1      25.971   4.625  49.567  1.00  0.00    -0.016 C 
HETATM    3  C3  UNL     1      26.707   3.725  50.179  1.00  0.00     0.039 C 
HETATM    4  C4  UNL     1      26.893   2.712  51.183  1.00  0.00     0.072 C 
HETATM    5  C5  UNL     1      26.101   2.162  52.156  1.00  0.00     0.067 C 
HETATM    6  N1  UNL     1      25.180   1.670  53.126  1.00  0.00    -0.388 N 
HETATM    7  C6  UNL     1      24.082   0.956  53.618  1.00  0.00     0.055 C 
HETATM    8  C7  UNL     1      22.812   1.196  53.217  1.00  0.00    -0.025 C 
HETATM    9  C8  UNL     1      22.952   2.276  52.215  1.00  0.00     0.082 C 
HETATM   10  C9  UNL     1      21.674   2.939  51.861  1.00  0.00     0.011 C 
HETATM   11  C10 UNL     1      21.856   3.706  50.779  1.00  0.00     0.016 C 
HETATM   12  C11 UNL     1      23.070   3.940  49.950  1.00  0.00     0.301 C 
HETATM   13  N2  UNL     1      23.606   5.252  50.085  1.00  0.00     0.101 N 
HETATM   14  C12 UNL     1      22.595   6.238  49.890  1.00  0.00     0.299 C 
HETATM   15  C13 UNL     1      23.004   7.180  48.747  1.00  0.00     0.198 C 
HETATM   16  O1  UNL     1      24.184   7.771  49.100  1.00  0.00    -0.387 OA
HETATM   17  C14 UNL     1      25.171   6.897  49.471  1.00  0.00     0.203 C 
HETATM   18  C15 UNL     1      24.762   5.432  49.266  1.00  0.00     0.251 C 
HETATM   19  C16 UNL     1      20.408   2.797  52.538  1.00  0.00     0.248 C 
HETATM   20  O2  UNL     1      19.484   3.600  52.332  1.00  0.00    -0.268 OA
HETATM   21  N3  UNL     1      20.418   1.676  53.402  1.00  0.00    -0.348 N 
HETATM   22  C17 UNL     1      21.513   0.717  53.695  1.00  0.00     0.123 C 
HETATM   23  C18 UNL     1      21.069  -0.598  53.333  1.00  0.00     0.044 A 
HETATM   24  C19 UNL     1      20.916  -1.875  53.131  1.00  0.00     0.026 A 
HETATM   25  C20 UNL     1      22.192  -1.819  53.823  1.00  0.00     0.119 A 
HETATM   26  N4  UNL     1      22.931  -0.857  54.360  1.00  0.00    -0.294 NA
HETATM   27  C21 UNL     1      24.179  -1.256  54.959  1.00  0.00     0.135 C 
HETATM   28  C22 UNL     1      24.670  -0.142  54.424  1.00  0.00     0.088 C 
HETATM   29  C23 UNL     1      26.079  -0.155  54.815  1.00  0.00     0.103 C 
HETATM   30  N5  UNL     1      27.226  -0.155  55.114  1.00  0.00    -0.191 NA
HETATM   31  H7  UNL     1      25.605   2.155  53.990  1.00  0.00     0.159 HD
HETATM   32  H20 UNL     1      19.512   1.500  53.906  1.00  0.00     0.163 HD
ENDROOT
TORSDOF 0
ENDMDL
MODEL 7
REMARK VINA RESULT:      -9.1      2.548      4.929
REMARK  0 active torsions:
REMARK  status: ('A' for Active; 'I' for Inactive)
ROOT
HETATM    1  C1  UNL     1      27.073   2.406  52.105  1.00  0.00     0.013 C 
HETATM    2  C2  UNL     1      25.678   1.962  51.789  1.00  0.00    -0.016 C 
HETATM    3  C3  UNL     1      25.529   2.675  50.695  1.00  0.00     0.039 C 
HETATM    4  C4  UNL     1      24.753   3.111  49.564  1.00  0.00     0.072 C 
HETATM    5  C5  UNL     1      23.492   2.844  49.100  1.00  0.00     0.067 C 
HETATM    6  N1  UNL     1      22.166   2.486  48.721  1.00  0.00    -0.388 N 
HETATM    7  C6  UNL     1      20.768   2.467  48.776  1.00  0.00     0.055 C 
HETATM    8  C7  UNL     1      20.084   2.015  49.852  1.00  0.00    -0.025 C 
HETATM    9  C8  UNL     1      21.141   1.636  50.816  1.00  0.00     0.082 C 
HETATM   10  C9  UNL     1      20.657   0.813  51.949  1.00  0.00     0.011 C 
HETATM   11  C10 UNL     1      21.611   0.741  52.886  1.00  0.00     0.016 C 
HETATM   12  C11 UNL     1      22.970   1.347  52.934  1.00  0.00     0.301 C 
HETATM   13  N2  UNL     1      24.021   0.395  52.813  1.00  0.00     0.101 N 
HETATM   14  C12 UNL     1      23.850  -0.673  53.741  1.00  0.00     0.299 C 
HETATM   15  C13 UNL     1      25.092  -0.782  54.639  1.00  0.00     0.198 C 
HETATM   16  O1  UNL     1      26.168  -1.020  53.831  1.00  0.00    -0.387 OA
HETATM   17  C14 UNL     1      26.313  -0.133  52.799  1.00  0.00     0.203 C 
HETATM   18  C15 UNL     1      25.303   1.021  52.873  1.00  0.00     0.251 C 
HETATM   19  C16 UNL     1      19.365   0.183  52.072  1.00  0.00     0.248 C 
HETATM   20  O2  UNL     1      19.167  -0.701  52.922  1.00  0.00    -0.268 OA
HETATM   21  N3  UNL     1      18.451   0.711  51.129  1.00  0.00    -0.348 N 
HETATM   22  C17 UNL     1      18.663   1.741  50.081  1.00  0.00     0.123 C 
HETATM   23  C18 UNL     1      17.766   2.831  50.333  1.00  0.00     0.044 A 
HETATM   24  C19 UNL     1      17.049   3.918  50.304  1.00  0.00     0.026 A 
HETATM   25  C20 UNL     1      17.785   3.996  49.055  1.00  0.00     0.119 A 
HETATM   26  N4  UNL     1      18.653   3.217  48.422  1.00  0.00    -0.294 NA
HETATM   27  C21 UNL     1      19.162   3.702  47.165  1.00  0.00     0.135 C 
HETATM   28  C22 UNL     1      20.328   3.203  47.565  1.00  0.00     0.088 C 
HETATM   29  C23 UNL     1      21.243   3.521  46.470  1.00  0.00     0.103 C 
HETATM   30  N5  UNL     1      22.000   3.780  45.595  1.00  0.00    -0.191 NA
HETATM   31  H7  UNL     1      22.419   1.840  47.895  1.00  0.00     0.159 HD
HETATM   32  H20 UNL     1      17.479   0.312  51.185  1.00  0.00     0.163 HD
ENDROOT
TORSDOF 0
ENDMDL
MODEL 8
REMARK VINA RESULT:      -9.0      2.080      6.871
REMARK  0 active torsions:
REMARK  status: ('A' for Active; 'I' for Inactive)
ROOT
HETATM    1  C1  UNL     1      18.402   4.737  50.622  1.00  0.00     0.013 C 
HETATM    2  C2  UNL     1      19.744   4.074  50.568  1.00  0.00    -0.016 C 
HETATM    3  C3  UNL     1      19.538   3.217  51.542  1.00  0.00     0.039 C 
HETATM    4  C4  UNL     1      19.969   2.140  52.393  1.00  0.00     0.072 C 
HETATM    5  C5  UNL     1      21.122   1.410  52.515  1.00  0.00     0.067 C 
HETATM    6  N1  UNL     1      22.371   0.724  52.543  1.00  0.00    -0.388 N 
HETATM    7  C6  UNL     1      23.733   0.532  52.800  1.00  0.00     0.055 C 
HETATM    8  C7  UNL     1      24.698   1.303  52.249  1.00  0.00    -0.025 C 
HETATM    9  C8  UNL     1      23.950   2.287  51.435  1.00  0.00     0.082 C 
HETATM   10  C9  UNL     1      24.793   3.042  50.478  1.00  0.00     0.011 C 
HETATM   11  C10 UNL     1      24.091   4.070  49.982  1.00  0.00     0.016 C 
HETATM   12  C11 UNL     1      22.700   4.518  50.264  1.00  0.00     0.301 C 
HETATM   13  N2  UNL     1      21.806   4.315  49.174  1.00  0.00     0.101 N 
HETATM   14  C12 UNL     1      22.339   4.861  47.970  1.00  0.00     0.299 C 
HETATM   15  C13 UNL     1      21.357   5.891  47.390  1.00  0.00     0.198 C 
HETATM   16  O1  UNL     1      20.179   5.245  47.140  1.00  0.00    -0.387 OA
HETATM   17  C14 UNL     1      19.676   4.545  48.204  1.00  0.00     0.203 C 
HETATM   18  C15 UNL     1      20.489   4.768  49.487  1.00  0.00     0.251 C 
HETATM   19  C16 UNL     1      26.160   2.759  50.117  1.00  0.00     0.248 C 
HETATM   20  O2  UNL     1      26.674   3.278  49.113  1.00  0.00    -0.268 OA
HETATM   21  N3  UNL     1      26.752   1.862  51.037  1.00  0.00    -0.348 N 
HETATM   22  C17 UNL     1      26.160   1.199  52.227  1.00  0.00     0.123 C 
HETATM   23  C18 UNL     1      26.912   1.591  53.383  1.00  0.00     0.044 A 
HETATM   24  C19 UNL     1      27.431   1.747  54.567  1.00  0.00     0.026 A 
HETATM   25  C20 UNL     1      26.434   0.716  54.796  1.00  0.00     0.119 A 
HETATM   26  N4  UNL     1      25.578   0.048  54.035  1.00  0.00    -0.294 NA
HETATM   27  C21 UNL     1      24.736  -0.916  54.697  1.00  0.00     0.135 C 
HETATM   28  C22 UNL     1      23.777  -0.479  53.885  1.00  0.00     0.088 C 
HETATM   29  C23 UNL     1      22.606  -1.266  54.267  1.00  0.00     0.103 C 
HETATM   30  N5  UNL     1      21.644  -1.889  54.570  1.00  0.00    -0.191 NA
HETATM   31  H7  UNL     1      22.044  -0.193  52.082  1.00  0.00     0.159 HD
HETATM   32  H20 UNL     1      27.762   1.635  50.847  1.00  0.00     0.163 HD
ENDROOT
TORSDOF 0
ENDMDL
MODEL 9
REMARK VINA RESULT:      -8.8      3.294      6.471
REMARK  0 active torsions:
REMARK  status: ('A' for Active; 'I' for Inactive)
ROOT
HETATM    1  C1  UNL     1      16.223   1.298  50.142  1.00  0.00     0.013 C 
HETATM    2  C2  UNL     1      17.561   1.521  50.778  1.00  0.00    -0.016 C 
HETATM    3  C3  UNL     1      17.782   2.713  50.272  1.00  0.00     0.039 C 
HETATM    4  C4  UNL     1      18.595   3.889  50.110  1.00  0.00     0.072 C 
HETATM    5  C5  UNL     1      19.818   4.287  50.581  1.00  0.00     0.067 C 
HETATM    6  N1  UNL     1      21.097   4.586  51.135  1.00  0.00    -0.388 N 
HETATM    7  C6  UNL     1      22.484   4.510  51.294  1.00  0.00     0.055 C 
HETATM    8  C7  UNL     1      23.121   3.366  51.636  1.00  0.00    -0.025 C 
HETATM    9  C8  UNL     1      22.033   2.368  51.740  1.00  0.00     0.082 C 
HETATM   10  C9  UNL     1      22.431   1.110  52.415  1.00  0.00     0.011 C 
HETATM   11  C10 UNL     1      21.479   0.187  52.232  1.00  0.00     0.016 C 
HETATM   12  C11 UNL     1      20.193   0.256  51.485  1.00  0.00     0.301 C 
HETATM   13  N2  UNL     1      19.045   0.235  52.326  1.00  0.00     0.101 N 
HETATM   14  C12 UNL     1      19.104  -0.855  53.242  1.00  0.00     0.299 C 
HETATM   15  C13 UNL     1      17.861  -1.743  53.071  1.00  0.00     0.198 C 
HETATM   16  O1  UNL     1      16.763  -0.970  53.321  1.00  0.00    -0.387 OA
HETATM   17  C14 UNL     1      16.710   0.194  52.602  1.00  0.00     0.203 C 
HETATM   18  C15 UNL     1      17.838   0.294  51.566  1.00  0.00     0.251 C 
HETATM   19  C16 UNL     1      23.648   0.870  53.151  1.00  0.00     0.248 C 
HETATM   20  O2  UNL     1      23.754  -0.113  53.902  1.00  0.00    -0.268 OA
HETATM   21  N3  UNL     1      24.609   1.874  52.883  1.00  0.00    -0.348 N 
HETATM   22  C17 UNL     1      24.505   3.077  52.020  1.00  0.00     0.123 C 
HETATM   23  C18 UNL     1      25.515   2.993  51.005  1.00  0.00     0.044 A 
HETATM   24  C19 UNL     1      26.345   3.187  50.020  1.00  0.00     0.026 A 
HETATM   25  C20 UNL     1      25.615   4.442  50.067  1.00  0.00     0.119 A 
HETATM   26  N4  UNL     1      24.666   4.952  50.841  1.00  0.00    -0.294 NA
HETATM   27  C21 UNL     1      24.206   6.278  50.515  1.00  0.00     0.135 C 
HETATM   28  C22 UNL     1      22.996   5.818  50.815  1.00  0.00     0.088 C 
HETATM   29  C23 UNL     1      22.116   6.962  50.583  1.00  0.00     0.103 C 
HETATM   30  N5  UNL     1      21.387   7.877  50.389  1.00  0.00    -0.191 NA
HETATM   31  H7  UNL     1      20.771   5.300  51.875  1.00  0.00     0.159 HD
HETATM   32  H20 UNL     1      25.533   1.742  53.369  1.00  0.00     0.163 HD
ENDROOT
TORSDOF 0
ENDMDL
