MODEL 1
REMARK VINA RESULT:      -8.6      0.000      0.000
REMARK  5 active torsions:
REMARK  status: ('A' for Active; 'I' for Inactive)
REMARK    1  A    between atoms: C5_6  and  C6_7 
REMARK    2  A    between atoms: C6_7  and  C7_8 
REMARK    3  A    between atoms: C10_11  and  C11_12 
REMARK    4  A    between atoms: C14_17  and  N3_18 
REMARK    5  A    between atoms: N3_18  and  S1_19 
ROOT
HETATM    1  C7  UNL     1      25.221   1.208  51.953  1.00  0.00    -0.032 A 
HETATM    2  C8  UNL     1      26.405   1.872  51.589  1.00  0.00     0.010 A 
HETATM    3  C9  UNL     1      26.409   2.959  50.708  1.00  0.00     0.012 A 
HETATM    4  C10 UNL     1      25.227   3.425  50.158  1.00  0.00    -0.032 A 
HETATM    5  C19 UNL     1      24.086   2.775  50.518  1.00  0.00     0.035 A 
HETATM    6  C20 UNL     1      24.086   1.710  51.380  1.00  0.00     0.041 A 
HETATM    7 CL1  UNL     1      22.573   0.933  51.771  1.00  0.00    -0.084 Cl
ENDROOT
BRANCH   4   8
HETATM    8  C11 UNL     1      25.361   4.551  49.244  1.00  0.00     0.047 C 
HETATM    9  C12 UNL     1      24.901   5.692  49.744  1.00  0.00     0.107 A 
HETATM   10  N1  UNL     1      24.313   6.005  50.996  1.00  0.00    -0.238 NA
HETATM   11  C14 UNL     1      24.896   6.972  49.053  1.00  0.00     0.186 A 
HETATM   12  C13 UNL     1      24.022   7.240  51.025  1.00  0.00     0.236 A 
HETATM   13  N2  UNL     1      24.377   7.886  49.807  1.00  0.00    -0.220 NA
BRANCH  11  14
HETATM   14  N3  UNL     1      25.342   7.327  47.725  1.00  0.00    -0.205 NA
BRANCH  14  15
HETATM   15  S1  UNL     1      26.832   7.939  47.462  1.00  0.00    -0.100 SA
HETATM   16  C15 UNL     1      27.346   9.525  48.204  1.00  0.00     0.087 C 
HETATM   17  C16 UNL     1      28.286   8.922  49.255  1.00  0.00     0.012 C 
HETATM   18  C17 UNL     1      29.162   7.929  48.556  1.00  0.00     0.012 C 
HETATM   19  C18 UNL     1      28.308   6.928  47.839  1.00  0.00     0.087 C 
ENDBRANCH  14  15
ENDBRANCH  11  14
ENDBRANCH   4   8
BRANCH   1  20
HETATM   20  C6  UNL     1      25.356   0.073  52.896  1.00  0.00     0.078 C 
BRANCH  20  21
HETATM   21  C5  UNL     1      26.723  -0.117  53.417  1.00  0.00    -0.051 A 
HETATM   22  C4  UNL     1      27.369   0.655  54.355  1.00  0.00     0.007 A 
HETATM   23  C3  UNL     1      28.659   0.414  54.775  1.00  0.00     0.004 A 
HETATM   24  C2  UNL     1      29.312  -0.667  54.205  1.00  0.00     0.042 A 
HETATM   25  C1  UNL     1      28.698  -1.448  53.277  1.00  0.00     0.116 A 
HETATM   26  F1  UNL     1      29.453  -2.485  52.791  1.00  0.00    -0.206 F 
HETATM   27  C21 UNL     1      27.418  -1.191  52.874  1.00  0.00     0.049 A 
ENDBRANCH  20  21
ENDBRANCH   1  20
TORSDOF 5
ENDMDL
MODEL 2
REMARK VINA RESULT:      -8.5      2.034      2.734
REMARK  5 active torsions:
REMARK  status: ('A' for Active; 'I' for Inactive)
REMARK    1  A    between atoms: C5_6  and  C6_7 
REMARK    2  A    between atoms: C6_7  and  C7_8 
REMARK    3  A    between atoms: C10_11  and  C11_12 
REMARK    4  A    between atoms: C14_17  and  N3_18 
REMARK    5  A    between atoms: N3_18  and  S1_19 
ROOT
HETATM    1  C7  UNL     1      24.933   0.412  52.694  1.00  0.00    -0.032 A 
HETATM    2  C8  UNL     1      25.765   1.195  51.876  1.00  0.00     0.010 A 
HETATM    3  C9  UNL     1      25.355   2.430  51.363  1.00  0.00     0.012 A 
HETATM    4  C10 UNL     1      24.096   2.930  51.649  1.00  0.00    -0.032 A 
HETATM    5  C19 UNL     1      23.300   2.163  52.443  1.00  0.00     0.035 A 
HETATM    6  C20 UNL     1      23.703   0.954  52.944  1.00  0.00     0.041 A 
HETATM    7 CL1  UNL     1      22.604   0.037  53.943  1.00  0.00    -0.084 Cl
ENDROOT
BRANCH   4   8
HETATM    8  C11 UNL     1      23.779   4.217  51.045  1.00  0.00     0.047 C 
HETATM    9  C12 UNL     1      23.254   4.113  49.830  1.00  0.00     0.107 A 
HETATM   10  N1  UNL     1      22.948   2.985  49.027  1.00  0.00    -0.238 NA
HETATM   11  C14 UNL     1      22.854   5.230  48.989  1.00  0.00     0.186 A 
HETATM   12  C13 UNL     1      22.458   3.377  47.924  1.00  0.00     0.236 A 
HETATM   13  N2  UNL     1      22.383   4.797  47.863  1.00  0.00    -0.220 NA
BRANCH  11  14
HETATM   14  N3  UNL     1      22.924   6.655  49.218  1.00  0.00    -0.205 NA
BRANCH  14  15
HETATM   15  S1  UNL     1      24.327   7.475  49.059  1.00  0.00    -0.100 SA
HETATM   16  C15 UNL     1      25.797   7.033  50.046  1.00  0.00     0.087 C 
HETATM   17  C16 UNL     1      26.582   6.388  48.897  1.00  0.00     0.012 C 
HETATM   18  C17 UNL     1      26.529   7.329  47.734  1.00  0.00     0.012 C 
HETATM   19  C18 UNL     1      25.100   7.641  47.410  1.00  0.00     0.087 C 
ENDBRANCH  14  15
ENDBRANCH  11  14
ENDBRANCH   4   8
BRANCH   1  20
HETATM   20  C6  UNL     1      25.490  -0.875  53.174  1.00  0.00     0.078 C 
BRANCH  20  21
HETATM   21  C5  UNL     1      26.950  -0.857  53.388  1.00  0.00    -0.051 A 
HETATM   22  C4  UNL     1      27.873  -1.748  52.891  1.00  0.00     0.007 A 
HETATM   23  C3  UNL     1      29.223  -1.665  53.155  1.00  0.00     0.004 A 
HETATM   24  C2  UNL     1      29.640  -0.621  53.964  1.00  0.00     0.042 A 
HETATM   25  C1  UNL     1      28.750   0.274  54.470  1.00  0.00     0.116 A 
HETATM   26  F1  UNL     1      29.291   1.259  55.257  1.00  0.00    -0.206 F 
HETATM   27  C21 UNL     1      27.415   0.173  54.195  1.00  0.00     0.049 A 
ENDBRANCH  20  21
ENDBRANCH   1  20
TORSDOF 5
ENDMDL
MODEL 3
REMARK VINA RESULT:      -8.4      4.470      5.220
REMARK  5 active torsions:
REMARK  status: ('A' for Active; 'I' for Inactive)
REMARK    1  A    between atoms: C5_6  and  C6_7 
REMARK    2  A    between atoms: C6_7  and  C7_8 
REMARK    3  A    between atoms: C10_11  and  C11_12 
REMARK    4  A    between atoms: C14_17  and  N3_18 
REMARK    5  A    between atoms: N3_18  and  S1_19 
ROOT
HETATM    1  C7  UNL     1      23.524  -0.058  53.374  1.00  0.00    -0.032 A 
HETATM    2  C8  UNL     1      23.956   0.991  52.544  1.00  0.00     0.010 A 
HETATM    3  C9  UNL     1      23.185   1.461  51.475  1.00  0.00     0.012 A 
HETATM    4  C10 UNL     1      21.951   0.899  51.195  1.00  0.00    -0.032 A 
HETATM    5  C19 UNL     1      21.542  -0.116  52.006  1.00  0.00     0.035 A 
HETATM    6  C20 UNL     1      22.300  -0.574  53.051  1.00  0.00     0.041 A 
HETATM    7 CL1  UNL     1      21.696  -1.890  54.026  1.00  0.00    -0.084 Cl
ENDROOT
BRANCH   4   8
HETATM    8  C11 UNL     1      21.250   1.462  50.050  1.00  0.00     0.047 C 
HETATM    9  C12 UNL     1      20.280   2.303  50.387  1.00  0.00     0.107 A 
HETATM   10  N1  UNL     1      19.812   2.746  51.650  1.00  0.00    -0.238 NA
HETATM   11  C14 UNL     1      19.410   3.002  49.455  1.00  0.00     0.186 A 
HETATM   12  C13 UNL     1      18.849   3.555  51.481  1.00  0.00     0.236 A 
HETATM   13  N2  UNL     1      18.565   3.742  50.098  1.00  0.00    -0.220 NA
BRANCH  11  14
HETATM   14  N3  UNL     1      19.355   2.967  48.011  1.00  0.00    -0.205 NA
BRANCH  14  15
HETATM   15  S1  UNL     1      19.931   4.199  47.107  1.00  0.00    -0.100 SA
HETATM   16  C15 UNL     1      21.060   5.444  47.818  1.00  0.00     0.087 C 
HETATM   17  C16 UNL     1      22.327   4.945  47.110  1.00  0.00     0.012 C 
HETATM   18  C17 UNL     1      21.987   4.759  45.664  1.00  0.00     0.012 C 
HETATM   19  C18 UNL     1      20.807   3.844  45.542  1.00  0.00     0.087 C 
ENDBRANCH  14  15
ENDBRANCH  11  14
ENDBRANCH   4   8
BRANCH   1  20
HETATM   20  C6  UNL     1      24.435  -0.458  54.472  1.00  0.00     0.078 C 
BRANCH  20  21
HETATM   21  C5  UNL     1      25.850  -0.568  54.070  1.00  0.00    -0.051 A 
HETATM   22  C4  UNL     1      26.367  -1.334  53.050  1.00  0.00     0.007 A 
HETATM   23  C3  UNL     1      27.711  -1.389  52.752  1.00  0.00     0.004 A 
HETATM   24  C2  UNL     1      28.559  -0.625  53.536  1.00  0.00     0.042 A 
HETATM   25  C1  UNL     1      28.077   0.142  54.550  1.00  0.00     0.116 A 
HETATM   26  F1  UNL     1      29.020   0.850  55.250  1.00  0.00    -0.206 F 
HETATM   27  C21 UNL     1      26.740   0.183  54.829  1.00  0.00     0.049 A 
ENDBRANCH  20  21
ENDBRANCH   1  20
TORSDOF 5
ENDMDL
MODEL 4
REMARK VINA RESULT:      -8.4      4.019      8.046
REMARK  5 active torsions:
REMARK  status: ('A' for Active; 'I' for Inactive)
REMARK    1  A    between atoms: C5_6  and  C6_7 
REMARK    2  A    between atoms: C6_7  and  C7_8 
REMARK    3  A    between atoms: C10_11  and  C11_12 
REMARK    4  A    between atoms: C14_17  and  N3_18 
REMARK    5  A    between atoms: N3_18  and  S1_19 
ROOT
HETATM    1  C7  UNL     1      26.783   6.173  48.562  1.00  0.00    -0.032 A 
HETATM    2  C8  UNL     1      27.311   4.878  48.703  1.00  0.00     0.010 A 
HETATM    3  C9  UNL     1      26.777   3.950  49.604  1.00  0.00     0.012 A 
HETATM    4  C10 UNL     1      25.694   4.283  50.399  1.00  0.00    -0.032 A 
HETATM    5  C19 UNL     1      25.190   5.539  50.253  1.00  0.00     0.035 A 
HETATM    6  C20 UNL     1      25.716   6.446  49.371  1.00  0.00     0.041 A 
HETATM    7 CL1  UNL     1      25.009   8.038  49.266  1.00  0.00    -0.084 Cl
ENDROOT
BRANCH   4   8
HETATM    8  C11 UNL     1      25.238   3.239  51.307  1.00  0.00     0.047 C 
HETATM    9  C12 UNL     1      24.171   2.585  50.865  1.00  0.00     0.107 A 
HETATM   10  N1  UNL     1      23.407   2.719  49.677  1.00  0.00    -0.238 NA
HETATM   11  C14 UNL     1      23.495   1.505  51.566  1.00  0.00     0.186 A 
HETATM   12  C13 UNL     1      22.463   1.870  49.688  1.00  0.00     0.236 A 
HETATM   13  N2  UNL     1      22.487   1.082  50.873  1.00  0.00    -0.220 NA
BRANCH  11  14
HETATM   14  N3  UNL     1      23.768   0.900  52.850  1.00  0.00    -0.205 NA
BRANCH  14  15
HETATM   15  S1  UNL     1      25.052  -0.084  53.072  1.00  0.00    -0.100 SA
HETATM   16  C15 UNL     1      26.484  -0.037  51.940  1.00  0.00     0.087 C 
HETATM   17  C16 UNL     1      27.442   0.665  52.911  1.00  0.00     0.012 C 
HETATM   18  C17 UNL     1      27.354  -0.052  54.223  1.00  0.00     0.012 C 
HETATM   19  C18 UNL     1      25.927  -0.087  54.677  1.00  0.00     0.087 C 
ENDBRANCH  14  15
ENDBRANCH  11  14
ENDBRANCH   4   8
BRANCH   1  20
HETATM   20  C6  UNL     1      27.441   7.057  47.570  1.00  0.00     0.078 C 
BRANCH  20  21
HETATM   21  C5  UNL     1      28.845   7.376  47.886  1.00  0.00    -0.051 A 
HETATM   22  C4  UNL     1      29.969   6.728  47.426  1.00  0.00     0.007 A 
HETATM   23  C3  UNL     1      31.250   7.084  47.787  1.00  0.00     0.004 A 
HETATM   24  C2  UNL     1      31.380   8.153  48.659  1.00  0.00     0.042 A 
HETATM   25  C1  UNL     1      30.289   8.813  49.130  1.00  0.00     0.116 A 
HETATM   26  F1  UNL     1      30.554   9.851  49.986  1.00  0.00    -0.206 F 
HETATM   27  C21 UNL     1      29.027   8.442  48.759  1.00  0.00     0.049 A 
ENDBRANCH  20  21
ENDBRANCH   1  20
TORSDOF 5
ENDMDL
MODEL 5
REMARK VINA RESULT:      -8.4      4.154      8.488
REMARK  5 active torsions:
REMARK  status: ('A' for Active; 'I' for Inactive)
REMARK    1  A    between atoms: C5_6  and  C6_7 
REMARK    2  A    between atoms: C6_7  and  C7_8 
REMARK    3  A    between atoms: C10_11  and  C11_12 
REMARK    4  A    between atoms: C14_17  and  N3_18 
REMARK    5  A    between atoms: N3_18  and  S1_19 
ROOT
HETATM    1  C7  UNL     1      26.489   5.686  48.892  1.00  0.00    -0.032 A 
HETATM    2  C8  UNL     1      27.081   4.423  48.722  1.00  0.00     0.010 A 
HETATM    3  C9  UNL     1      26.736   3.326  49.519  1.00  0.00     0.012 A 
HETATM    4  C10 UNL     1      25.783   3.450  50.516  1.00  0.00    -0.032 A 
HETATM    5  C19 UNL     1      25.216   4.678  50.670  1.00  0.00     0.035 A 
HETATM    6  C20 UNL     1      25.557   5.750  49.890  1.00  0.00     0.041 A 
HETATM    7 CL1  UNL     1      24.782   7.289  50.173  1.00  0.00    -0.084 Cl
ENDROOT
BRANCH   4   8
HETATM    8  C11 UNL     1      25.521   2.243  51.288  1.00  0.00     0.047 C 
HETATM    9  C12 UNL     1      26.517   1.909  52.099  1.00  0.00     0.107 A 
HETATM   10  N1  UNL     1      27.776   2.514  52.346  1.00  0.00    -0.238 NA
HETATM   11  C14 UNL     1      26.536   0.749  52.976  1.00  0.00     0.186 A 
HETATM   12  C13 UNL     1      28.407   1.831  53.210  1.00  0.00     0.236 A 
HETATM   13  N2  UNL     1      27.651   0.702  53.632  1.00  0.00    -0.220 NA
BRANCH  11  14
HETATM   14  N3  UNL     1      25.555  -0.292  53.181  1.00  0.00    -0.205 NA
BRANCH  14  15
HETATM   15  S1  UNL     1      24.128   0.015  53.913  1.00  0.00    -0.100 SA
HETATM   16  C15 UNL     1      22.644   0.447  52.944  1.00  0.00     0.087 C 
HETATM   17  C16 UNL     1      21.923  -0.894  53.133  1.00  0.00     0.012 C 
HETATM   18  C17 UNL     1      21.980  -1.230  54.591  1.00  0.00     0.012 C 
HETATM   19  C18 UNL     1      23.407  -1.222  55.050  1.00  0.00     0.087 C 
ENDBRANCH  14  15
ENDBRANCH  11  14
ENDBRANCH   4   8
BRANCH   1  20
HETATM   20  C6  UNL     1      26.943   6.763  47.980  1.00  0.00     0.078 C 
BRANCH  20  21
HETATM   21  C5  UNL     1      28.110   7.517  48.474  1.00  0.00    -0.051 A 
HETATM   22  C4  UNL     1      28.099   8.704  49.171  1.00  0.00     0.007 A 
HETATM   23  C3  UNL     1      29.243   9.351  49.583  1.00  0.00     0.004 A 
HETATM   24  C2  UNL     1      30.451   8.752  49.263  1.00  0.00     0.042 A 
HETATM   25  C1  UNL     1      30.493   7.580  48.576  1.00  0.00     0.116 A 
HETATM   26  F1  UNL     1      31.750   7.093  48.323  1.00  0.00    -0.206 F 
HETATM   27  C21 UNL     1      29.346   6.954  48.177  1.00  0.00     0.049 A 
ENDBRANCH  20  21
ENDBRANCH   1  20
TORSDOF 5
ENDMDL
MODEL 6
REMARK VINA RESULT:      -8.4      3.657      4.274
REMARK  5 active torsions:
REMARK  status: ('A' for Active; 'I' for Inactive)
REMARK    1  A    between atoms: C5_6  and  C6_7 
REMARK    2  A    between atoms: C6_7  and  C7_8 
REMARK    3  A    between atoms: C10_11  and  C11_12 
REMARK    4  A    between atoms: C14_17  and  N3_18 
REMARK    5  A    between atoms: N3_18  and  S1_19 
ROOT
HETATM    1  C7  UNL     1      24.749   0.162  53.397  1.00  0.00    -0.032 A 
HETATM    2  C8  UNL     1      25.360   0.995  52.444  1.00  0.00     0.010 A 
HETATM    3  C9  UNL     1      24.627   1.645  51.445  1.00  0.00     0.012 A 
HETATM    4  C10 UNL     1      23.255   1.488  51.361  1.00  0.00    -0.032 A 
HETATM    5  C19 UNL     1      22.674   0.679  52.290  1.00  0.00     0.035 A 
HETATM    6  C20 UNL     1      23.393   0.043  53.267  1.00  0.00     0.041 A 
HETATM    7 CL1  UNL     1      22.560  -0.984  54.405  1.00  0.00    -0.084 Cl
ENDROOT
BRANCH   4   8
HETATM    8  C11 UNL     1      22.606   2.202  50.271  1.00  0.00     0.047 C 
HETATM    9  C12 UNL     1      22.238   3.436  50.594  1.00  0.00     0.107 A 
HETATM   10  N1  UNL     1      22.366   4.173  51.799  1.00  0.00    -0.238 NA
HETATM   11  C14 UNL     1      21.561   4.371  49.711  1.00  0.00     0.186 A 
HETATM   12  C13 UNL     1      21.859   5.326  51.641  1.00  0.00     0.236 A 
HETATM   13  N2  UNL     1      21.336   5.488  50.326  1.00  0.00    -0.220 NA
BRANCH  11  14
HETATM   14  N3  UNL     1      21.120   4.224  48.342  1.00  0.00    -0.205 NA
BRANCH  14  15
HETATM   15  S1  UNL     1      22.116   4.544  47.088  1.00  0.00    -0.100 SA
HETATM   16  C15 UNL     1      21.841   3.789  45.449  1.00  0.00     0.087 C 
HETATM   17  C16 UNL     1      21.327   5.061  44.763  1.00  0.00     0.012 C 
HETATM   18  C17 UNL     1      22.281   6.166  45.097  1.00  0.00     0.012 C 
HETATM   19  C18 UNL     1      22.416   6.276  46.585  1.00  0.00     0.087 C 
ENDBRANCH  14  15
ENDBRANCH  11  14
ENDBRANCH   4   8
BRANCH   1  20
HETATM   20  C6  UNL     1      25.639  -0.465  54.403  1.00  0.00     0.078 C 
BRANCH  20  21
HETATM   21  C5  UNL     1      27.076  -0.350  54.090  1.00  0.00    -0.051 A 
HETATM   22  C4  UNL     1      27.842  -1.235  53.365  1.00  0.00     0.007 A 
HETATM   23  C3  UNL     1      29.188  -1.056  53.132  1.00  0.00     0.004 A 
HETATM   24  C2  UNL     1      29.771   0.080  53.668  1.00  0.00     0.042 A 
HETATM   25  C1  UNL     1      29.040   0.973  54.387  1.00  0.00     0.116 A 
HETATM   26  F1  UNL     1      29.735   2.055  54.862  1.00  0.00    -0.206 F 
HETATM   27  C21 UNL     1      27.705   0.776  54.607  1.00  0.00     0.049 A 
ENDBRANCH  20  21
ENDBRANCH   1  20
TORSDOF 5
ENDMDL
MODEL 7
REMARK VINA RESULT:      -8.4      4.491      5.953
REMARK  5 active torsions:
REMARK  status: ('A' for Active; 'I' for Inactive)
REMARK    1  A    between atoms: C5_6  and  C6_7 
REMARK    2  A    between atoms: C6_7  and  C7_8 
REMARK    3  A    between atoms: C10_11  and  C11_12 
REMARK    4  A    between atoms: C14_17  and  N3_18 
REMARK    5  A    between atoms: N3_18  and  S1_19 
ROOT
HETATM    1  C7  UNL     1      26.168   2.463  52.366  1.00  0.00    -0.032 A 
HETATM    2  C8  UNL     1      25.275   2.442  53.450  1.00  0.00     0.010 A 
HETATM    3  C9  UNL     1      23.918   2.749  53.303  1.00  0.00     0.012 A 
HETATM    4  C10 UNL     1      23.402   3.088  52.064  1.00  0.00    -0.032 A 
HETATM    5  C19 UNL     1      24.276   3.103  51.021  1.00  0.00     0.035 A 
HETATM    6  C20 UNL     1      25.604   2.804  51.168  1.00  0.00     0.041 A 
HETATM    7 CL1  UNL     1      26.649   2.864  49.771  1.00  0.00    -0.084 Cl
ENDROOT
BRANCH   4   8
HETATM    8  C11 UNL     1      21.979   3.401  52.041  1.00  0.00     0.047 C 
HETATM    9  C12 UNL     1      21.203   2.324  52.064  1.00  0.00     0.107 A 
HETATM   10  N1  UNL     1      21.509   0.941  52.109  1.00  0.00    -0.238 NA
HETATM   11  C14 UNL     1      19.749   2.335  52.037  1.00  0.00     0.186 A 
HETATM   12  C13 UNL     1      20.430   0.272  52.111  1.00  0.00     0.236 A 
HETATM   13  N2  UNL     1      19.291   1.125  52.065  1.00  0.00    -0.220 NA
BRANCH  11  14
HETATM   14  N3  UNL     1      18.816   3.437  51.969  1.00  0.00    -0.205 NA
BRANCH  14  15
HETATM   15  S1  UNL     1      18.429   4.139  50.546  1.00  0.00    -0.100 SA
HETATM   16  C15 UNL     1      19.475   5.448  49.824  1.00  0.00     0.087 C 
HETATM   17  C16 UNL     1      20.073   4.587  48.705  1.00  0.00     0.012 C 
HETATM   18  C17 UNL     1      18.941   3.869  48.038  1.00  0.00     0.012 C 
HETATM   19  C18 UNL     1      18.164   3.101  49.064  1.00  0.00     0.087 C 
ENDBRANCH  14  15
ENDBRANCH  11  14
ENDBRANCH   4   8
BRANCH   1  20
HETATM   20  C6  UNL     1      27.579   2.115  52.657  1.00  0.00     0.078 C 
BRANCH  20  21
HETATM   21  C5  UNL     1      27.825   0.667  52.798  1.00  0.00    -0.051 A 
HETATM   22  C4  UNL     1      26.979  -0.358  52.440  1.00  0.00     0.007 A 
HETATM   23  C3  UNL     1      27.284  -1.689  52.622  1.00  0.00     0.004 A 
HETATM   24  C2  UNL     1      28.510  -1.978  53.197  1.00  0.00     0.042 A 
HETATM   25  C1  UNL     1      29.367  -0.987  53.560  1.00  0.00     0.116 A 
HETATM   26  F1  UNL     1      30.548  -1.405  54.118  1.00  0.00    -0.206 F 
HETATM   27  C21 UNL     1      29.045   0.328  53.370  1.00  0.00     0.049 A 
ENDBRANCH  20  21
ENDBRANCH   1  20
TORSDOF 5
ENDMDL
MODEL 8
REMARK VINA RESULT:      -8.4      5.724      7.565
REMARK  5 active torsions:
REMARK  status: ('A' for Active; 'I' for Inactive)
REMARK    1  A    between atoms: C5_6  and  C6_7 
REMARK    2  A    between atoms: C6_7  and  C7_8 
REMARK    3  A    between atoms: C10_11  and  C11_12 
REMARK    4  A    between atoms: C14_17  and  N3_18 
REMARK    5  A    between atoms: N3_18  and  S1_19 
ROOT
HETATM    1  C7  UNL     1      24.741   0.622  53.361  1.00  0.00    -0.032 A 
HETATM    2  C8  UNL     1      24.515   1.393  52.208  1.00  0.00     0.010 A 
HETATM    3  C9  UNL     1      23.283   1.401  51.546  1.00  0.00     0.012 A 
HETATM    4  C10 UNL     1      22.227   0.638  52.014  1.00  0.00    -0.032 A 
HETATM    5  C19 UNL     1      22.456  -0.104  53.133  1.00  0.00     0.035 A 
HETATM    6  C20 UNL     1      23.664  -0.110  53.777  1.00  0.00     0.041 A 
HETATM    7 CL1  UNL     1      23.865  -1.105  55.197  1.00  0.00    -0.084 Cl
ENDROOT
BRANCH   4   8
HETATM    8  C11 UNL     1      21.000   0.717  51.233  1.00  0.00     0.047 C 
HETATM    9  C12 UNL     1      19.951   0.179  51.843  1.00  0.00     0.107 A 
HETATM   10  N1  UNL     1      19.815  -0.449  53.108  1.00  0.00    -0.238 NA
HETATM   11  C14 UNL     1      18.606   0.105  51.297  1.00  0.00     0.186 A 
HETATM   12  C13 UNL     1      18.610  -0.817  53.265  1.00  0.00     0.236 A 
HETATM   13  N2  UNL     1      17.813  -0.482  52.134  1.00  0.00    -0.220 NA
BRANCH  11  14
HETATM   14  N3  UNL     1      18.079   0.551  50.027  1.00  0.00    -0.205 NA
BRANCH  14  15
HETATM   15  S1  UNL     1      17.142   1.883  49.913  1.00  0.00    -0.100 SA
HETATM   16  C15 UNL     1      15.485   1.939  50.676  1.00  0.00     0.087 C 
HETATM   17  C16 UNL     1      15.864   2.872  51.833  1.00  0.00     0.012 C 
HETATM   18  C17 UNL     1      16.626   4.021  51.249  1.00  0.00     0.012 C 
HETATM   19  C18 UNL     1      17.791   3.501  50.464  1.00  0.00     0.087 C 
ENDBRANCH  14  15
ENDBRANCH  11  14
ENDBRANCH   4   8
BRANCH   1  20
HETATM   20  C6  UNL     1      26.091   0.706  53.966  1.00  0.00     0.078 C 
BRANCH  20  21
HETATM   21  C5  UNL     1      27.002  -0.380  53.557  1.00  0.00    -0.051 A 
HETATM   22  C4  UNL     1      26.670  -1.531  52.879  1.00  0.00     0.007 A 
HETATM   23  C3  UNL     1      27.586  -2.505  52.549  1.00  0.00     0.004 A 
HETATM   24  C2  UNL     1      28.899  -2.286  52.932  1.00  0.00     0.042 A 
HETATM   25  C1  UNL     1      29.257  -1.158  53.602  1.00  0.00     0.116 A 
HETATM   26  F1  UNL     1      30.587  -1.062  53.924  1.00  0.00    -0.206 F 
HETATM   27  C21 UNL     1      28.332  -0.204  53.920  1.00  0.00     0.049 A 
ENDBRANCH  20  21
ENDBRANCH   1  20
TORSDOF 5
ENDMDL
MODEL 9
REMARK VINA RESULT:      -8.4      2.648      3.999
REMARK  5 active torsions:
REMARK  status: ('A' for Active; 'I' for Inactive)
REMARK    1  A    between atoms: C5_6  and  C6_7 
REMARK    2  A    between atoms: C6_7  and  C7_8 
REMARK    3  A    between atoms: C10_11  and  C11_12 
REMARK    4  A    between atoms: C14_17  and  N3_18 
REMARK    5  A    between atoms: N3_18  and  S1_19 
ROOT
HETATM    1  C7  UNL     1      25.535   1.459  52.903  1.00  0.00    -0.032 A 
HETATM    2  C8  UNL     1      26.349   2.290  52.115  1.00  0.00     0.010 A 
HETATM    3  C9  UNL     1      25.845   3.013  51.029  1.00  0.00     0.012 A 
HETATM    4  C10 UNL     1      24.505   2.933  50.689  1.00  0.00    -0.032 A 
HETATM    5  C19 UNL     1      23.726   2.126  51.460  1.00  0.00     0.035 A 
HETATM    6  C20 UNL     1      24.223   1.418  52.522  1.00  0.00     0.041 A 
HETATM    7 CL1  UNL     1      23.146   0.399  53.443  1.00  0.00    -0.084 Cl
ENDROOT
BRANCH   4   8
HETATM    8  C11 UNL     1      24.103   3.719  49.531  1.00  0.00     0.047 C 
HETATM    9  C12 UNL     1      23.830   4.986  49.823  1.00  0.00     0.107 A 
HETATM   10  N1  UNL     1      23.864   5.700  51.047  1.00  0.00    -0.238 NA
HETATM   11  C14 UNL     1      23.395   5.994  48.870  1.00  0.00     0.186 A 
HETATM   12  C13 UNL     1      23.514   6.902  50.841  1.00  0.00     0.236 A 
HETATM   13  N2  UNL     1      23.208   7.126  49.469  1.00  0.00    -0.220 NA
BRANCH  11  14
HETATM   14  N3  UNL     1      23.142   5.901  47.450  1.00  0.00    -0.205 NA
BRANCH  14  15
HETATM   15  S1  UNL     1      21.824   5.135  46.867  1.00  0.00    -0.100 SA
HETATM   16  C15 UNL     1      21.875   3.363  46.435  1.00  0.00     0.087 C 
HETATM   17  C16 UNL     1      21.056   2.873  47.636  1.00  0.00     0.012 C 
HETATM   18  C17 UNL     1      19.840   3.742  47.731  1.00  0.00     0.012 C 
HETATM   19  C18 UNL     1      20.257   5.179  47.810  1.00  0.00     0.087 C 
ENDBRANCH  14  15
ENDBRANCH  11  14
ENDBRANCH   4   8
BRANCH   1  20
HETATM   20  C6  UNL     1      26.194   0.750  54.026  1.00  0.00     0.078 C 
BRANCH  20  21
HETATM   21  C5  UNL     1      27.060  -0.368  53.606  1.00  0.00    -0.051 A 
HETATM   22  C4  UNL     1      26.678  -1.506  52.931  1.00  0.00     0.007 A 
HETATM   23  C3  UNL     1      27.554  -2.513  52.591  1.00  0.00     0.004 A 
HETATM   24  C2  UNL     1      28.878  -2.343  52.959  1.00  0.00     0.042 A 
HETATM   25  C1  UNL     1      29.285  -1.230  53.626  1.00  0.00     0.116 A 
HETATM   26  F1  UNL     1      30.620  -1.184  53.933  1.00  0.00    -0.206 F 
HETATM   27  C21 UNL     1      28.399  -0.242  53.954  1.00  0.00     0.049 A 
ENDBRANCH  20  21
ENDBRANCH   1  20
TORSDOF 5
ENDMDL
