MODEL 1
REMARK VINA RESULT:      -8.2      0.000      0.000
REMARK  3 active torsions:
REMARK  status: ('A' for Active; 'I' for Inactive)
REMARK    1  A    between atoms: N1_1  and  C1_2 
REMARK    2  A    between atoms: N2_6  and  C4_7 
REMARK    3  A    between atoms: N5_14  and  C9_15 
ROOT
HETATM    1  C4  UNL     1      25.045  -0.742  53.816  1.00  0.00     0.155 C 
HETATM    2  C5  UNL     1      24.412   0.227  52.853  1.00  0.00     0.023 C 
HETATM    3  C6  UNL     1      23.135   0.623  52.565  1.00  0.00     0.111 C 
HETATM    4  N3  UNL     1      21.952   0.036  53.110  1.00  0.00    -0.273 N 
HETATM    5  C7  UNL     1      21.570  -1.397  53.509  1.00  0.00     0.232 C 
HETATM    6  C8  UNL     1      21.804  -0.838  54.923  1.00  0.00     0.167 C 
HETATM    7  N4  UNL     1      20.676  -0.066  54.926  1.00  0.00    -0.134 NA
HETATM    8  N5  UNL     1      20.734   0.627  53.607  1.00  0.00    -0.170 N 
HETATM    9  N6  UNL     1      23.080  -1.268  55.557  1.00  0.00    -0.244 NA
HETATM   10  C15 UNL     1      24.332  -0.917  55.122  1.00  0.00     0.121 C 
ENDROOT
BRANCH   1  11
HETATM   11  N2  UNL     1      26.402  -0.382  54.010  1.00  0.00    -0.333 N 
HETATM   12  C3  UNL     1      27.194  -1.228  53.143  1.00  0.00     0.119 C 
HETATM   13  C2  UNL     1      28.515  -1.250  53.203  1.00  0.00     0.039 C 
HETATM   14 CL1  UNL     1      26.827  -2.378  51.878  1.00  0.00    -0.063 Cl
HETATM   15  C1  UNL     1      29.161  -0.291  53.802  1.00  0.00     0.021 C 
HETATM   16  C17 UNL     1      28.448   0.603  54.704  1.00  0.00     0.041 C 
HETATM   17  C16 UNL     1      27.130   0.550  54.795  1.00  0.00     0.095 C 
BRANCH  15  18
HETATM   18  N1  UNL     1      30.552  -0.113  53.580  1.00  0.00    -0.302 NA
HETATM   19  H1  UNL     1      31.108  -0.485  54.404  1.00  0.00     0.124 HD
HETATM   20  H2  UNL     1      31.408  -0.352  54.161  1.00  0.00     0.124 HD
ENDBRANCH  15  18
ENDBRANCH   1  11
BRANCH   8  21
HETATM   21  C9  UNL     1      20.262   1.613  52.662  1.00  0.00     0.077 A 
HETATM   22  C10 UNL     1      20.380   2.956  52.470  1.00  0.00     0.033 A 
HETATM   23  C11 UNL     1      19.702   3.460  51.401  1.00  0.00     0.002 A 
HETATM   24  C12 UNL     1      18.926   2.755  50.517  1.00  0.00     0.000 A 
HETATM   25  C13 UNL     1      18.799   1.375  50.706  1.00  0.00     0.002 A 
HETATM   26  C14 UNL     1      19.484   0.816  51.799  1.00  0.00     0.033 A 
ENDBRANCH   8  21
TORSDOF 3
ENDMDL
MODEL 2
REMARK VINA RESULT:      -8.1      2.968      7.839
REMARK  3 active torsions:
REMARK  status: ('A' for Active; 'I' for Inactive)
REMARK    1  A    between atoms: N1_1  and  C1_2 
REMARK    2  A    between atoms: N2_6  and  C4_7 
REMARK    3  A    between atoms: N5_14  and  C9_15 
ROOT
HETATM    1  C4  UNL     1      21.055   0.385  52.186  1.00  0.00     0.155 C 
HETATM    2  C5  UNL     1      22.303  -0.283  52.700  1.00  0.00     0.023 C 
HETATM    3  C6  UNL     1      23.596   0.103  52.923  1.00  0.00     0.111 C 
HETATM    4  N3  UNL     1      24.148   1.368  52.554  1.00  0.00    -0.273 N 
HETATM    5  C7  UNL     1      23.918   2.317  51.370  1.00  0.00     0.232 C 
HETATM    6  C8  UNL     1      23.125   3.103  52.428  1.00  0.00     0.167 C 
HETATM    7  N4  UNL     1      24.235   3.516  53.114  1.00  0.00    -0.134 NA
HETATM    8  N5  UNL     1      25.033   2.264  53.256  1.00  0.00    -0.170 N 
HETATM    9  N6  UNL     1      21.647   2.993  52.306  1.00  0.00    -0.244 NA
HETATM   10  C15 UNL     1      20.924   1.844  52.499  1.00  0.00     0.121 C 
ENDROOT
BRANCH   1  11
HETATM   11  N2  UNL     1      19.924  -0.345  52.629  1.00  0.00    -0.333 N 
HETATM   12  C3  UNL     1      18.850  -0.071  51.699  1.00  0.00     0.119 C 
HETATM   13  C2  UNL     1      17.611  -0.478  51.920  1.00  0.00     0.039 C 
HETATM   14 CL1  UNL     1      18.734   0.762  50.165  1.00  0.00    -0.063 Cl
HETATM   15  C1  UNL     1      17.373  -1.405  52.802  1.00  0.00     0.021 C 
HETATM   16  C17 UNL     1      18.391  -1.740  53.788  1.00  0.00     0.041 C 
HETATM   17  C16 UNL     1      19.606  -1.227  53.695  1.00  0.00     0.095 C 
BRANCH  15  18
HETATM   18  N1  UNL     1      16.128  -2.090  52.807  1.00  0.00    -0.302 NA
HETATM   19  H1  UNL     1      15.341  -1.424  53.055  1.00  0.00     0.124 HD
HETATM   20  H2  UNL     1      15.134  -1.772  53.004  1.00  0.00     0.124 HD
ENDBRANCH  15  18
ENDBRANCH   1  11
BRANCH   8  21
HETATM   21  C9  UNL     1      26.142   1.514  53.797  1.00  0.00     0.077 A 
HETATM   22  C10 UNL     1      26.327   0.478  54.661  1.00  0.00     0.033 A 
HETATM   23  C11 UNL     1      27.623   0.121  54.884  1.00  0.00     0.002 A 
HETATM   24  C12 UNL     1      28.738   0.696  54.331  1.00  0.00     0.000 A 
HETATM   25  C13 UNL     1      28.558   1.761  53.442  1.00  0.00     0.002 A 
HETATM   26  C14 UNL     1      27.235   2.160  53.185  1.00  0.00     0.033 A 
ENDBRANCH   8  21
TORSDOF 3
ENDMDL
MODEL 3
REMARK VINA RESULT:      -7.9      5.416      7.590
REMARK  3 active torsions:
REMARK  status: ('A' for Active; 'I' for Inactive)
REMARK    1  A    between atoms: N1_1  and  C1_2 
REMARK    2  A    between atoms: N2_6  and  C4_7 
REMARK    3  A    between atoms: N5_14  and  C9_15 
ROOT
HETATM    1  C4  UNL     1      22.630   2.536  51.615  1.00  0.00     0.155 C 
HETATM    2  C5  UNL     1      23.925   2.472  50.849  1.00  0.00     0.023 C 
HETATM    3  C6  UNL     1      24.701   3.368  50.168  1.00  0.00     0.111 C 
HETATM    4  N3  UNL     1      24.340   4.724  49.897  1.00  0.00    -0.273 N 
HETATM    5  C7  UNL     1      23.009   5.423  49.587  1.00  0.00     0.232 C 
HETATM    6  C8  UNL     1      23.148   5.874  51.050  1.00  0.00     0.167 C 
HETATM    7  N4  UNL     1      24.171   6.747  50.800  1.00  0.00    -0.134 NA
HETATM    8  N5  UNL     1      25.105   5.945  49.958  1.00  0.00    -0.170 N 
HETATM    9  N6  UNL     1      22.263   5.158  52.008  1.00  0.00    -0.244 NA
HETATM   10  C15 UNL     1      22.358   3.827  52.324  1.00  0.00     0.121 C 
ENDROOT
BRANCH   1  11
HETATM   11  N2  UNL     1      22.563   1.433  52.503  1.00  0.00    -0.333 N 
HETATM   12  C3  UNL     1      21.169   1.242  52.840  1.00  0.00     0.119 C 
HETATM   13  C2  UNL     1      20.785   0.388  53.775  1.00  0.00     0.039 C 
HETATM   14 CL1  UNL     1      19.662   1.924  52.271  1.00  0.00    -0.063 Cl
HETATM   15  C1  UNL     1      21.600  -0.536  54.194  1.00  0.00     0.021 C 
HETATM   16  C17 UNL     1      23.025  -0.421  53.914  1.00  0.00     0.041 C 
HETATM   17  C16 UNL     1      23.473   0.524  53.104  1.00  0.00     0.095 C 
BRANCH  15  18
HETATM   18  N1  UNL     1      21.108  -1.653  54.921  1.00  0.00    -0.302 NA
HETATM   19  H1  UNL     1      20.063  -1.760  54.773  1.00  0.00     0.124 HD
HETATM   20  H2  UNL     1      20.139  -2.073  55.023  1.00  0.00     0.124 HD
ENDBRANCH  15  18
ENDBRANCH   1  11
BRANCH   8  21
HETATM   21  C9  UNL     1      26.369   5.751  49.285  1.00  0.00     0.077 A 
HETATM   22  C10 UNL     1      27.200   4.714  48.990  1.00  0.00     0.033 A 
HETATM   23  C11 UNL     1      28.343   5.046  48.327  1.00  0.00     0.002 A 
HETATM   24  C12 UNL     1      28.729   6.303  47.937  1.00  0.00     0.000 A 
HETATM   25  C13 UNL     1      27.881   7.375  48.236  1.00  0.00     0.002 A 
HETATM   26  C14 UNL     1      26.691   7.074  48.919  1.00  0.00     0.033 A 
ENDBRANCH   8  21
TORSDOF 3
ENDMDL
MODEL 4
REMARK VINA RESULT:      -7.7      3.948      6.942
REMARK  3 active torsions:
REMARK  status: ('A' for Active; 'I' for Inactive)
REMARK    1  A    between atoms: N1_1  and  C1_2 
REMARK    2  A    between atoms: N2_6  and  C4_7 
REMARK    3  A    between atoms: N5_14  and  C9_15 
ROOT
HETATM    1  C4  UNL     1      22.595   0.965  53.170  1.00  0.00     0.155 C 
HETATM    2  C5  UNL     1      22.609   2.266  52.410  1.00  0.00     0.023 C 
HETATM    3  C6  UNL     1      23.572   3.051  51.838  1.00  0.00     0.111 C 
HETATM    4  N3  UNL     1      24.980   2.838  51.956  1.00  0.00    -0.273 N 
HETATM    5  C7  UNL     1      25.879   2.307  53.082  1.00  0.00     0.232 C 
HETATM    6  C8  UNL     1      25.879   1.047  52.200  1.00  0.00     0.167 C 
HETATM    7  N4  UNL     1      26.669   1.593  51.226  1.00  0.00    -0.134 NA
HETATM    8  N5  UNL     1      26.042   2.925  50.985  1.00  0.00    -0.170 N 
HETATM    9  N6  UNL     1      25.022  -0.061  52.700  1.00  0.00    -0.244 NA
HETATM   10  C15 UNL     1      23.654  -0.022  52.786  1.00  0.00     0.121 C 
ENDROOT
BRANCH   1  11
HETATM   11  N2  UNL     1      21.299   0.395  53.085  1.00  0.00    -0.333 N 
HETATM   12  C3  UNL     1      21.242  -0.675  54.057  1.00  0.00     0.119 C 
HETATM   13  C2  UNL     1      20.217  -1.510  54.120  1.00  0.00     0.039 C 
HETATM   14 CL1  UNL     1      22.298  -1.234  55.334  1.00  0.00    -0.063 Cl
HETATM   15  C1  UNL     1      19.091  -1.211  53.540  1.00  0.00     0.021 C 
HETATM   16  C17 UNL     1      19.055  -0.155  52.537  1.00  0.00     0.041 C 
HETATM   17  C16 UNL     1      20.117   0.606  52.329  1.00  0.00     0.095 C 
BRANCH  15  18
HETATM   18  N1  UNL     1      17.901  -1.906  53.880  1.00  0.00    -0.302 NA
HETATM   19  H1  UNL     1      18.132  -2.855  54.295  1.00  0.00     0.124 HD
HETATM   20  H2  UNL     1      17.724  -2.861  54.309  1.00  0.00     0.124 HD
ENDBRANCH  15  18
ENDBRANCH   1  11
BRANCH   8  21
HETATM   21  C9  UNL     1      25.910   4.156  50.241  1.00  0.00     0.077 A 
HETATM   22  C10 UNL     1      25.004   5.166  50.124  1.00  0.00     0.033 A 
HETATM   23  C11 UNL     1      25.327   6.146  49.235  1.00  0.00     0.002 A 
HETATM   24  C12 UNL     1      26.457   6.211  48.461  1.00  0.00     0.000 A 
HETATM   25  C13 UNL     1      27.393   5.178  48.574  1.00  0.00     0.002 A 
HETATM   26  C14 UNL     1      27.098   4.146  49.482  1.00  0.00     0.033 A 
ENDBRANCH   8  21
TORSDOF 3
ENDMDL
MODEL 5
REMARK VINA RESULT:      -7.7      3.824      4.626
REMARK  3 active torsions:
REMARK  status: ('A' for Active; 'I' for Inactive)
REMARK    1  A    between atoms: N1_1  and  C1_2 
REMARK    2  A    between atoms: N2_6  and  C4_7 
REMARK    3  A    between atoms: N5_14  and  C9_15 
ROOT
HETATM    1  C4  UNL     1      26.097   1.316  52.068  1.00  0.00     0.155 C 
HETATM    2  C5  UNL     1      26.343   2.476  51.139  1.00  0.00     0.023 C 
HETATM    3  C6  UNL     1      25.572   3.452  50.572  1.00  0.00     0.111 C 
HETATM    4  N3  UNL     1      24.147   3.523  50.655  1.00  0.00    -0.273 N 
HETATM    5  C7  UNL     1      23.036   2.465  50.688  1.00  0.00     0.232 C 
HETATM    6  C8  UNL     1      23.026   2.828  52.182  1.00  0.00     0.167 C 
HETATM    7  N4  UNL     1      22.457   4.057  51.994  1.00  0.00    -0.134 NA
HETATM    8  N5  UNL     1      23.259   4.637  50.878  1.00  0.00    -0.170 N 
HETATM    9  N6  UNL     1      23.667   1.822  53.071  1.00  0.00    -0.244 NA
HETATM   10  C15 UNL     1      25.003   1.510  53.072  1.00  0.00     0.121 C 
ENDROOT
BRANCH   1  11
HETATM   11  N2  UNL     1      27.318   0.958  52.693  1.00  0.00    -0.333 N 
HETATM   12  C3  UNL     1      27.381  -0.488  52.706  1.00  0.00     0.119 C 
HETATM   13  C2  UNL     1      28.325  -1.142  53.363  1.00  0.00     0.039 C 
HETATM   14 CL1  UNL     1      26.421  -1.767  51.998  1.00  0.00    -0.063 Cl
HETATM   15  C1  UNL     1      29.405  -0.525  53.746  1.00  0.00     0.021 C 
HETATM   16  C17 UNL     1      29.430   0.931  53.779  1.00  0.00     0.041 C 
HETATM   17  C16 UNL     1      28.427   1.629  53.273  1.00  0.00     0.095 C 
BRANCH  15  18
HETATM   18  N1  UNL     1      30.556  -1.262  54.131  1.00  0.00    -0.302 NA
HETATM   19  H1  UNL     1      30.955  -1.787  53.300  1.00  0.00     0.124 HD
HETATM   20  H2  UNL     1      31.216  -1.896  53.593  1.00  0.00     0.124 HD
ENDBRANCH  15  18
ENDBRANCH   1  11
BRANCH   8  21
HETATM   21  C9  UNL     1      23.639   5.731  50.016  1.00  0.00     0.077 A 
HETATM   22  C10 UNL     1      23.873   5.929  48.689  1.00  0.00     0.033 A 
HETATM   23  C11 UNL     1      24.245   7.192  48.338  1.00  0.00     0.002 A 
HETATM   24  C12 UNL     1      24.403   8.263  49.180  1.00  0.00     0.000 A 
HETATM   25  C13 UNL     1      24.164   8.070  50.544  1.00  0.00     0.002 A 
HETATM   26  C14 UNL     1      23.778   6.780  50.947  1.00  0.00     0.033 A 
ENDBRANCH   8  21
TORSDOF 3
ENDMDL
MODEL 6
REMARK VINA RESULT:      -7.6      2.209      3.296
REMARK  3 active torsions:
REMARK  status: ('A' for Active; 'I' for Inactive)
REMARK    1  A    between atoms: N1_1  and  C1_2 
REMARK    2  A    between atoms: N2_6  and  C4_7 
REMARK    3  A    between atoms: N5_14  and  C9_15 
ROOT
HETATM    1  C4  UNL     1      25.721   0.954  52.893  1.00  0.00     0.155 C 
HETATM    2  C5  UNL     1      24.443   0.253  53.275  1.00  0.00     0.023 C 
HETATM    3  C6  UNL     1      23.114   0.439  53.018  1.00  0.00     0.111 C 
HETATM    4  N3  UNL     1      22.561   1.565  52.333  1.00  0.00    -0.273 N 
HETATM    5  C7  UNL     1      22.927   3.055  52.281  1.00  0.00     0.232 C 
HETATM    6  C8  UNL     1      23.499   2.650  50.912  1.00  0.00     0.167 C 
HETATM    7  N4  UNL     1      22.275   2.477  50.327  1.00  0.00    -0.134 NA
HETATM    8  N5  UNL     1      21.531   1.660  51.329  1.00  0.00    -0.170 N 
HETATM    9  N6  UNL     1      24.982   2.540  50.866  1.00  0.00    -0.244 NA
HETATM   10  C15 UNL     1      25.724   1.607  51.545  1.00  0.00     0.121 C 
ENDROOT
BRANCH   1  11
HETATM   11  N2  UNL     1      26.804   0.050  53.034  1.00  0.00    -0.333 N 
HETATM   12  C3  UNL     1      27.957   0.829  53.432  1.00  0.00     0.119 C 
HETATM   13  C2  UNL     1      29.170   0.302  53.494  1.00  0.00     0.039 C 
HETATM   14 CL1  UNL     1      28.213   2.491  53.912  1.00  0.00    -0.063 Cl
HETATM   15  C1  UNL     1      29.323  -0.990  53.519  1.00  0.00     0.021 C 
HETATM   16  C17 UNL     1      28.220  -1.854  53.121  1.00  0.00     0.041 C 
HETATM   17  C16 UNL     1      27.021  -1.345  52.892  1.00  0.00     0.095 C 
BRANCH  15  18
HETATM   18  N1  UNL     1      30.557  -1.559  53.929  1.00  0.00    -0.302 NA
HETATM   19  H1  UNL     1      31.213  -1.659  53.101  1.00  0.00     0.124 HD
HETATM   20  H2  UNL     1      31.444  -1.809  53.401  1.00  0.00     0.124 HD
ENDBRANCH  15  18
ENDBRANCH   1  11
BRANCH   8  21
HETATM   21  C9  UNL     1      20.390   0.874  51.739  1.00  0.00     0.077 A 
HETATM   22  C10 UNL     1      20.007   0.155  52.830  1.00  0.00     0.033 A 
HETATM   23  C11 UNL     1      18.793  -0.457  52.736  1.00  0.00     0.002 A 
HETATM   24  C12 UNL     1      17.936  -0.416  51.665  1.00  0.00     0.000 A 
HETATM   25  C13 UNL     1      18.321   0.321  50.541  1.00  0.00     0.002 A 
HETATM   26  C14 UNL     1      19.568   0.967  50.598  1.00  0.00     0.033 A 
ENDBRANCH   8  21
TORSDOF 3
ENDMDL
MODEL 7
REMARK VINA RESULT:      -7.3      5.148      7.087
REMARK  3 active torsions:
REMARK  status: ('A' for Active; 'I' for Inactive)
REMARK    1  A    between atoms: N1_1  and  C1_2 
REMARK    2  A    between atoms: N2_6  and  C4_7 
REMARK    3  A    between atoms: N5_14  and  C9_15 
ROOT
HETATM    1  C4  UNL     1      22.867   4.965  49.950  1.00  0.00     0.155 C 
HETATM    2  C5  UNL     1      22.701   4.385  51.330  1.00  0.00     0.023 C 
HETATM    3  C6  UNL     1      22.141   3.251  51.851  1.00  0.00     0.111 C 
HETATM    4  N3  UNL     1      21.383   2.295  51.107  1.00  0.00    -0.273 N 
HETATM    5  C7  UNL     1      20.408   2.406  49.926  1.00  0.00     0.232 C 
HETATM    6  C8  UNL     1      21.624   1.875  49.148  1.00  0.00     0.167 C 
HETATM    7  N4  UNL     1      21.545   0.612  49.666  1.00  0.00    -0.134 NA
HETATM    8  N5  UNL     1      21.382   0.853  51.128  1.00  0.00    -0.170 N 
HETATM    9  N6  UNL     1      22.335   2.898  48.334  1.00  0.00    -0.244 NA
HETATM   10  C15 UNL     1      23.024   3.969  48.843  1.00  0.00     0.121 C 
ENDROOT
BRANCH   1  11
HETATM   11  N2  UNL     1      23.936   5.896  49.966  1.00  0.00    -0.333 N 
HETATM   12  C3  UNL     1      23.362   7.196  50.239  1.00  0.00     0.119 C 
HETATM   13  C2  UNL     1      24.077   8.307  50.165  1.00  0.00     0.039 C 
HETATM   14 CL1  UNL     1      21.774   7.768  50.699  1.00  0.00    -0.063 Cl
HETATM   15  C1  UNL     1      25.377   8.251  50.164  1.00  0.00     0.021 C 
HETATM   16  C17 UNL     1      26.044   6.986  49.885  1.00  0.00     0.041 C 
HETATM   17  C16 UNL     1      25.344   5.867  49.793  1.00  0.00     0.095 C 
BRANCH  15  18
HETATM   18  N1  UNL     1      26.147   9.413  50.433  1.00  0.00    -0.302 NA
HETATM   19  H1  UNL     1      27.157   9.152  50.626  1.00  0.00     0.124 HD
HETATM   20  H2  UNL     1      27.173   9.558  50.665  1.00  0.00     0.124 HD
ENDBRANCH  15  18
ENDBRANCH   1  11
BRANCH   8  21
HETATM   21  C9  UNL     1      21.322   0.396  52.497  1.00  0.00     0.077 A 
HETATM   22  C10 UNL     1      20.457   0.476  53.545  1.00  0.00     0.033 A 
HETATM   23  C11 UNL     1      20.869  -0.124  54.697  1.00  0.00     0.002 A 
HETATM   24  C12 UNL     1      22.052  -0.789  54.896  1.00  0.00     0.000 A 
HETATM   25  C13 UNL     1      22.947  -0.877  53.825  1.00  0.00     0.002 A 
HETATM   26  C14 UNL     1      22.559  -0.270  52.619  1.00  0.00     0.033 A 
ENDBRANCH   8  21
TORSDOF 3
ENDMDL
MODEL 8
REMARK VINA RESULT:      -7.2      6.249      7.326
REMARK  3 active torsions:
REMARK  status: ('A' for Active; 'I' for Inactive)
REMARK    1  A    between atoms: N1_1  and  C1_2 
REMARK    2  A    between atoms: N2_6  and  C4_7 
REMARK    3  A    between atoms: N5_14  and  C9_15 
ROOT
HETATM    1  C4  UNL     1      24.904   3.057  51.103  1.00  0.00     0.155 C 
HETATM    2  C5  UNL     1      25.851   3.795  50.194  1.00  0.00     0.023 C 
HETATM    3  C6  UNL     1      25.891   5.040  49.630  1.00  0.00     0.111 C 
HETATM    4  N3  UNL     1      24.838   6.003  49.695  1.00  0.00    -0.273 N 
HETATM    5  C7  UNL     1      23.306   5.897  49.698  1.00  0.00     0.232 C 
HETATM    6  C8  UNL     1      23.501   6.180  51.197  1.00  0.00     0.167 C 
HETATM    7  N4  UNL     1      23.850   7.491  51.018  1.00  0.00    -0.134 NA
HETATM    8  N5  UNL     1      24.860   7.427  49.921  1.00  0.00    -0.170 N 
HETATM    9  N6  UNL     1      23.336   4.994  52.080  1.00  0.00    -0.244 NA
HETATM   10  C15 UNL     1      24.165   3.902  52.094  1.00  0.00     0.121 C 
ENDROOT
BRANCH   1  11
HETATM   11  N2  UNL     1      25.603   2.001  51.740  1.00  0.00    -0.333 N 
HETATM   12  C3  UNL     1      24.616   1.033  52.166  1.00  0.00     0.119 C 
HETATM   13  C2  UNL     1      24.931   0.002  52.933  1.00  0.00     0.039 C 
HETATM   14 CL1  UNL     1      22.897   0.835  51.908  1.00  0.00    -0.063 Cl
HETATM   15  C1  UNL     1      26.173  -0.362  53.064  1.00  0.00     0.021 C 
HETATM   16  C17 UNL     1      27.237   0.553  52.674  1.00  0.00     0.041 C 
HETATM   17  C16 UNL     1      26.953   1.679  52.042  1.00  0.00     0.095 C 
BRANCH  15  18
HETATM   18  N1  UNL     1      26.496  -1.643  53.585  1.00  0.00    -0.302 NA
HETATM   19  H1  UNL     1      27.423  -1.611  54.100  1.00  0.00     0.124 HD
HETATM   20  H2  UNL     1      27.322  -2.003  54.146  1.00  0.00     0.124 HD
ENDBRANCH  15  18
ENDBRANCH   1  11
BRANCH   8  21
HETATM   21  C9  UNL     1      25.867   8.029  49.079  1.00  0.00     0.077 A 
HETATM   22  C10 UNL     1      26.142   8.116  47.749  1.00  0.00     0.033 A 
HETATM   23  C11 UNL     1      27.271   8.806  47.424  1.00  0.00     0.002 A 
HETATM   24  C12 UNL     1      28.140   9.411  48.295  1.00  0.00     0.000 A 
HETATM   25  C13 UNL     1      27.866   9.328  49.664  1.00  0.00     0.002 A 
HETATM   26  C14 UNL     1      26.709   8.624  50.041  1.00  0.00     0.033 A 
ENDBRANCH   8  21
TORSDOF 3
ENDMDL
MODEL 9
REMARK VINA RESULT:      -7.2      6.912      8.984
REMARK  3 active torsions:
REMARK  status: ('A' for Active; 'I' for Inactive)
REMARK    1  A    between atoms: N1_1  and  C1_2 
REMARK    2  A    between atoms: N2_6  and  C4_7 
REMARK    3  A    between atoms: N5_14  and  C9_15 
ROOT
HETATM    1  C4  UNL     1      24.654   3.949  50.398  1.00  0.00     0.155 C 
HETATM    2  C5  UNL     1      25.985   3.742  49.725  1.00  0.00     0.023 C 
HETATM    3  C6  UNL     1      26.877   4.537  49.061  1.00  0.00     0.111 C 
HETATM    4  N3  UNL     1      26.654   5.905  48.711  1.00  0.00    -0.273 N 
HETATM    5  C7  UNL     1      25.411   6.697  48.284  1.00  0.00     0.232 C 
HETATM    6  C8  UNL     1      25.495   7.203  49.734  1.00  0.00     0.167 C 
HETATM    7  N4  UNL     1      26.604   7.974  49.518  1.00  0.00    -0.134 NA
HETATM    8  N5  UNL     1      27.516   7.059  48.774  1.00  0.00    -0.170 N 
HETATM    9  N6  UNL     1      24.492   6.609  50.658  1.00  0.00    -0.244 NA
HETATM   10  C15 UNL     1      24.450   5.291  51.033  1.00  0.00     0.121 C 
ENDROOT
BRANCH   1  11
HETATM   11  N2  UNL     1      24.435   2.898  51.324  1.00  0.00    -0.333 N 
HETATM   12  C3  UNL     1      23.340   2.103  50.812  1.00  0.00     0.119 C 
HETATM   13  C2  UNL     1      22.786   1.134  51.523  1.00  0.00     0.039 C 
HETATM   14 CL1  UNL     1      22.434   2.075  49.316  1.00  0.00    -0.063 Cl
HETATM   15  C1  UNL     1      23.403   0.648  52.561  1.00  0.00     0.021 C 
HETATM   16  C17 UNL     1      24.510   1.386  53.153  1.00  0.00     0.041 C 
HETATM   17  C16 UNL     1      24.994   2.460  52.553  1.00  0.00     0.095 C 
BRANCH  15  18
HETATM   18  N1  UNL     1      23.002  -0.596  53.117  1.00  0.00    -0.302 NA
HETATM   19  H1  UNL     1      22.751  -1.282  52.347  1.00  0.00     0.124 HD
HETATM   20  H2  UNL     1      22.685  -1.510  52.679  1.00  0.00     0.124 HD
ENDBRANCH  15  18
ENDBRANCH   1  11
BRANCH   8  21
HETATM   21  C9  UNL     1      28.799   6.729  48.198  1.00  0.00     0.077 A 
HETATM   22  C10 UNL     1      29.789   5.818  48.407  1.00  0.00     0.033 A 
HETATM   23  C11 UNL     1      30.868   5.920  47.581  1.00  0.00     0.002 A 
HETATM   24  C12 UNL     1      31.046   6.837  46.576  1.00  0.00     0.000 A 
HETATM   25  C13 UNL     1      30.034   7.776  46.353  1.00  0.00     0.002 A 
HETATM   26  C14 UNL     1      28.904   7.704  47.185  1.00  0.00     0.033 A 
ENDBRANCH   8  21
TORSDOF 3
ENDMDL
