MODEL 1
REMARK VINA RESULT:      -6.2      0.000      0.000
REMARK  8 active torsions:
REMARK  status: ('A' for Active; 'I' for Inactive)
REMARK    1  A    between atoms: O1_2  and  C2_3 
REMARK    2  A    between atoms: C2_3  and  C3_4 
REMARK    3  A    between atoms: C3_4  and  C4_5 
REMARK    4  A    between atoms: C3_4  and  N4_15 
REMARK    5  A    between atoms: C5_6  and  C6_7 
REMARK    6  A    between atoms: C6_7  and  N1_8 
REMARK    7  A    between atoms: N1_8  and  C7_9 
REMARK    8  A    between atoms: C15_20  and  O2_21 
ROOT
HETATM    1  C3  UNL     1      26.018   1.360  52.221  1.00  0.00     0.272 C 
ENDROOT
BRANCH   1   2
HETATM    2  C2  UNL     1      26.759   2.535  51.709  1.00  0.00     0.207 C 
BRANCH   2   3
HETATM    3  O1  UNL     1      26.933   2.668  50.370  1.00  0.00    -0.394 OA
HETATM    4  C1  UNL     1      26.479   3.877  49.854  1.00  0.00     0.201 C 
ENDBRANCH   2   3
ENDBRANCH   1   2
BRANCH   1   5
HETATM    5  C4  UNL     1      24.577   1.822  52.275  1.00  0.00     0.008 C 
HETATM    6  C5  UNL     1      23.761   1.489  51.280  1.00  0.00    -0.009 C 
BRANCH   6   7
HETATM    7  C6  UNL     1      22.342   1.870  51.207  1.00  0.00     0.148 C 
BRANCH   7   8
HETATM    8  N1  UNL     1      21.438   0.750  51.193  1.00  0.00    -0.371 N 
HETATM    9  H11 UNL     1      20.780   0.234  50.574  1.00  0.00     0.161 HD
BRANCH   8  10
HETATM   10  C7  UNL     1      21.457   0.136  52.493  1.00  0.00     0.126 A 
HETATM   11  C8  UNL     1      20.863   0.776  53.555  1.00  0.00     0.069 A 
HETATM   12  C9  UNL     1      20.863   0.212  54.823  1.00  0.00     0.122 A 
HETATM   13  N2  UNL     1      21.454  -0.983  55.024  1.00  0.00    -0.254 NA
HETATM   14  C10 UNL     1      22.028  -1.596  53.983  1.00  0.00     0.234 A 
HETATM   15  N3  UNL     1      22.037  -1.064  52.753  1.00  0.00    -0.225 NA
ENDBRANCH   8  10
ENDBRANCH   7   8
ENDBRANCH   6   7
ENDBRANCH   1   5
BRANCH   1  16
HETATM   16  N4  UNL     1      26.402   0.949  53.514  1.00  0.00     0.131 N 
HETATM   17  C11 UNL     1      27.767   0.940  53.879  1.00  0.00     0.281 C 
HETATM   18  C12 UNL     1      28.554  -0.266  53.427  1.00  0.00     0.057 C 
HETATM   19  C13 UNL     1      27.707  -1.321  52.803  1.00  0.00    -0.025 C 
HETATM   20  C14 UNL     1      26.389  -1.417  52.991  1.00  0.00     0.032 C 
HETATM   21  C15 UNL     1      25.857  -0.353  53.892  1.00  0.00     0.383 C 
BRANCH  21  22
HETATM   22  O2  UNL     1      26.155  -0.534  55.219  1.00  0.00    -0.359 OA
HETATM   23  C16 UNL     1      25.095  -0.969  55.989  1.00  0.00     0.204 C 
ENDBRANCH  21  22
ENDBRANCH   1  16
TORSDOF 8
ENDMDL
MODEL 2
REMARK VINA RESULT:      -6.2      2.524      6.649
REMARK  8 active torsions:
REMARK  status: ('A' for Active; 'I' for Inactive)
REMARK    1  A    between atoms: O1_2  and  C2_3 
REMARK    2  A    between atoms: C2_3  and  C3_4 
REMARK    3  A    between atoms: C3_4  and  C4_5 
REMARK    4  A    between atoms: C3_4  and  N4_15 
REMARK    5  A    between atoms: C5_6  and  C6_7 
REMARK    6  A    between atoms: C6_7  and  N1_8 
REMARK    7  A    between atoms: N1_8  and  C7_9 
REMARK    8  A    between atoms: C15_20  and  O2_21 
ROOT
HETATM    1  C3  UNL     1      22.179   0.484  52.331  1.00  0.00     0.272 C 
ENDROOT
BRANCH   1   2
HETATM    2  C2  UNL     1      22.442  -0.786  53.044  1.00  0.00     0.207 C 
BRANCH   2   3
HETATM    3  O1  UNL     1      23.284  -0.778  54.109  1.00  0.00    -0.394 OA
HETATM    4  C1  UNL     1      22.750  -1.343  55.262  1.00  0.00     0.201 C 
ENDBRANCH   2   3
ENDBRANCH   1   2
BRANCH   1   5
HETATM    5  C4  UNL     1      23.363   1.361  52.682  1.00  0.00     0.008 C 
HETATM    6  C5  UNL     1      24.226   1.683  51.723  1.00  0.00    -0.009 C 
BRANCH   6   7
HETATM    7  C6  UNL     1      25.415   2.525  51.926  1.00  0.00     0.148 C 
BRANCH   7   8
HETATM    8  N1  UNL     1      25.692   2.819  53.308  1.00  0.00    -0.371 N 
HETATM    9  H11 UNL     1      25.389   3.430  54.094  1.00  0.00     0.161 HD
BRANCH   8  10
HETATM   10  C7  UNL     1      26.763   1.966  53.747  1.00  0.00     0.126 A 
HETATM   11  C8  UNL     1      28.039   2.184  53.283  1.00  0.00     0.069 A 
HETATM   12  C9  UNL     1      29.095   1.379  53.685  1.00  0.00     0.122 A 
HETATM   13  N2  UNL     1      28.875   0.366  54.546  1.00  0.00    -0.254 NA
HETATM   14  C10 UNL     1      27.629   0.164  54.991  1.00  0.00     0.234 A 
HETATM   15  N3  UNL     1      26.598   0.931  54.611  1.00  0.00    -0.225 NA
ENDBRANCH   8  10
ENDBRANCH   7   8
ENDBRANCH   6   7
ENDBRANCH   1   5
BRANCH   1  16
HETATM   16  N4  UNL     1      21.001   1.145  52.738  1.00  0.00     0.131 N 
HETATM   17  C11 UNL     1      19.867   0.397  53.125  1.00  0.00     0.281 C 
HETATM   18  C12 UNL     1      19.009  -0.117  51.995  1.00  0.00     0.057 C 
HETATM   19  C13 UNL     1      19.427   0.393  50.659  1.00  0.00    -0.025 C 
HETATM   20  C14 UNL     1      20.171   1.487  50.486  1.00  0.00     0.032 C 
HETATM   21  C15 UNL     1      20.538   2.143  51.775  1.00  0.00     0.383 C 
BRANCH  21  22
HETATM   22  O2  UNL     1      19.510   2.822  52.378  1.00  0.00    -0.359 OA
HETATM   23  C16 UNL     1      18.875   3.739  51.563  1.00  0.00     0.204 C 
ENDBRANCH  21  22
ENDBRANCH   1  16
TORSDOF 8
ENDMDL
MODEL 3
REMARK VINA RESULT:      -6.1      3.644      7.014
REMARK  8 active torsions:
REMARK  status: ('A' for Active; 'I' for Inactive)
REMARK    1  A    between atoms: O1_2  and  C2_3 
REMARK    2  A    between atoms: C2_3  and  C3_4 
REMARK    3  A    between atoms: C3_4  and  C4_5 
REMARK    4  A    between atoms: C3_4  and  N4_15 
REMARK    5  A    between atoms: C5_6  and  C6_7 
REMARK    6  A    between atoms: C6_7  and  N1_8 
REMARK    7  A    between atoms: N1_8  and  C7_9 
REMARK    8  A    between atoms: C15_20  and  O2_21 
ROOT
HETATM    1  C3  UNL     1      26.033   1.638  52.164  1.00  0.00     0.272 C 
ENDROOT
BRANCH   1   2
HETATM    2  C2  UNL     1      24.581   1.785  51.917  1.00  0.00     0.207 C 
BRANCH   2   3
HETATM    3  O1  UNL     1      23.830   2.473  52.814  1.00  0.00    -0.394 OA
HETATM    4  C1  UNL     1      22.893   3.325  52.238  1.00  0.00     0.201 C 
ENDBRANCH   2   3
ENDBRANCH   1   2
BRANCH   1   5
HETATM    5  C4  UNL     1      26.682   2.184  50.910  1.00  0.00     0.008 C 
HETATM    6  C5  UNL     1      26.304   3.377  50.462  1.00  0.00    -0.009 C 
BRANCH   6   7
HETATM    7  C6  UNL     1      26.850   4.024  49.259  1.00  0.00     0.148 C 
BRANCH   7   8
HETATM    8  N1  UNL     1      26.950   5.456  49.363  1.00  0.00    -0.371 N 
HETATM    9  H11 UNL     1      26.490   6.282  49.799  1.00  0.00     0.161 HD
BRANCH   8  10
HETATM   10  C7  UNL     1      28.082   5.889  48.590  1.00  0.00     0.126 A 
HETATM   11  C8  UNL     1      27.992   7.036  47.836  1.00  0.00     0.069 A 
HETATM   12  C9  UNL     1      29.065   7.482  47.079  1.00  0.00     0.122 A 
HETATM   13  N2  UNL     1      30.219   6.785  47.076  1.00  0.00    -0.254 NA
HETATM   14  C10 UNL     1      30.295   5.672  47.814  1.00  0.00     0.234 A 
HETATM   15  N3  UNL     1      29.267   5.227  48.551  1.00  0.00    -0.225 NA
ENDBRANCH   8  10
ENDBRANCH   7   8
ENDBRANCH   6   7
ENDBRANCH   1   5
BRANCH   1  16
HETATM   16  N4  UNL     1      26.460   0.305  52.341  1.00  0.00     0.131 N 
HETATM   17  C11 UNL     1      25.586  -0.650  52.906  1.00  0.00     0.281 C 
HETATM   18  C12 UNL     1      25.494  -0.638  54.412  1.00  0.00     0.057 C 
HETATM   19  C13 UNL     1      26.471   0.284  55.055  1.00  0.00    -0.025 C 
HETATM   20  C14 UNL     1      27.576   0.726  54.451  1.00  0.00     0.032 C 
HETATM   21  C15 UNL     1      27.726   0.196  53.064  1.00  0.00     0.383 C 
BRANCH  21  22
HETATM   22  O2  UNL     1      28.102  -1.121  53.000  1.00  0.00    -0.359 OA
HETATM   23  C16 UNL     1      29.387  -1.371  53.442  1.00  0.00     0.204 C 
ENDBRANCH  21  22
ENDBRANCH   1  16
TORSDOF 8
ENDMDL
MODEL 4
REMARK VINA RESULT:      -6.0      3.691      6.039
REMARK  8 active torsions:
REMARK  status: ('A' for Active; 'I' for Inactive)
REMARK    1  A    between atoms: O1_2  and  C2_3 
REMARK    2  A    between atoms: C2_3  and  C3_4 
REMARK    3  A    between atoms: C3_4  and  C4_5 
REMARK    4  A    between atoms: C3_4  and  N4_15 
REMARK    5  A    between atoms: C5_6  and  C6_7 
REMARK    6  A    between atoms: C6_7  and  N1_8 
REMARK    7  A    between atoms: N1_8  and  C7_9 
REMARK    8  A    between atoms: C15_20  and  O2_21 
ROOT
HETATM    1  C3  UNL     1      24.650   1.871  52.847  1.00  0.00     0.272 C 
ENDROOT
BRANCH   1   2
HETATM    2  C2  UNL     1      23.692   1.354  51.843  1.00  0.00     0.207 C 
BRANCH   2   3
HETATM    3  O1  UNL     1      22.764   0.444  52.231  1.00  0.00    -0.394 OA
HETATM    4  C1  UNL     1      23.083  -0.230  53.405  1.00  0.00     0.201 C 
ENDBRANCH   2   3
ENDBRANCH   1   2
BRANCH   1   5
HETATM    5  C4  UNL     1      24.239   3.316  53.043  1.00  0.00     0.008 C 
HETATM    6  C5  UNL     1      23.571   3.929  52.071  1.00  0.00    -0.009 C 
BRANCH   6   7
HETATM    7  C6  UNL     1      23.114   5.325  52.131  1.00  0.00     0.148 C 
BRANCH   7   8
HETATM    8  N1  UNL     1      24.178   6.280  52.292  1.00  0.00    -0.371 N 
HETATM    9  H11 UNL     1      24.851   6.650  52.995  1.00  0.00     0.161 HD
BRANCH   8  10
HETATM   10  C7  UNL     1      24.375   6.956  51.038  1.00  0.00     0.126 A 
HETATM   11  C8  UNL     1      25.419   6.586  50.223  1.00  0.00     0.069 A 
HETATM   12  C9  UNL     1      25.637   7.216  49.007  1.00  0.00     0.122 A 
HETATM   13  N2  UNL     1      24.816   8.209  48.610  1.00  0.00    -0.254 NA
HETATM   14  C10 UNL     1      23.803   8.560  49.411  1.00  0.00     0.234 A 
HETATM   15  N3  UNL     1      23.579   7.962  50.589  1.00  0.00    -0.225 NA
ENDBRANCH   8  10
ENDBRANCH   7   8
ENDBRANCH   6   7
ENDBRANCH   1   5
BRANCH   1  16
HETATM   16  N4  UNL     1      25.997   1.844  52.432  1.00  0.00     0.131 N 
HETATM   17  C11 UNL     1      26.467   0.790  51.617  1.00  0.00     0.281 C 
HETATM   18  C12 UNL     1      26.822  -0.485  52.342  1.00  0.00     0.057 C 
HETATM   19  C13 UNL     1      26.763  -0.355  53.825  1.00  0.00    -0.025 C 
HETATM   20  C14 UNL     1      26.818   0.814  54.467  1.00  0.00     0.032 C 
HETATM   21  C15 UNL     1      26.944   1.975  53.538  1.00  0.00     0.383 C 
BRANCH  21  22
HETATM   22  O2  UNL     1      28.187   2.117  52.975  1.00  0.00    -0.359 OA
HETATM   23  C16 UNL     1      29.197   2.379  53.880  1.00  0.00     0.204 C 
ENDBRANCH  21  22
ENDBRANCH   1  16
TORSDOF 8
ENDMDL
MODEL 5
REMARK VINA RESULT:      -6.0      2.176      5.786
REMARK  8 active torsions:
REMARK  status: ('A' for Active; 'I' for Inactive)
REMARK    1  A    between atoms: O1_2  and  C2_3 
REMARK    2  A    between atoms: C2_3  and  C3_4 
REMARK    3  A    between atoms: C3_4  and  C4_5 
REMARK    4  A    between atoms: C3_4  and  N4_15 
REMARK    5  A    between atoms: C5_6  and  C6_7 
REMARK    6  A    between atoms: C6_7  and  N1_8 
REMARK    7  A    between atoms: N1_8  and  C7_9 
REMARK    8  A    between atoms: C15_20  and  O2_21 
ROOT
HETATM    1  C3  UNL     1      22.947   2.296  52.237  1.00  0.00     0.272 C 
ENDROOT
BRANCH   1   2
HETATM    2  C2  UNL     1      23.294   2.972  50.966  1.00  0.00     0.207 C 
BRANCH   2   3
HETATM    3  O1  UNL     1      22.447   3.909  50.471  1.00  0.00    -0.394 OA
HETATM    4  C1  UNL     1      21.520   4.383  51.392  1.00  0.00     0.201 C 
ENDBRANCH   2   3
ENDBRANCH   1   2
BRANCH   1   5
HETATM    5  C4  UNL     1      24.203   2.409  53.075  1.00  0.00     0.008 C 
HETATM    6  C5  UNL     1      25.373   2.120  52.515  1.00  0.00    -0.009 C 
BRANCH   6   7
HETATM    7  C6  UNL     1      26.667   2.188  53.212  1.00  0.00     0.148 C 
BRANCH   7   8
HETATM    8  N1  UNL     1      26.759   1.317  54.355  1.00  0.00    -0.371 N 
HETATM    9  H11 UNL     1      26.443   1.221  55.342  1.00  0.00     0.161 HD
BRANCH   8  10
HETATM   10  C7  UNL     1      27.574   0.188  53.999  1.00  0.00     0.126 A 
HETATM   11  C8  UNL     1      27.007  -0.879  53.342  1.00  0.00     0.069 A 
HETATM   12  C9  UNL     1      27.764  -1.985  52.984  1.00  0.00     0.122 A 
HETATM   13  N2  UNL     1      29.078  -2.022  53.281  1.00  0.00    -0.254 NA
HETATM   14  C10 UNL     1      29.619  -0.978  53.920  1.00  0.00     0.234 A 
HETATM   15  N3  UNL     1      28.901   0.097  54.273  1.00  0.00    -0.225 NA
ENDBRANCH   8  10
ENDBRANCH   7   8
ENDBRANCH   6   7
ENDBRANCH   1   5
BRANCH   1  16
HETATM   16  N4  UNL     1      22.627   0.929  52.099  1.00  0.00     0.131 N 
HETATM   17  C11 UNL     1      21.807   0.497  51.032  1.00  0.00     0.281 C 
HETATM   18  C12 UNL     1      20.323   0.669  51.240  1.00  0.00     0.057 C 
HETATM   19  C13 UNL     1      19.970   1.124  52.614  1.00  0.00    -0.025 C 
HETATM   20  C14 UNL     1      20.779   0.992  53.667  1.00  0.00     0.032 C 
HETATM   21  C15 UNL     1      22.075   0.340  53.318  1.00  0.00     0.383 C 
BRANCH  21  22
HETATM   22  O2  UNL     1      21.987  -1.011  53.096  1.00  0.00    -0.359 OA
HETATM   23  C16 UNL     1      21.582  -1.746  54.193  1.00  0.00     0.204 C 
ENDBRANCH  21  22
ENDBRANCH   1  16
TORSDOF 8
ENDMDL
MODEL 6
REMARK VINA RESULT:      -5.9      3.211      5.812
REMARK  8 active torsions:
REMARK  status: ('A' for Active; 'I' for Inactive)
REMARK    1  A    between atoms: O1_2  and  C2_3 
REMARK    2  A    between atoms: C2_3  and  C3_4 
REMARK    3  A    between atoms: C3_4  and  C4_5 
REMARK    4  A    between atoms: C3_4  and  N4_15 
REMARK    5  A    between atoms: C5_6  and  C6_7 
REMARK    6  A    between atoms: C6_7  and  N1_8 
REMARK    7  A    between atoms: N1_8  and  C7_9 
REMARK    8  A    between atoms: C15_20  and  O2_21 
ROOT
HETATM    1  C3  UNL     1      25.853   1.493  52.102  1.00  0.00     0.272 C 
ENDROOT
BRANCH   1   2
HETATM    2  C2  UNL     1      24.399   1.436  51.831  1.00  0.00     0.207 C 
BRANCH   2   3
HETATM    3  O1  UNL     1      23.538   1.896  52.774  1.00  0.00    -0.394 OA
HETATM    4  C1  UNL     1      22.289   1.285  52.752  1.00  0.00     0.201 C 
ENDBRANCH   2   3
ENDBRANCH   1   2
BRANCH   1   5
HETATM    5  C4  UNL     1      26.444   2.084  50.839  1.00  0.00     0.008 C 
HETATM    6  C5  UNL     1      26.159   3.345  50.528  1.00  0.00    -0.009 C 
BRANCH   6   7
HETATM    7  C6  UNL     1      26.664   4.040  49.335  1.00  0.00     0.148 C 
BRANCH   7   8
HETATM    8  N1  UNL     1      26.969   5.430  49.557  1.00  0.00    -0.371 N 
HETATM    9  H11 UNL     1      27.767   6.083  49.700  1.00  0.00     0.161 HD
BRANCH   8  10
HETATM   10  C7  UNL     1      25.734   6.165  49.591  1.00  0.00     0.126 A 
HETATM   11  C8  UNL     1      24.902   6.145  48.497  1.00  0.00     0.069 A 
HETATM   12  C9  UNL     1      23.703   6.843  48.496  1.00  0.00     0.122 A 
HETATM   13  N2  UNL     1      23.341   7.555  49.582  1.00  0.00    -0.254 NA
HETATM   14  C10 UNL     1      24.159   7.565  50.641  1.00  0.00     0.234 A 
HETATM   15  N3  UNL     1      25.321   6.898  50.658  1.00  0.00    -0.225 NA
ENDBRANCH   8  10
ENDBRANCH   7   8
ENDBRANCH   6   7
ENDBRANCH   1   5
BRANCH   1  16
HETATM   16  N4  UNL     1      26.452   0.236  52.327  1.00  0.00     0.131 N 
HETATM   17  C11 UNL     1      25.702  -0.813  52.904  1.00  0.00     0.281 C 
HETATM   18  C12 UNL     1      25.575  -0.773  54.407  1.00  0.00     0.057 C 
HETATM   19  C13 UNL     1      26.404   0.291  55.039  1.00  0.00    -0.025 C 
HETATM   20  C14 UNL     1      27.453   0.862  54.443  1.00  0.00     0.032 C 
HETATM   21  C15 UNL     1      27.704   0.319  53.076  1.00  0.00     0.383 C 
BRANCH  21  22
HETATM   22  O2  UNL     1      28.256  -0.936  53.058  1.00  0.00    -0.359 OA
HETATM   23  C16 UNL     1      29.566  -0.991  53.492  1.00  0.00     0.204 C 
ENDBRANCH  21  22
ENDBRANCH   1  16
TORSDOF 8
ENDMDL
MODEL 7
REMARK VINA RESULT:      -5.8      2.716      6.519
REMARK  8 active torsions:
REMARK  status: ('A' for Active; 'I' for Inactive)
REMARK    1  A    between atoms: O1_2  and  C2_3 
REMARK    2  A    between atoms: C2_3  and  C3_4 
REMARK    3  A    between atoms: C3_4  and  C4_5 
REMARK    4  A    between atoms: C3_4  and  N4_15 
REMARK    5  A    between atoms: C5_6  and  C6_7 
REMARK    6  A    between atoms: C6_7  and  N1_8 
REMARK    7  A    between atoms: N1_8  and  C7_9 
REMARK    8  A    between atoms: C15_20  and  O2_21 
ROOT
HETATM    1  C3  UNL     1      22.605   1.959  51.374  1.00  0.00     0.272 C 
ENDROOT
BRANCH   1   2
HETATM    2  C2  UNL     1      21.596   1.866  52.453  1.00  0.00     0.207 C 
BRANCH   2   3
HETATM    3  O1  UNL     1      20.357   1.399  52.153  1.00  0.00    -0.394 OA
HETATM    4  C1  UNL     1      20.291   0.684  50.962  1.00  0.00     0.201 C 
ENDBRANCH   2   3
ENDBRANCH   1   2
BRANCH   1   5
HETATM    5  C4  UNL     1      23.842   1.316  51.964  1.00  0.00     0.008 C 
HETATM    6  C5  UNL     1      23.693   0.338  52.852  1.00  0.00    -0.009 C 
BRANCH   6   7
HETATM    7  C6  UNL     1      24.806  -0.370  53.502  1.00  0.00     0.148 C 
BRANCH   7   8
HETATM    8  N1  UNL     1      25.986  -0.474  52.684  1.00  0.00    -0.371 N 
HETATM    9  H11 UNL     1      26.329  -0.866  51.783  1.00  0.00     0.161 HD
BRANCH   8  10
HETATM   10  C7  UNL     1      27.063   0.204  53.353  1.00  0.00     0.126 A 
HETATM   11  C8  UNL     1      27.418   1.471  52.957  1.00  0.00     0.069 A 
HETATM   12  C9  UNL     1      28.452   2.154  53.581  1.00  0.00     0.122 A 
HETATM   13  N2  UNL     1      29.124   1.571  54.594  1.00  0.00    -0.254 NA
HETATM   14  C10 UNL     1      28.769   0.338  54.971  1.00  0.00     0.234 A 
HETATM   15  N3  UNL     1      27.773  -0.336  54.378  1.00  0.00    -0.225 NA
ENDBRANCH   8  10
ENDBRANCH   7   8
ENDBRANCH   6   7
ENDBRANCH   1   5
BRANCH   1  16
HETATM   16  N4  UNL     1      22.928   3.279  50.994  1.00  0.00     0.131 N 
HETATM   17  C11 UNL     1      21.905   4.237  50.820  1.00  0.00     0.281 C 
HETATM   18  C12 UNL     1      21.188   4.191  49.493  1.00  0.00     0.057 C 
HETATM   19  C13 UNL     1      21.797   3.234  48.527  1.00  0.00    -0.025 C 
HETATM   20  C14 UNL     1      23.051   2.785  48.624  1.00  0.00     0.032 C 
HETATM   21  C15 UNL     1      23.774   3.345  49.803  1.00  0.00     0.383 C 
BRANCH  21  22
HETATM   22  O2  UNL     1      24.152   4.656  49.664  1.00  0.00    -0.359 OA
HETATM   23  C16 UNL     1      25.519   4.859  49.663  1.00  0.00     0.204 C 
ENDBRANCH  21  22
ENDBRANCH   1  16
TORSDOF 8
ENDMDL
MODEL 8
REMARK VINA RESULT:      -5.6      3.097      6.461
REMARK  8 active torsions:
REMARK  status: ('A' for Active; 'I' for Inactive)
REMARK    1  A    between atoms: O1_2  and  C2_3 
REMARK    2  A    between atoms: C2_3  and  C3_4 
REMARK    3  A    between atoms: C3_4  and  C4_5 
REMARK    4  A    between atoms: C3_4  and  N4_15 
REMARK    5  A    between atoms: C5_6  and  C6_7 
REMARK    6  A    between atoms: C6_7  and  N1_8 
REMARK    7  A    between atoms: N1_8  and  C7_9 
REMARK    8  A    between atoms: C15_20  and  O2_21 
ROOT
HETATM    1  C3  UNL     1      23.957   2.759  51.683  1.00  0.00     0.272 C 
ENDROOT
BRANCH   1   2
HETATM    2  C2  UNL     1      23.018   2.105  52.621  1.00  0.00     0.207 C 
BRANCH   2   3
HETATM    3  O1  UNL     1      22.294   1.042  52.189  1.00  0.00    -0.394 OA
HETATM    4  C1  UNL     1      22.010   1.062  50.827  1.00  0.00     0.201 C 
ENDBRANCH   2   3
ENDBRANCH   1   2
BRANCH   1   5
HETATM    5  C4  UNL     1      25.325   2.479  52.268  1.00  0.00     0.008 C 
HETATM    6  C5  UNL     1      25.406   1.810  53.414  1.00  0.00    -0.009 C 
BRANCH   6   7
HETATM    7  C6  UNL     1      26.667   1.471  54.091  1.00  0.00     0.148 C 
BRANCH   7   8
HETATM    8  N1  UNL     1      27.765   1.233  53.191  1.00  0.00    -0.371 N 
HETATM    9  H11 UNL     1      28.455   1.727  52.589  1.00  0.00     0.161 HD
BRANCH   8  10
HETATM   10  C7  UNL     1      27.975  -0.186  53.098  1.00  0.00     0.126 A 
HETATM   11  C8  UNL     1      26.978  -0.988  52.594  1.00  0.00     0.069 A 
HETATM   12  C9  UNL     1      27.147  -2.362  52.490  1.00  0.00     0.122 A 
HETATM   13  N2  UNL     1      28.305  -2.926  52.888  1.00  0.00    -0.254 NA
HETATM   14  C10 UNL     1      29.267  -2.135  53.377  1.00  0.00     0.234 A 
HETATM   15  N3  UNL     1      29.119  -0.807  53.484  1.00  0.00    -0.225 NA
ENDBRANCH   8  10
ENDBRANCH   7   8
ENDBRANCH   6   7
ENDBRANCH   1   5
BRANCH   1  16
HETATM   16  N4  UNL     1      23.795   4.157  51.580  1.00  0.00     0.131 N 
HETATM   17  C11 UNL     1      22.518   4.706  51.330  1.00  0.00     0.281 C 
HETATM   18  C12 UNL     1      22.077   4.700  49.887  1.00  0.00     0.057 C 
HETATM   19  C13 UNL     1      23.143   4.254  48.948  1.00  0.00    -0.025 C 
HETATM   20  C14 UNL     1      24.444   4.267  49.247  1.00  0.00     0.032 C 
HETATM   21  C15 UNL     1      24.713   4.775  50.624  1.00  0.00     0.383 C 
BRANCH  21  22
HETATM   22  O2  UNL     1      24.570   6.132  50.764  1.00  0.00    -0.359 OA
HETATM   23  C16 UNL     1      25.578   6.876  50.182  1.00  0.00     0.204 C 
ENDBRANCH  21  22
ENDBRANCH   1  16
TORSDOF 8
ENDMDL
MODEL 9
REMARK VINA RESULT:      -5.4      3.997      7.181
REMARK  8 active torsions:
REMARK  status: ('A' for Active; 'I' for Inactive)
REMARK    1  A    between atoms: O1_2  and  C2_3 
REMARK    2  A    between atoms: C2_3  and  C3_4 
REMARK    3  A    between atoms: C3_4  and  C4_5 
REMARK    4  A    between atoms: C3_4  and  N4_15 
REMARK    5  A    between atoms: C5_6  and  C6_7 
REMARK    6  A    between atoms: C6_7  and  N1_8 
REMARK    7  A    between atoms: N1_8  and  C7_9 
REMARK    8  A    between atoms: C15_20  and  O2_21 
ROOT
HETATM    1  C3  UNL     1      21.626   3.539  52.193  1.00  0.00     0.272 C 
ENDROOT
BRANCH   1   2
HETATM    2  C2  UNL     1      20.320   3.780  51.538  1.00  0.00     0.207 C 
BRANCH   2   3
HETATM    3  O1  UNL     1      19.184   3.438  52.196  1.00  0.00    -0.394 OA
HETATM    4  C1  UNL     1      18.041   3.450  51.404  1.00  0.00     0.201 C 
ENDBRANCH   2   3
ENDBRANCH   1   2
BRANCH   1   5
HETATM    5  C4  UNL     1      22.276   4.906  52.242  1.00  0.00     0.008 C 
HETATM    6  C5  UNL     1      22.470   5.563  51.102  1.00  0.00    -0.009 C 
BRANCH   6   7
HETATM    7  C6  UNL     1      23.088   6.894  51.006  1.00  0.00     0.148 C 
BRANCH   7   8
HETATM    8  N1  UNL     1      24.405   6.967  51.584  1.00  0.00    -0.371 N 
HETATM    9  H11 UNL     1      24.898   7.077  52.494  1.00  0.00     0.161 HD
BRANCH   8  10
HETATM   10  C7  UNL     1      25.371   6.845  50.526  1.00  0.00     0.126 A 
HETATM   11  C8  UNL     1      26.073   7.953  50.116  1.00  0.00     0.069 A 
HETATM   12  C9  UNL     1      27.013   7.871  49.098  1.00  0.00     0.122 A 
HETATM   13  N2  UNL     1      27.246   6.688  48.496  1.00  0.00    -0.254 NA
HETATM   14  C10 UNL     1      26.557   5.616  48.904  1.00  0.00     0.234 A 
HETATM   15  N3  UNL     1      25.646   5.679  49.885  1.00  0.00    -0.225 NA
ENDBRANCH   8  10
ENDBRANCH   7   8
ENDBRANCH   6   7
ENDBRANCH   1   5
BRANCH   1  16
HETATM   16  N4  UNL     1      22.478   2.666  51.486  1.00  0.00     0.131 N 
HETATM   17  C11 UNL     1      21.943   1.768  50.535  1.00  0.00     0.281 C 
HETATM   18  C12 UNL     1      21.357   0.497  51.098  1.00  0.00     0.057 C 
HETATM   19  C13 UNL     1      21.589   0.339  52.561  1.00  0.00    -0.025 C 
HETATM   20  C14 UNL     1      22.545   0.986  53.231  1.00  0.00     0.032 C 
HETATM   21  C15 UNL     1      23.354   1.884  52.357  1.00  0.00     0.383 C 
BRANCH  21  22
HETATM   22  O2  UNL     1      24.238   1.229  51.537  1.00  0.00    -0.359 OA
HETATM   23  C16 UNL     1      25.420   0.860  52.150  1.00  0.00     0.204 C 
ENDBRANCH  21  22
ENDBRANCH   1  16
TORSDOF 8
ENDMDL
