MODEL 1
REMARK VINA RESULT:      -7.9      0.000      0.000
REMARK  4 active torsions:
REMARK  status: ('A' for Active; 'I' for Inactive)
REMARK    1  A    between atoms: C2_2  and  O1_3 
REMARK    2  A    between atoms: C2_2  and  C4_5 
REMARK    3  A    between atoms: C4_5  and  O3_24 
REMARK    4  A    between atoms: C5_6  and  C6_7 
ROOT
HETATM    1  C6  UNL     1      24.476   2.038  50.978  1.00  0.00     0.051 C 
HETATM    2  C7  UNL     1      25.465   1.337  51.950  1.00  0.00    -0.024 A 
HETATM    3  C8  UNL     1      25.205   0.421  52.940  1.00  0.00     0.057 A 
HETATM    4  C9  UNL     1      25.074  -0.553  54.037  1.00  0.00     0.059 A 
HETATM    5  C10 UNL     1      26.367  -0.145  53.948  1.00  0.00     0.071 A 
HETATM    6  C11 UNL     1      27.209   0.690  53.229  1.00  0.00     0.057 A 
HETATM    7 CL1  UNL     1      28.923   0.718  53.698  1.00  0.00    -0.085 Cl
HETATM    8  C12 UNL     1      26.821   1.495  52.177  1.00  0.00     0.138 A 
HETATM    9  F1  UNL     1      27.457   2.368  51.410  1.00  0.00    -0.204 F 
HETATM   10  N1  UNL     1      23.817  -0.457  53.692  1.00  0.00    -0.335 N 
HETATM   11  C13 UNL     1      22.469  -0.355  53.322  1.00  0.00     0.298 C 
HETATM   12  O2  UNL     1      22.147  -1.399  53.352  1.00  0.00    -0.254 OA
HETATM   13  N2  UNL     1      21.814   0.877  53.000  1.00  0.00    -0.221 NA
HETATM   14  C14 UNL     1      20.987   1.880  52.637  1.00  0.00     0.063 C 
HETATM   15  C15 UNL     1      21.967   2.627  51.940  1.00  0.00    -0.010 C 
HETATM   16  C16 UNL     1      23.337   2.269  51.787  1.00  0.00     0.017 C 
HETATM   17  C17 UNL     1      23.891   2.758  53.098  1.00  0.00     0.015 C 
HETATM   18  H10 UNL     1      24.164  -1.433  54.049  1.00  0.00     0.194 HD
HETATM   19  H11 UNL     1      20.964   0.305  52.677  1.00  0.00     0.137 HD
ENDROOT
BRANCH   1  20
HETATM   20  C5  UNL     1      25.160   3.159  50.367  1.00  0.00     0.022 C 
HETATM   21  C4  UNL     1      24.817   4.285  49.763  1.00  0.00     0.097 C 
BRANCH  21  22
HETATM   22  C2  UNL     1      25.962   5.115  49.304  1.00  0.00     0.091 C 
HETATM   23  C1  UNL     1      27.117   4.551  48.949  1.00  0.00     0.053 C 
BRANCH  22  24
HETATM   24  O1  UNL     1      25.878   6.520  49.223  1.00  0.00    -0.354 OA
HETATM   25  C3  UNL     1      25.641   7.347  50.323  1.00  0.00     0.210 C 
ENDBRANCH  22  24
ENDBRANCH  21  22
BRANCH  21  26
HETATM   26  O3  UNL     1      23.567   4.779  49.504  1.00  0.00    -0.353 OA
HETATM   27  C18 UNL     1      22.873   4.196  48.386  1.00  0.00     0.210 C 
ENDBRANCH  21  26
ENDBRANCH   1  20
TORSDOF 4
ENDMDL
MODEL 2
REMARK VINA RESULT:      -7.9      2.798      5.485
REMARK  4 active torsions:
REMARK  status: ('A' for Active; 'I' for Inactive)
REMARK    1  A    between atoms: C2_2  and  O1_3 
REMARK    2  A    between atoms: C2_2  and  C4_5 
REMARK    3  A    between atoms: C4_5  and  O3_24 
REMARK    4  A    between atoms: C5_6  and  C6_7 
ROOT
HETATM    1  C6  UNL     1      24.090   1.185  53.026  1.00  0.00     0.051 C 
HETATM    2  C7  UNL     1      24.335   2.274  51.945  1.00  0.00    -0.024 A 
HETATM    3  C8  UNL     1      23.445   3.161  51.391  1.00  0.00     0.057 A 
HETATM    4  C9  UNL     1      22.603   4.156  50.705  1.00  0.00     0.059 A 
HETATM    5  C10 UNL     1      23.855   4.184  50.178  1.00  0.00     0.071 A 
HETATM    6  C11 UNL     1      25.105   3.594  50.284  1.00  0.00     0.057 A 
HETATM    7 CL1  UNL     1      26.377   4.178  49.188  1.00  0.00    -0.085 Cl
HETATM    8  C12 UNL     1      25.438   2.593  51.174  1.00  0.00     0.138 A 
HETATM    9  F1  UNL     1      26.542   1.894  51.393  1.00  0.00    -0.204 F 
HETATM   10  N1  UNL     1      21.699   3.619  51.481  1.00  0.00    -0.335 N 
HETATM   11  C13 UNL     1      20.730   3.043  52.314  1.00  0.00     0.298 C 
HETATM   12  O2  UNL     1      20.184   3.921  52.666  1.00  0.00    -0.254 OA
HETATM   13  N2  UNL     1      20.612   1.636  52.557  1.00  0.00    -0.221 NA
HETATM   14  C14 UNL     1      20.308   0.385  52.961  1.00  0.00     0.063 C 
HETATM   15  C15 UNL     1      21.646  -0.076  53.014  1.00  0.00    -0.010 C 
HETATM   16  C16 UNL     1      22.805   0.689  52.699  1.00  0.00     0.017 C 
HETATM   17  C17 UNL     1      22.814   0.558  51.200  1.00  0.00     0.015 C 
HETATM   18  H10 UNL     1      21.599   4.687  51.265  1.00  0.00     0.194 HD
HETATM   19  H11 UNL     1      19.885   1.861  53.316  1.00  0.00     0.137 HD
ENDROOT
BRANCH   1  20
HETATM   20  C5  UNL     1      25.226   0.286  53.028  1.00  0.00     0.022 C 
HETATM   21  C4  UNL     1      25.874  -0.447  53.919  1.00  0.00     0.097 C 
BRANCH  21  22
HETATM   22  C2  UNL     1      27.022  -1.216  53.370  1.00  0.00     0.091 C 
HETATM   23  C1  UNL     1      26.878  -1.978  52.285  1.00  0.00     0.053 C 
BRANCH  22  24
HETATM   24  O1  UNL     1      28.299  -1.173  53.965  1.00  0.00    -0.354 OA
HETATM   25  C3  UNL     1      28.988   0.011  54.238  1.00  0.00     0.210 C 
ENDBRANCH  22  24
ENDBRANCH  21  22
BRANCH  21  26
HETATM   26  O3  UNL     1      25.634  -0.588  55.259  1.00  0.00    -0.353 OA
HETATM   27  C18 UNL     1      24.441  -1.312  55.616  1.00  0.00     0.210 C 
ENDBRANCH  21  26
ENDBRANCH   1  20
TORSDOF 4
ENDMDL
MODEL 3
REMARK VINA RESULT:      -7.7      3.117      4.579
REMARK  4 active torsions:
REMARK  status: ('A' for Active; 'I' for Inactive)
REMARK    1  A    between atoms: C2_2  and  O1_3 
REMARK    2  A    between atoms: C2_2  and  C4_5 
REMARK    3  A    between atoms: C4_5  and  O3_24 
REMARK    4  A    between atoms: C5_6  and  C6_7 
ROOT
HETATM    1  C6  UNL     1      23.885   1.470  52.994  1.00  0.00     0.051 C 
HETATM    2  C7  UNL     1      22.711   0.549  53.428  1.00  0.00    -0.024 A 
HETATM    3  C8  UNL     1      22.702  -0.467  54.352  1.00  0.00     0.057 A 
HETATM    4  C9  UNL     1      22.548  -1.583  55.301  1.00  0.00     0.059 A 
HETATM    5  C10 UNL     1      21.388  -1.412  54.615  1.00  0.00     0.071 A 
HETATM    6  C11 UNL     1      20.798  -0.631  53.632  1.00  0.00     0.057 A 
HETATM    7 CL1  UNL     1      19.111  -0.998  53.206  1.00  0.00    -0.085 Cl
HETATM    8  C12 UNL     1      21.416   0.406  52.963  1.00  0.00     0.138 A 
HETATM    9  F1  UNL     1      21.037   1.221  51.991  1.00  0.00    -0.204 F 
HETATM   10  N1  UNL     1      23.811  -1.313  55.500  1.00  0.00    -0.335 N 
HETATM   11  C13 UNL     1      25.166  -1.022  55.714  1.00  0.00     0.298 C 
HETATM   12  O2  UNL     1      25.241  -1.086  56.802  1.00  0.00    -0.254 OA
HETATM   13  N2  UNL     1      26.099  -0.724  54.669  1.00  0.00    -0.221 NA
HETATM   14  C14 UNL     1      27.150  -0.396  53.889  1.00  0.00     0.063 C 
HETATM   15  C15 UNL     1      26.405   0.368  52.959  1.00  0.00    -0.010 C 
HETATM   16  C16 UNL     1      25.000   0.598  53.004  1.00  0.00     0.017 C 
HETATM   17  C17 UNL     1      24.500  -0.671  52.368  1.00  0.00     0.015 C 
HETATM   18  H10 UNL     1      23.234  -1.661  56.362  1.00  0.00     0.194 HD
HETATM   19  H11 UNL     1      26.814  -0.459  55.427  1.00  0.00     0.137 HD
ENDROOT
BRANCH   1  20
HETATM   20  C5  UNL     1      23.507   2.136  51.765  1.00  0.00     0.022 C 
HETATM   21  C4  UNL     1      24.045   3.023  50.944  1.00  0.00     0.097 C 
BRANCH  21  22
HETATM   22  C2  UNL     1      23.196   3.382  49.777  1.00  0.00     0.091 C 
HETATM   23  C1  UNL     1      22.636   2.437  49.022  1.00  0.00     0.053 C 
BRANCH  22  24
HETATM   24  O1  UNL     1      22.947   4.724  49.423  1.00  0.00    -0.354 OA
HETATM   25  C3  UNL     1      23.145   5.236  48.139  1.00  0.00     0.210 C 
ENDBRANCH  22  24
ENDBRANCH  21  22
BRANCH  21  26
HETATM   26  O3  UNL     1      25.261   3.647  51.025  1.00  0.00    -0.353 OA
HETATM   27  C18 UNL     1      26.313   3.093  50.212  1.00  0.00     0.210 C 
ENDBRANCH  21  26
ENDBRANCH   1  20
TORSDOF 4
ENDMDL
MODEL 4
REMARK VINA RESULT:      -7.7      2.618      4.032
REMARK  4 active torsions:
REMARK  status: ('A' for Active; 'I' for Inactive)
REMARK    1  A    between atoms: C2_2  and  O1_3 
REMARK    2  A    between atoms: C2_2  and  C4_5 
REMARK    3  A    between atoms: C4_5  and  O3_24 
REMARK    4  A    between atoms: C5_6  and  C6_7 
ROOT
HETATM    1  C6  UNL     1      25.099   2.205  52.696  1.00  0.00     0.051 C 
HETATM    2  C7  UNL     1      23.836   1.300  52.648  1.00  0.00    -0.024 A 
HETATM    3  C8  UNL     1      23.548   0.174  53.378  1.00  0.00     0.057 A 
HETATM    4  C9  UNL     1      23.113  -1.048  54.077  1.00  0.00     0.059 A 
HETATM    5  C10 UNL     1      22.200  -0.724  53.125  1.00  0.00     0.071 A 
HETATM    6  C11 UNL     1      21.927   0.210  52.137  1.00  0.00     0.057 A 
HETATM    7 CL1  UNL     1      20.427  -0.004  51.207  1.00  0.00    -0.085 Cl
HETATM    8  C12 UNL     1      22.726   1.291  51.822  1.00  0.00     0.138 A 
HETATM    9  F1  UNL     1      22.653   2.247  50.909  1.00  0.00    -0.204 F 
HETATM   10  N1  UNL     1      24.270  -0.875  54.660  1.00  0.00    -0.335 N 
HETATM   11  C13 UNL     1      25.511  -0.690  55.284  1.00  0.00     0.298 C 
HETATM   12  O2  UNL     1      25.271  -0.901  56.329  1.00  0.00    -0.254 OA
HETATM   13  N2  UNL     1      26.709  -0.309  54.597  1.00  0.00    -0.221 NA
HETATM   14  C14 UNL     1      27.944   0.061  54.198  1.00  0.00     0.063 C 
HETATM   15  C15 UNL     1      27.507   0.980  53.215  1.00  0.00    -0.010 C 
HETATM   16  C16 UNL     1      26.151   1.279  52.895  1.00  0.00     0.017 C 
HETATM   17  C17 UNL     1      25.835   0.134  51.971  1.00  0.00     0.015 C 
HETATM   18  H10 UNL     1      23.465  -1.302  55.266  1.00  0.00     0.194 HD
HETATM   19  H11 UNL     1      27.181  -0.186  55.555  1.00  0.00     0.137 HD
ENDROOT
BRANCH   1  20
HETATM   20  C5  UNL     1      25.098   3.047  51.517  1.00  0.00     0.022 C 
HETATM   21  C4  UNL     1      24.687   4.264  51.203  1.00  0.00     0.097 C 
BRANCH  21  22
HETATM   22  C2  UNL     1      24.939   4.657  49.791  1.00  0.00     0.091 C 
HETATM   23  C1  UNL     1      26.149   4.519  49.248  1.00  0.00     0.053 C 
BRANCH  22  24
HETATM   24  O1  UNL     1      23.920   5.186  48.973  1.00  0.00    -0.354 OA
HETATM   25  C3  UNL     1      22.954   4.404  48.335  1.00  0.00     0.210 C 
ENDBRANCH  22  24
ENDBRANCH  21  22
BRANCH  21  26
HETATM   26  O3  UNL     1      24.068   5.197  51.991  1.00  0.00    -0.353 OA
HETATM   27  C18 UNL     1      22.655   5.011  52.201  1.00  0.00     0.210 C 
ENDBRANCH  21  26
ENDBRANCH   1  20
TORSDOF 4
ENDMDL
MODEL 5
REMARK VINA RESULT:      -7.7      3.301      5.494
REMARK  4 active torsions:
REMARK  status: ('A' for Active; 'I' for Inactive)
REMARK    1  A    between atoms: C2_2  and  O1_3 
REMARK    2  A    between atoms: C2_2  and  C4_5 
REMARK    3  A    between atoms: C4_5  and  O3_24 
REMARK    4  A    between atoms: C5_6  and  C6_7 
ROOT
HETATM    1  C6  UNL     1      24.386   1.352  51.669  1.00  0.00     0.051 C 
HETATM    2  C7  UNL     1      23.050   0.663  52.064  1.00  0.00    -0.024 A 
HETATM    3  C8  UNL     1      21.808   0.788  51.492  1.00  0.00     0.057 A 
HETATM    4  C9  UNL     1      20.424   0.833  50.990  1.00  0.00     0.059 A 
HETATM    5  C10 UNL     1      20.474   0.059  52.106  1.00  0.00     0.071 A 
HETATM    6  C11 UNL     1      21.347  -0.423  53.070  1.00  0.00     0.057 A 
HETATM    7 CL1  UNL     1      20.664  -1.472  54.333  1.00  0.00    -0.085 Cl
HETATM    8  C12 UNL     1      22.700  -0.155  53.123  1.00  0.00     0.138 A 
HETATM    9  F1  UNL     1      23.665  -0.486  53.967  1.00  0.00    -0.204 F 
HETATM   10  N1  UNL     1      20.978   1.663  50.146  1.00  0.00    -0.335 N 
HETATM   11  C13 UNL     1      21.573   2.553  49.241  1.00  0.00     0.298 C 
HETATM   12  O2  UNL     1      21.117   2.251  48.296  1.00  0.00    -0.254 OA
HETATM   13  N2  UNL     1      22.532   3.551  49.608  1.00  0.00    -0.221 NA
HETATM   14  C14 UNL     1      23.451   4.537  49.687  1.00  0.00     0.063 C 
HETATM   15  C15 UNL     1      24.240   3.916  50.685  1.00  0.00    -0.010 C 
HETATM   16  C16 UNL     1      23.979   2.653  51.290  1.00  0.00     0.017 C 
HETATM   17  C17 UNL     1      22.971   3.058  52.332  1.00  0.00     0.015 C 
HETATM   18  H10 UNL     1      20.158   1.043  49.770  1.00  0.00     0.194 HD
HETATM   19  H11 UNL     1      22.691   3.738  48.561  1.00  0.00     0.137 HD
ENDROOT
BRANCH   1  20
HETATM   20  C5  UNL     1      25.323   1.183  52.761  1.00  0.00     0.022 C 
HETATM   21  C4  UNL     1      26.423   0.484  52.988  1.00  0.00     0.097 C 
BRANCH  21  22
HETATM   22  C2  UNL     1      27.017   0.685  54.336  1.00  0.00     0.091 C 
HETATM   23  C1  UNL     1      26.469   0.127  55.415  1.00  0.00     0.053 C 
BRANCH  22  24
HETATM   24  O1  UNL     1      28.174   1.467  54.530  1.00  0.00    -0.354 OA
HETATM   25  C3  UNL     1      28.644   2.399  53.602  1.00  0.00     0.210 C 
ENDBRANCH  22  24
ENDBRANCH  21  22
BRANCH  21  26
HETATM   26  O3  UNL     1      27.076  -0.390  52.161  1.00  0.00    -0.353 OA
HETATM   27  C18 UNL     1      26.791  -1.787  52.362  1.00  0.00     0.210 C 
ENDBRANCH  21  26
ENDBRANCH   1  20
TORSDOF 4
ENDMDL
MODEL 6
REMARK VINA RESULT:      -7.6      3.231      4.994
REMARK  4 active torsions:
REMARK  status: ('A' for Active; 'I' for Inactive)
REMARK    1  A    between atoms: C2_2  and  O1_3 
REMARK    2  A    between atoms: C2_2  and  C4_5 
REMARK    3  A    between atoms: C4_5  and  O3_24 
REMARK    4  A    between atoms: C5_6  and  C6_7 
ROOT
HETATM    1  C6  UNL     1      23.476   3.549  51.986  1.00  0.00     0.051 C 
HETATM    2  C7  UNL     1      23.561   2.114  52.577  1.00  0.00    -0.024 A 
HETATM    3  C8  UNL     1      24.665   1.321  52.775  1.00  0.00     0.057 A 
HETATM    4  C9  UNL     1      25.753   0.361  53.031  1.00  0.00     0.059 A 
HETATM    5  C10 UNL     1      24.560  -0.221  53.320  1.00  0.00     0.071 A 
HETATM    6  C11 UNL     1      23.194   0.019  53.333  1.00  0.00     0.057 A 
HETATM    7 CL1  UNL     1      22.140  -1.305  53.878  1.00  0.00    -0.085 Cl
HETATM    8  C12 UNL     1      22.592   1.203  52.960  1.00  0.00     0.138 A 
HETATM    9  F1  UNL     1      21.331   1.600  52.872  1.00  0.00    -0.204 F 
HETATM   10  N1  UNL     1      26.456   1.347  52.540  1.00  0.00    -0.335 N 
HETATM   11  C13 UNL     1      27.210   2.405  52.013  1.00  0.00     0.298 C 
HETATM   12  O2  UNL     1      28.072   2.423  52.685  1.00  0.00    -0.254 OA
HETATM   13  N2  UNL     1      26.818   3.186  50.879  1.00  0.00    -0.221 NA
HETATM   14  C14 UNL     1      26.668   4.068  49.868  1.00  0.00     0.063 C 
HETATM   15  C15 UNL     1      25.266   4.202  50.002  1.00  0.00    -0.010 C 
HETATM   16  C16 UNL     1      24.451   3.533  50.960  1.00  0.00     0.017 C 
HETATM   17  C17 UNL     1      24.262   2.207  50.272  1.00  0.00     0.015 C 
HETATM   18  H10 UNL     1      26.926   0.738  53.318  1.00  0.00     0.194 HD
HETATM   19  H11 UNL     1      27.639   3.847  51.089  1.00  0.00     0.137 HD
ENDROOT
BRANCH   1  20
HETATM   20  C5  UNL     1      22.092   3.822  51.657  1.00  0.00     0.022 C 
HETATM   21  C4  UNL     1      21.434   4.683  50.899  1.00  0.00     0.097 C 
BRANCH  21  22
HETATM   22  C2  UNL     1      19.956   4.522  50.920  1.00  0.00     0.091 C 
HETATM   23  C1  UNL     1      19.192   5.099  49.993  1.00  0.00     0.053 C 
BRANCH  22  24
HETATM   24  O1  UNL     1      19.304   3.759  51.911  1.00  0.00    -0.354 OA
HETATM   25  C3  UNL     1      18.172   2.979  51.668  1.00  0.00     0.210 C 
ENDBRANCH  22  24
ENDBRANCH  21  22
BRANCH  21  26
HETATM   26  O3  UNL     1      21.923   5.690  50.111  1.00  0.00    -0.353 OA
HETATM   27  C18 UNL     1      22.322   6.893  50.796  1.00  0.00     0.210 C 
ENDBRANCH  21  26
ENDBRANCH   1  20
TORSDOF 4
ENDMDL
MODEL 7
REMARK VINA RESULT:      -7.6      3.197      4.540
REMARK  4 active torsions:
REMARK  status: ('A' for Active; 'I' for Inactive)
REMARK    1  A    between atoms: C2_2  and  O1_3 
REMARK    2  A    between atoms: C2_2  and  C4_5 
REMARK    3  A    between atoms: C4_5  and  O3_24 
REMARK    4  A    between atoms: C5_6  and  C6_7 
ROOT
HETATM    1  C6  UNL     1      23.372   3.001  52.784  1.00  0.00     0.051 C 
HETATM    2  C7  UNL     1      22.448   1.761  52.937  1.00  0.00    -0.024 A 
HETATM    3  C8  UNL     1      22.781   0.463  53.240  1.00  0.00     0.057 A 
HETATM    4  C9  UNL     1      22.992  -0.963  53.543  1.00  0.00     0.059 A 
HETATM    5  C10 UNL     1      21.679  -0.751  53.262  1.00  0.00     0.071 A 
HETATM    6  C11 UNL     1      20.778   0.243  52.910  1.00  0.00     0.057 A 
HETATM    7 CL1  UNL     1      19.080  -0.239  52.694  1.00  0.00    -0.085 Cl
HETATM    8  C12 UNL     1      21.095   1.572  52.719  1.00  0.00     0.138 A 
HETATM    9  F1  UNL     1      20.395   2.635  52.353  1.00  0.00    -0.204 F 
HETATM   10  N1  UNL     1      24.231  -0.552  53.601  1.00  0.00    -0.335 N 
HETATM   11  C13 UNL     1      25.560  -0.112  53.664  1.00  0.00     0.298 C 
HETATM   12  O2  UNL     1      25.930  -0.635  54.549  1.00  0.00    -0.254 OA
HETATM   13  N2  UNL     1      26.148   0.807  52.735  1.00  0.00    -0.221 NA
HETATM   14  C14 UNL     1      26.917   1.658  52.023  1.00  0.00     0.063 C 
HETATM   15  C15 UNL     1      25.882   2.581  51.739  1.00  0.00    -0.010 C 
HETATM   16  C16 UNL     1      24.525   2.468  52.158  1.00  0.00     0.017 C 
HETATM   17  C17 UNL     1      23.993   1.540  51.099  1.00  0.00     0.015 C 
HETATM   18  H10 UNL     1      23.941  -1.359  54.281  1.00  0.00     0.194 HD
HETATM   19  H11 UNL     1      27.012   0.850  53.373  1.00  0.00     0.137 HD
ENDROOT
BRANCH   1  20
HETATM   20  C5  UNL     1      22.618   4.048  52.126  1.00  0.00     0.022 C 
HETATM   21  C4  UNL     1      22.876   5.230  51.590  1.00  0.00     0.097 C 
BRANCH  21  22
HETATM   22  C2  UNL     1      21.689   5.926  51.026  1.00  0.00     0.091 C 
HETATM   23  C1  UNL     1      20.685   5.235  50.483  1.00  0.00     0.053 C 
BRANCH  22  24
HETATM   24  O1  UNL     1      21.572   7.331  51.041  1.00  0.00    -0.354 OA
HETATM   25  C3  UNL     1      21.635   8.126  49.895  1.00  0.00     0.210 C 
ENDBRANCH  22  24
ENDBRANCH  21  22
BRANCH  21  26
HETATM   26  O3  UNL     1      24.071   5.890  51.489  1.00  0.00    -0.353 OA
HETATM   27  C18 UNL     1      24.721   5.830  50.206  1.00  0.00     0.210 C 
ENDBRANCH  21  26
ENDBRANCH   1  20
TORSDOF 4
ENDMDL
MODEL 8
REMARK VINA RESULT:      -7.5      2.796      5.823
REMARK  4 active torsions:
REMARK  status: ('A' for Active; 'I' for Inactive)
REMARK    1  A    between atoms: C2_2  and  O1_3 
REMARK    2  A    between atoms: C2_2  and  C4_5 
REMARK    3  A    between atoms: C4_5  and  O3_24 
REMARK    4  A    between atoms: C5_6  and  C6_7 
ROOT
HETATM    1  C6  UNL     1      22.764   3.128  51.806  1.00  0.00     0.051 C 
HETATM    2  C7  UNL     1      24.170   2.466  51.781  1.00  0.00    -0.024 A 
HETATM    3  C8  UNL     1      25.333   2.923  51.210  1.00  0.00     0.057 A 
HETATM    4  C9  UNL     1      26.643   3.279  50.638  1.00  0.00     0.059 A 
HETATM    5  C10 UNL     1      26.714   2.040  51.190  1.00  0.00     0.071 A 
HETATM    6  C11 UNL     1      25.958   1.092  51.863  1.00  0.00     0.057 A 
HETATM    7 CL1  UNL     1      26.772  -0.421  52.320  1.00  0.00    -0.085 Cl
HETATM    8  C12 UNL     1      24.629   1.233  52.206  1.00  0.00     0.138 A 
HETATM    9  F1  UNL     1      23.750   0.442  52.802  1.00  0.00    -0.204 F 
HETATM   10  N1  UNL     1      25.958   4.327  50.260  1.00  0.00    -0.335 N 
HETATM   11  C13 UNL     1      25.224   5.450  49.855  1.00  0.00     0.298 C 
HETATM   12  O2  UNL     1      25.926   6.263  50.059  1.00  0.00    -0.254 OA
HETATM   13  N2  UNL     1      23.891   5.395  49.334  1.00  0.00    -0.221 NA
HETATM   14  C14 UNL     1      22.652   5.613  48.846  1.00  0.00     0.063 C 
HETATM   15  C15 UNL     1      22.021   4.595  49.601  1.00  0.00    -0.010 C 
HETATM   16  C16 UNL     1      22.664   3.721  50.524  1.00  0.00     0.017 C 
HETATM   17  C17 UNL     1      23.212   2.687  49.579  1.00  0.00     0.015 C 
HETATM   18  H10 UNL     1      27.013   4.483  50.508  1.00  0.00     0.194 HD
HETATM   19  H11 UNL     1      23.861   6.468  49.385  1.00  0.00     0.137 HD
ENDROOT
BRANCH   1  20
HETATM   20  C5  UNL     1      21.800   2.125  52.210  1.00  0.00     0.022 C 
HETATM   21  C4  UNL     1      20.523   2.101  52.557  1.00  0.00     0.097 C 
BRANCH  21  22
HETATM   22  C2  UNL     1      20.000   0.750  52.894  1.00  0.00     0.091 C 
HETATM   23  C1  UNL     1      20.500   0.058  53.917  1.00  0.00     0.053 C 
BRANCH  22  24
HETATM   24  O1  UNL     1      18.961   0.149  52.153  1.00  0.00    -0.354 OA
HETATM   25  C3  UNL     1      18.120  -0.843  52.663  1.00  0.00     0.210 C 
ENDBRANCH  22  24
ENDBRANCH  21  22
BRANCH  21  26
HETATM   26  O3  UNL     1      19.634   3.137  52.649  1.00  0.00    -0.353 OA
HETATM   27  C18 UNL     1      18.996   3.535  51.421  1.00  0.00     0.210 C 
ENDBRANCH  21  26
ENDBRANCH   1  20
TORSDOF 4
ENDMDL
MODEL 9
REMARK VINA RESULT:      -7.4      2.482      3.487
REMARK  4 active torsions:
REMARK  status: ('A' for Active; 'I' for Inactive)
REMARK    1  A    between atoms: C2_2  and  O1_3 
REMARK    2  A    between atoms: C2_2  and  C4_5 
REMARK    3  A    between atoms: C4_5  and  O3_24 
REMARK    4  A    between atoms: C5_6  and  C6_7 
ROOT
HETATM    1  C6  UNL     1      22.181   1.120  51.148  1.00  0.00     0.051 C 
HETATM    2  C7  UNL     1      22.275   0.249  52.431  1.00  0.00    -0.024 A 
HETATM    3  C8  UNL     1      21.271  -0.377  53.129  1.00  0.00     0.057 A 
HETATM    4  C9  UNL     1      20.301  -1.088  53.980  1.00  0.00     0.059 A 
HETATM    5  C10 UNL     1      21.538  -1.180  54.533  1.00  0.00     0.071 A 
HETATM    6  C11 UNL     1      22.858  -0.800  54.343  1.00  0.00     0.057 A 
HETATM    7 CL1  UNL     1      24.039  -1.319  55.566  1.00  0.00    -0.085 Cl
HETATM    8  C12 UNL     1      23.325  -0.055  53.279  1.00  0.00     0.138 A 
HETATM    9  F1  UNL     1      24.514   0.426  52.952  1.00  0.00    -0.204 F 
HETATM   10  N1  UNL     1      19.478  -0.600  53.089  1.00  0.00    -0.335 N 
HETATM   11  C13 UNL     1      18.597  -0.077  52.133  1.00  0.00     0.298 C 
HETATM   12  O2  UNL     1      17.933  -0.925  51.951  1.00  0.00    -0.254 OA
HETATM   13  N2  UNL     1      18.675   1.255  51.609  1.00  0.00    -0.221 NA
HETATM   14  C14 UNL     1      18.548   2.428  50.955  1.00  0.00     0.063 C 
HETATM   15  C15 UNL     1      19.936   2.681  50.845  1.00  0.00    -0.010 C 
HETATM   16  C16 UNL     1      20.979   1.843  51.336  1.00  0.00     0.017 C 
HETATM   17  C17 UNL     1      21.010   2.273  52.778  1.00  0.00     0.015 C 
HETATM   18  H10 UNL     1      19.231  -1.578  53.512  1.00  0.00     0.194 HD
HETATM   19  H11 UNL     1      17.922   0.983  50.892  1.00  0.00     0.137 HD
ENDROOT
BRANCH   1  20
HETATM   20  C5  UNL     1      23.432   1.835  50.995  1.00  0.00     0.022 C 
HETATM   21  C4  UNL     1      23.864   2.887  50.319  1.00  0.00     0.097 C 
BRANCH  21  22
HETATM   22  C2  UNL     1      25.300   3.210  50.528  1.00  0.00     0.091 C 
HETATM   23  C1  UNL     1      26.142   2.298  51.015  1.00  0.00     0.053 C 
BRANCH  22  24
HETATM   24  O1  UNL     1      25.830   4.480  50.222  1.00  0.00    -0.354 OA
HETATM   25  C3  UNL     1      26.636   4.736  49.111  1.00  0.00     0.210 C 
ENDBRANCH  22  24
ENDBRANCH  21  22
BRANCH  21  26
HETATM   26  O3  UNL     1      23.176   3.705  49.463  1.00  0.00    -0.353 OA
HETATM   27  C18 UNL     1      22.745   3.109  48.225  1.00  0.00     0.210 C 
ENDBRANCH  21  26
ENDBRANCH   1  20
TORSDOF 4
ENDMDL
