MODEL 1
REMARK VINA RESULT:      -7.6      0.000      0.000
REMARK  6 active torsions:
REMARK  status: ('A' for Active; 'I' for Inactive)
REMARK    1  A    between atoms: C2_2  and  O1_3 
REMARK    2  A    between atoms: O1_3  and  C3_4 
REMARK    3  A    between atoms: N3_11  and  C8_12 
REMARK    4  A    between atoms: C11_15  and  O2_16 
REMARK    5  A    between atoms: O2_16  and  C12_17 
REMARK    6  A    between atoms: C12_17  and  C13_18 
ROOT
HETATM    1  C3  UNL     1      26.579   0.754  54.378  1.00  0.00     0.049 C 
HETATM    2  C4  UNL     1      25.837  -0.341  54.620  1.00  0.00     0.051 C 
HETATM    3  C5  UNL     1      24.454  -0.564  54.159  1.00  0.00     0.120 C 
HETATM    4  N1  UNL     1      23.254  -0.594  53.672  1.00  0.00    -0.254 NA
HETATM    5  C6  UNL     1      22.684   0.462  52.867  1.00  0.00     0.228 C 
HETATM    6  N2  UNL     1      23.646   0.911  52.225  1.00  0.00    -0.263 NA
HETATM    7  C7  UNL     1      23.886   1.908  51.276  1.00  0.00     0.274 C 
HETATM    8  N3  UNL     1      25.274   2.383  51.263  1.00  0.00    -0.362 N 
HETATM    9  C18 UNL     1      26.113   1.589  52.145  1.00  0.00     0.131 C 
HETATM   10  C19 UNL     1      25.797   1.764  53.578  1.00  0.00     0.084 C 
ENDROOT
BRANCH   8  11
HETATM   11  C8  UNL     1      25.672   3.477  50.448  1.00  0.00     0.031 A 
HETATM   12  C9  UNL     1      26.785   3.492  49.638  1.00  0.00     0.032 A 
HETATM   13  C10 UNL     1      27.106   4.603  48.876  1.00  0.00     0.039 A 
HETATM   14  C11 UNL     1      26.338   5.743  48.884  1.00  0.00     0.068 A 
HETATM   15  C16 UNL     1      25.220   5.705  49.708  1.00  0.00     0.039 A 
HETATM   16  C17 UNL     1      24.887   4.608  50.473  1.00  0.00     0.032 A 
BRANCH  14  17
HETATM   17  O2  UNL     1      26.687   6.839  48.108  1.00  0.00    -0.351 OA
BRANCH  17  18
HETATM   18  C12 UNL     1      27.917   7.472  48.434  1.00  0.00     0.180 C 
BRANCH  18  19
HETATM   19  C13 UNL     1      28.843   7.270  47.252  1.00  0.00     0.010 A 
HETATM   20  C14 UNL     1      30.224   7.911  47.325  1.00  0.00     0.007 A 
HETATM   21  C15 UNL     1      30.058   6.444  47.547  1.00  0.00     0.007 A 
ENDBRANCH  18  19
ENDBRANCH  17  18
ENDBRANCH  14  17
ENDBRANCH   8  11
BRANCH   1  22
HETATM   22  O1  UNL     1      27.817   0.608  54.947  1.00  0.00    -0.356 OA
BRANCH  22  23
HETATM   23  C2  UNL     1      29.052   0.800  54.321  1.00  0.00     0.170 C 
HETATM   24  C1  UNL     1      29.549  -0.564  53.822  1.00  0.00     0.034 C 
ENDBRANCH  22  23
ENDBRANCH   1  22
TORSDOF 6
ENDMDL
MODEL 2
REMARK VINA RESULT:      -7.3      1.540      2.142
REMARK  6 active torsions:
REMARK  status: ('A' for Active; 'I' for Inactive)
REMARK    1  A    between atoms: C2_2  and  O1_3 
REMARK    2  A    between atoms: O1_3  and  C3_4 
REMARK    3  A    between atoms: N3_11  and  C8_12 
REMARK    4  A    between atoms: C11_15  and  O2_16 
REMARK    5  A    between atoms: O2_16  and  C12_17 
REMARK    6  A    between atoms: C12_17  and  C13_18 
ROOT
HETATM    1  C3  UNL     1      26.526   1.033  54.256  1.00  0.00     0.049 C 
HETATM    2  C4  UNL     1      25.818  -0.096  54.436  1.00  0.00     0.051 C 
HETATM    3  C5  UNL     1      24.484  -0.375  53.875  1.00  0.00     0.120 C 
HETATM    4  N1  UNL     1      23.324  -0.454  53.302  1.00  0.00    -0.254 NA
HETATM    5  C6  UNL     1      22.767   0.584  52.465  1.00  0.00     0.228 C 
HETATM    6  N2  UNL     1      23.751   1.081  51.897  1.00  0.00    -0.263 NA
HETATM    7  C7  UNL     1      24.014   2.097  50.974  1.00  0.00     0.274 C 
HETATM    8  N3  UNL     1      25.377   2.632  51.065  1.00  0.00    -0.362 N 
HETATM    9  C18 UNL     1      26.186   1.868  52.000  1.00  0.00     0.131 C 
HETATM   10  C19 UNL     1      25.759   2.016  53.408  1.00  0.00     0.084 C 
ENDROOT
BRANCH   8  11
HETATM   11  C8  UNL     1      25.784   3.751  50.288  1.00  0.00     0.031 A 
HETATM   12  C9  UNL     1      26.868   3.769  49.440  1.00  0.00     0.032 A 
HETATM   13  C10 UNL     1      27.200   4.904  48.720  1.00  0.00     0.039 A 
HETATM   14  C11 UNL     1      26.471   6.066  48.808  1.00  0.00     0.068 A 
HETATM   15  C16 UNL     1      25.382   6.025  49.669  1.00  0.00     0.039 A 
HETATM   16  C17 UNL     1      25.038   4.904  50.393  1.00  0.00     0.032 A 
BRANCH  14  17
HETATM   17  O2  UNL     1      26.830   7.186  48.072  1.00  0.00    -0.351 OA
BRANCH  17  18
HETATM   18  C12 UNL     1      25.848   8.210  47.969  1.00  0.00     0.180 C 
BRANCH  18  19
HETATM   19  C13 UNL     1      25.189   8.053  46.614  1.00  0.00     0.010 A 
HETATM   20  C14 UNL     1      23.759   7.525  46.586  1.00  0.00     0.007 A 
HETATM   21  C15 UNL     1      24.033   8.977  46.374  1.00  0.00     0.007 A 
ENDBRANCH  18  19
ENDBRANCH  17  18
ENDBRANCH  14  17
ENDBRANCH   8  11
BRANCH   1  22
HETATM   22  O1  UNL     1      27.725   0.936  54.912  1.00  0.00    -0.356 OA
BRANCH  22  23
HETATM   23  C2  UNL     1      28.675  -0.080  54.770  1.00  0.00     0.170 C 
HETATM   24  C1  UNL     1      29.528   0.236  53.534  1.00  0.00     0.034 C 
ENDBRANCH  22  23
ENDBRANCH   1  22
TORSDOF 6
ENDMDL
MODEL 3
REMARK VINA RESULT:      -7.2      3.768      8.420
REMARK  6 active torsions:
REMARK  status: ('A' for Active; 'I' for Inactive)
REMARK    1  A    between atoms: C2_2  and  O1_3 
REMARK    2  A    between atoms: O1_3  and  C3_4 
REMARK    3  A    between atoms: N3_11  and  C8_12 
REMARK    4  A    between atoms: C11_15  and  O2_16 
REMARK    5  A    between atoms: O2_16  and  C12_17 
REMARK    6  A    between atoms: C12_17  and  C13_18 
ROOT
HETATM    1  C3  UNL     1      26.782   2.143  52.201  1.00  0.00     0.049 C 
HETATM    2  C4  UNL     1      27.841   1.500  52.722  1.00  0.00     0.051 C 
HETATM    3  C5  UNL     1      27.811   0.587  53.880  1.00  0.00     0.120 C 
HETATM    4  N1  UNL     1      27.602  -0.184  54.901  1.00  0.00    -0.254 NA
HETATM    5  C6  UNL     1      26.300  -0.411  55.485  1.00  0.00     0.228 C 
HETATM    6  N2  UNL     1      25.519  -0.362  54.523  1.00  0.00    -0.263 NA
HETATM    7  C7  UNL     1      24.145  -0.479  54.294  1.00  0.00     0.274 C 
HETATM    8  N3  UNL     1      23.694   0.205  53.078  1.00  0.00    -0.362 N 
HETATM    9  C18 UNL     1      24.817   0.720  52.311  1.00  0.00     0.131 C 
HETATM   10  C19 UNL     1      25.530   1.829  52.978  1.00  0.00     0.084 C 
ENDROOT
BRANCH   8  11
HETATM   11  C8  UNL     1      22.314   0.295  52.750  1.00  0.00     0.031 A 
HETATM   12  C9  UNL     1      21.810   0.348  51.470  1.00  0.00     0.032 A 
HETATM   13  C10 UNL     1      20.447   0.439  51.237  1.00  0.00     0.039 A 
HETATM   14  C11 UNL     1      19.531   0.480  52.259  1.00  0.00     0.068 A 
HETATM   15  C16 UNL     1      20.061   0.425  53.542  1.00  0.00     0.039 A 
HETATM   16  C17 UNL     1      21.414   0.334  53.791  1.00  0.00     0.032 A 
BRANCH  14  17
HETATM   17  O2  UNL     1      18.172   0.571  51.991  1.00  0.00    -0.351 OA
BRANCH  17  18
HETATM   18  C12 UNL     1      17.522  -0.641  51.628  1.00  0.00     0.180 C 
BRANCH  18  19
HETATM   19  C13 UNL     1      16.971  -1.244  52.905  1.00  0.00     0.010 A 
HETATM   20  C14 UNL     1      16.280  -2.599  52.798  1.00  0.00     0.007 A 
HETATM   21  C15 UNL     1      17.664  -2.497  53.349  1.00  0.00     0.007 A 
ENDBRANCH  18  19
ENDBRANCH  17  18
ENDBRANCH  14  17
ENDBRANCH   8  11
BRANCH   1  22
HETATM   22  O1  UNL     1      27.181   2.893  51.126  1.00  0.00    -0.356 OA
BRANCH  22  23
HETATM   23  C2  UNL     1      26.462   3.111  49.946  1.00  0.00     0.170 C 
HETATM   24  C1  UNL     1      25.597   4.365  50.142  1.00  0.00     0.034 C 
ENDBRANCH  22  23
ENDBRANCH   1  22
TORSDOF 6
ENDMDL
MODEL 4
REMARK VINA RESULT:      -7.0      1.751      2.237
REMARK  6 active torsions:
REMARK  status: ('A' for Active; 'I' for Inactive)
REMARK    1  A    between atoms: C2_2  and  O1_3 
REMARK    2  A    between atoms: O1_3  and  C3_4 
REMARK    3  A    between atoms: N3_11  and  C8_12 
REMARK    4  A    between atoms: C11_15  and  O2_16 
REMARK    5  A    between atoms: O2_16  and  C12_17 
REMARK    6  A    between atoms: C12_17  and  C13_18 
ROOT
HETATM    1  C3  UNL     1      24.537   0.435  53.440  1.00  0.00     0.049 C 
HETATM    2  C4  UNL     1      23.331  -0.136  53.604  1.00  0.00     0.051 C 
HETATM    3  C5  UNL     1      22.033   0.480  53.270  1.00  0.00     0.120 C 
HETATM    4  N1  UNL     1      20.992   1.167  52.918  1.00  0.00    -0.254 NA
HETATM    5  C6  UNL     1      21.057   2.488  52.337  1.00  0.00     0.228 C 
HETATM    6  N2  UNL     1      22.099   2.476  51.663  1.00  0.00    -0.263 NA
HETATM    7  C7  UNL     1      22.816   3.351  50.844  1.00  0.00     0.274 C 
HETATM    8  N3  UNL     1      24.243   3.027  50.746  1.00  0.00    -0.362 N 
HETATM    9  C18 UNL     1      24.547   1.770  51.411  1.00  0.00     0.131 C 
HETATM   10  C19 UNL     1      24.399   1.828  52.880  1.00  0.00     0.084 C 
ENDROOT
BRANCH   8  11
HETATM   11  C8  UNL     1      25.148   3.877  50.054  1.00  0.00     0.031 A 
HETATM   12  C9  UNL     1      26.418   3.521  49.658  1.00  0.00     0.032 A 
HETATM   13  C10 UNL     1      27.239   4.414  48.990  1.00  0.00     0.039 A 
HETATM   14  C11 UNL     1      26.838   5.692  48.686  1.00  0.00     0.068 A 
HETATM   15  C16 UNL     1      25.554   6.029  49.094  1.00  0.00     0.039 A 
HETATM   16  C17 UNL     1      24.723   5.154  49.760  1.00  0.00     0.032 A 
BRANCH  14  17
HETATM   17  O2  UNL     1      27.686   6.561  48.014  1.00  0.00    -0.351 OA
BRANCH  17  18
HETATM   18  C12 UNL     1      27.297   7.929  47.998  1.00  0.00     0.180 C 
BRANCH  18  19
HETATM   19  C13 UNL     1      28.195   8.653  48.981  1.00  0.00     0.010 A 
HETATM   20  C14 UNL     1      28.037  10.166  49.092  1.00  0.00     0.007 A 
HETATM   21  C15 UNL     1      27.476   9.267  50.144  1.00  0.00     0.007 A 
ENDBRANCH  18  19
ENDBRANCH  17  18
ENDBRANCH  14  17
ENDBRANCH   8  11
BRANCH   1  22
HETATM   22  O1  UNL     1      25.517  -0.433  53.844  1.00  0.00    -0.356 OA
BRANCH  22  23
HETATM   23  C2  UNL     1      26.365  -1.179  53.019  1.00  0.00     0.170 C 
HETATM   24  C1  UNL     1      27.756  -0.531  53.057  1.00  0.00     0.034 C 
ENDBRANCH  22  23
ENDBRANCH   1  22
TORSDOF 6
ENDMDL
MODEL 5
REMARK VINA RESULT:      -6.9      3.823      8.813
REMARK  6 active torsions:
REMARK  status: ('A' for Active; 'I' for Inactive)
REMARK    1  A    between atoms: C2_2  and  O1_3 
REMARK    2  A    between atoms: O1_3  and  C3_4 
REMARK    3  A    between atoms: N3_11  and  C8_12 
REMARK    4  A    between atoms: C11_15  and  O2_16 
REMARK    5  A    between atoms: O2_16  and  C12_17 
REMARK    6  A    between atoms: C12_17  and  C13_18 
ROOT
HETATM    1  C3  UNL     1      26.570   0.686  53.205  1.00  0.00     0.049 C 
HETATM    2  C4  UNL     1      27.337   1.705  52.778  1.00  0.00     0.051 C 
HETATM    3  C5  UNL     1      27.046   2.578  51.626  1.00  0.00     0.120 C 
HETATM    4  N1  UNL     1      26.635   3.247  50.594  1.00  0.00    -0.254 NA
HETATM    5  C6  UNL     1      25.395   2.979  49.903  1.00  0.00     0.228 C 
HETATM    6  N2  UNL     1      24.622   2.600  50.796  1.00  0.00    -0.263 NA
HETATM    7  C7  UNL     1      23.296   2.173  50.909  1.00  0.00     0.274 C 
HETATM    8  N3  UNL     1      23.051   1.325  52.080  1.00  0.00    -0.362 N 
HETATM    9  C18 UNL     1      24.224   1.252  52.936  1.00  0.00     0.131 C 
HETATM   10  C19 UNL     1      25.357   0.525  52.326  1.00  0.00     0.084 C 
ENDROOT
BRANCH   8  11
HETATM   11  C8  UNL     1      21.791   0.701  52.290  1.00  0.00     0.031 A 
HETATM   12  C9  UNL     1      20.731   0.750  51.412  1.00  0.00     0.032 A 
HETATM   13  C10 UNL     1      19.533   0.117  51.695  1.00  0.00     0.039 A 
HETATM   14  C11 UNL     1      19.335  -0.591  52.856  1.00  0.00     0.068 A 
HETATM   15  C16 UNL     1      20.417  -0.627  53.727  1.00  0.00     0.039 A 
HETATM   16  C17 UNL     1      21.617  -0.003  53.460  1.00  0.00     0.032 A 
BRANCH  14  17
HETATM   17  O2  UNL     1      18.122  -1.214  53.109  1.00  0.00    -0.351 OA
BRANCH  17  18
HETATM   18  C12 UNL     1      18.170  -2.367  53.941  1.00  0.00     0.180 C 
BRANCH  18  19
HETATM   19  C13 UNL     1      17.556  -3.506  53.151  1.00  0.00     0.010 A 
HETATM   20  C14 UNL     1      16.528  -4.378  53.862  1.00  0.00     0.007 A 
HETATM   21  C15 UNL     1      16.092  -3.350  52.871  1.00  0.00     0.007 A 
ENDBRANCH  18  19
ENDBRANCH  17  18
ENDBRANCH  14  17
ENDBRANCH   8  11
BRANCH   1  22
HETATM   22  O1  UNL     1      27.144   0.108  54.307  1.00  0.00    -0.356 OA
BRANCH  22  23
HETATM   23  C2  UNL     1      28.512  -0.046  54.553  1.00  0.00     0.170 C 
HETATM   24  C1  UNL     1      29.052  -1.110  53.588  1.00  0.00     0.034 C 
ENDBRANCH  22  23
ENDBRANCH   1  22
TORSDOF 6
ENDMDL
MODEL 6
REMARK VINA RESULT:      -6.9      2.206      3.962
REMARK  6 active torsions:
REMARK  status: ('A' for Active; 'I' for Inactive)
REMARK    1  A    between atoms: C2_2  and  O1_3 
REMARK    2  A    between atoms: O1_3  and  C3_4 
REMARK    3  A    between atoms: N3_11  and  C8_12 
REMARK    4  A    between atoms: C11_15  and  O2_16 
REMARK    5  A    between atoms: O2_16  and  C12_17 
REMARK    6  A    between atoms: C12_17  and  C13_18 
ROOT
HETATM    1  C3  UNL     1      21.949  -0.091  53.153  1.00  0.00     0.049 C 
HETATM    2  C4  UNL     1      22.164  -0.704  54.330  1.00  0.00     0.051 C 
HETATM    3  C5  UNL     1      23.483  -0.998  54.920  1.00  0.00     0.120 C 
HETATM    4  N1  UNL     1      24.713  -1.173  55.289  1.00  0.00    -0.254 NA
HETATM    5  C6  UNL     1      25.854  -0.723  54.526  1.00  0.00     0.228 C 
HETATM    6  N2  UNL     1      25.469   0.326  53.987  1.00  0.00    -0.263 NA
HETATM    7  C7  UNL     1      25.982   1.301  53.127  1.00  0.00     0.274 C 
HETATM    8  N3  UNL     1      24.949   2.016  52.370  1.00  0.00    -0.362 N 
HETATM    9  C18 UNL     1      23.615   1.642  52.809  1.00  0.00     0.131 C 
HETATM   10  C19 UNL     1      23.254   0.247  52.479  1.00  0.00     0.084 C 
ENDROOT
BRANCH   8  11
HETATM   11  C8  UNL     1      25.292   2.956  51.361  1.00  0.00     0.031 A 
HETATM   12  C9  UNL     1      26.355   2.831  50.495  1.00  0.00     0.032 A 
HETATM   13  C10 UNL     1      26.623   3.798  49.540  1.00  0.00     0.039 A 
HETATM   14  C11 UNL     1      25.850   4.925  49.403  1.00  0.00     0.068 A 
HETATM   15  C16 UNL     1      24.783   5.031  50.286  1.00  0.00     0.039 A 
HETATM   16  C17 UNL     1      24.503   4.078  51.242  1.00  0.00     0.032 A 
BRANCH  14  17
HETATM   17  O2  UNL     1      26.146   5.875  48.435  1.00  0.00    -0.351 OA
BRANCH  17  18
HETATM   18  C12 UNL     1      27.101   6.864  48.797  1.00  0.00     0.180 C 
BRANCH  18  19
HETATM   19  C13 UNL     1      28.252   6.743  47.820  1.00  0.00     0.010 A 
HETATM   20  C14 UNL     1      29.643   7.109  48.326  1.00  0.00     0.007 A 
HETATM   21  C15 UNL     1      29.250   5.678  48.162  1.00  0.00     0.007 A 
ENDBRANCH  18  19
ENDBRANCH  17  18
ENDBRANCH  14  17
ENDBRANCH   8  11
BRANCH   1  22
HETATM   22  O1  UNL     1      20.601   0.025  52.932  1.00  0.00    -0.356 OA
BRANCH  22  23
HETATM   23  C2  UNL     1      19.980   0.418  51.742  1.00  0.00     0.170 C 
HETATM   24  C1  UNL     1      18.548  -0.137  51.748  1.00  0.00     0.034 C 
ENDBRANCH  22  23
ENDBRANCH   1  22
TORSDOF 6
ENDMDL
MODEL 7
REMARK VINA RESULT:      -6.8      3.977      7.885
REMARK  6 active torsions:
REMARK  status: ('A' for Active; 'I' for Inactive)
REMARK    1  A    between atoms: C2_2  and  O1_3 
REMARK    2  A    between atoms: O1_3  and  C3_4 
REMARK    3  A    between atoms: N3_11  and  C8_12 
REMARK    4  A    between atoms: C11_15  and  O2_16 
REMARK    5  A    between atoms: O2_16  and  C12_17 
REMARK    6  A    between atoms: C12_17  and  C13_18 
ROOT
HETATM    1  C3  UNL     1      26.569   2.066  52.080  1.00  0.00     0.049 C 
HETATM    2  C4  UNL     1      27.643   1.496  52.653  1.00  0.00     0.051 C 
HETATM    3  C5  UNL     1      27.628   0.639  53.853  1.00  0.00     0.120 C 
HETATM    4  N1  UNL     1      27.430  -0.090  54.906  1.00  0.00    -0.254 NA
HETATM    5  C6  UNL     1      26.127  -0.345  55.476  1.00  0.00     0.228 C 
HETATM    6  N2  UNL     1      25.365  -0.378  54.497  1.00  0.00    -0.263 NA
HETATM    7  C7  UNL     1      24.003  -0.566  54.248  1.00  0.00     0.274 C 
HETATM    8  N3  UNL     1      23.549   0.038  52.991  1.00  0.00    -0.362 N 
HETATM    9  C18 UNL     1      24.665   0.564  52.222  1.00  0.00     0.131 C 
HETATM   10  C19 UNL     1      25.314   1.735  52.848  1.00  0.00     0.084 C 
ENDROOT
BRANCH   8  11
HETATM   11  C8  UNL     1      22.174   0.051  52.632  1.00  0.00     0.031 A 
HETATM   12  C9  UNL     1      21.680   0.461  51.414  1.00  0.00     0.032 A 
HETATM   13  C10 UNL     1      20.322   0.446  51.146  1.00  0.00     0.039 A 
HETATM   14  C11 UNL     1      19.398   0.024  52.072  1.00  0.00     0.068 A 
HETATM   15  C16 UNL     1      19.917  -0.386  53.293  1.00  0.00     0.039 A 
HETATM   16  C17 UNL     1      21.266  -0.377  53.576  1.00  0.00     0.032 A 
BRANCH  14  17
HETATM   17  O2  UNL     1      18.043   0.020  51.771  1.00  0.00    -0.351 OA
BRANCH  17  18
HETATM   18  C12 UNL     1      17.675   0.609  50.530  1.00  0.00     0.180 C 
BRANCH  18  19
HETATM   19  C13 UNL     1      16.904   1.873  50.854  1.00  0.00     0.010 A 
HETATM   20  C14 UNL     1      16.698   2.878  49.726  1.00  0.00     0.007 A 
HETATM   21  C15 UNL     1      15.580   1.989  50.161  1.00  0.00     0.007 A 
ENDBRANCH  18  19
ENDBRANCH  17  18
ENDBRANCH  14  17
ENDBRANCH   8  11
BRANCH   1  22
HETATM   22  O1  UNL     1      26.958   2.780  50.977  1.00  0.00    -0.356 OA
BRANCH  22  23
HETATM   23  C2  UNL     1      26.190   3.714  50.273  1.00  0.00     0.170 C 
HETATM   24  C1  UNL     1      27.060   4.290  49.147  1.00  0.00     0.034 C 
ENDBRANCH  22  23
ENDBRANCH   1  22
TORSDOF 6
ENDMDL
MODEL 8
REMARK VINA RESULT:      -6.6      2.396      7.739
REMARK  6 active torsions:
REMARK  status: ('A' for Active; 'I' for Inactive)
REMARK    1  A    between atoms: C2_2  and  O1_3 
REMARK    2  A    between atoms: O1_3  and  C3_4 
REMARK    3  A    between atoms: N3_11  and  C8_12 
REMARK    4  A    between atoms: C11_15  and  O2_16 
REMARK    5  A    between atoms: O2_16  and  C12_17 
REMARK    6  A    between atoms: C12_17  and  C13_18 
ROOT
HETATM    1  C3  UNL     1      26.639   7.217  48.269  1.00  0.00     0.049 C 
HETATM    2  C4  UNL     1      25.696   8.001  47.717  1.00  0.00     0.051 C 
HETATM    3  C5  UNL     1      24.321   7.589  47.379  1.00  0.00     0.120 C 
HETATM    4  N1  UNL     1      23.160   7.061  47.152  1.00  0.00    -0.254 NA
HETATM    5  C6  UNL     1      22.816   5.697  47.482  1.00  0.00     0.228 C 
HETATM    6  N2  UNL     1      23.458   5.461  48.517  1.00  0.00    -0.263 NA
HETATM    7  C7  UNL     1      23.645   4.397  49.404  1.00  0.00     0.274 C 
HETATM    8  N3  UNL     1      24.915   4.458  50.133  1.00  0.00    -0.362 N 
HETATM    9  C18 UNL     1      25.618   5.704  49.871  1.00  0.00     0.131 C 
HETATM   10  C19 UNL     1      26.114   5.821  48.484  1.00  0.00     0.084 C 
ENDROOT
BRANCH   8  11
HETATM   11  C8  UNL     1      25.328   3.399  50.987  1.00  0.00     0.031 A 
HETATM   12  C9  UNL     1      26.421   2.591  50.768  1.00  0.00     0.032 A 
HETATM   13  C10 UNL     1      26.753   1.576  51.649  1.00  0.00     0.039 A 
HETATM   14  C11 UNL     1      26.019   1.321  52.782  1.00  0.00     0.068 A 
HETATM   15  C16 UNL     1      24.922   2.148  52.984  1.00  0.00     0.039 A 
HETATM   16  C17 UNL     1      24.578   3.163  52.117  1.00  0.00     0.032 A 
BRANCH  14  17
HETATM   17  O2  UNL     1      26.380   0.296  53.646  1.00  0.00    -0.351 OA
BRANCH  17  18
HETATM   18  C12 UNL     1      27.339  -0.631  53.153  1.00  0.00     0.180 C 
BRANCH  18  19
HETATM   19  C13 UNL     1      28.529  -0.574  54.091  1.00  0.00     0.010 A 
HETATM   20  C14 UNL     1      29.898  -0.904  53.508  1.00  0.00     0.007 A 
HETATM   21  C15 UNL     1      29.513   0.513  53.781  1.00  0.00     0.007 A 
ENDBRANCH  18  19
ENDBRANCH  17  18
ENDBRANCH  14  17
ENDBRANCH   8  11
BRANCH   1  22
HETATM   22  O1  UNL     1      27.789   7.939  48.454  1.00  0.00    -0.356 OA
BRANCH  22  23
HETATM   23  C2  UNL     1      27.882   9.264  48.890  1.00  0.00     0.170 C 
HETATM   24  C1  UNL     1      27.417   9.318  50.352  1.00  0.00     0.034 C 
ENDBRANCH  22  23
ENDBRANCH   1  22
TORSDOF 6
ENDMDL
MODEL 9
REMARK VINA RESULT:      -6.6      3.994      7.755
REMARK  6 active torsions:
REMARK  status: ('A' for Active; 'I' for Inactive)
REMARK    1  A    between atoms: C2_2  and  O1_3 
REMARK    2  A    between atoms: O1_3  and  C3_4 
REMARK    3  A    between atoms: N3_11  and  C8_12 
REMARK    4  A    between atoms: C11_15  and  O2_16 
REMARK    5  A    between atoms: O2_16  and  C12_17 
REMARK    6  A    between atoms: C12_17  and  C13_18 
ROOT
HETATM    1  C3  UNL     1      21.058   4.645  50.025  1.00  0.00     0.049 C 
HETATM    2  C4  UNL     1      19.779   5.031  50.182  1.00  0.00     0.051 C 
HETATM    3  C5  UNL     1      18.686   4.194  50.709  1.00  0.00     0.120 C 
HETATM    4  N1  UNL     1      17.853   3.326  51.193  1.00  0.00    -0.254 NA
HETATM    5  C6  UNL     1      18.226   1.989  51.595  1.00  0.00     0.228 C 
HETATM    6  N2  UNL     1      19.381   2.111  52.031  1.00  0.00    -0.263 NA
HETATM    7  C7  UNL     1      20.376   1.296  52.578  1.00  0.00     0.274 C 
HETATM    8  N3  UNL     1      21.730   1.832  52.410  1.00  0.00    -0.362 N 
HETATM    9  C18 UNL     1      21.704   3.170  51.842  1.00  0.00     0.131 C 
HETATM   10  C19 UNL     1      21.239   3.208  50.440  1.00  0.00     0.084 C 
ENDROOT
BRANCH   8  11
HETATM   11  C8  UNL     1      22.874   1.082  52.796  1.00  0.00     0.031 A 
HETATM   12  C9  UNL     1      22.852  -0.021  53.620  1.00  0.00     0.032 A 
HETATM   13  C10 UNL     1      24.016  -0.695  53.952  1.00  0.00     0.039 A 
HETATM   14  C11 UNL     1      25.247  -0.306  53.480  1.00  0.00     0.068 A 
HETATM   15  C16 UNL     1      25.245   0.808  52.651  1.00  0.00     0.039 A 
HETATM   16  C17 UNL     1      24.096   1.490  52.311  1.00  0.00     0.032 A 
BRANCH  14  17
HETATM   17  O2  UNL     1      26.394  -1.003  53.831  1.00  0.00    -0.351 OA
BRANCH  17  18
HETATM   18  C12 UNL     1      27.471  -0.944  52.905  1.00  0.00     0.180 C 
BRANCH  18  19
HETATM   19  C13 UNL     1      28.742  -0.788  53.717  1.00  0.00     0.010 A 
HETATM   20  C14 UNL     1      29.420   0.577  53.702  1.00  0.00     0.007 A 
HETATM   21  C15 UNL     1      28.621   0.142  54.886  1.00  0.00     0.007 A 
ENDBRANCH  18  19
ENDBRANCH  17  18
ENDBRANCH  14  17
ENDBRANCH   8  11
BRANCH   1  22
HETATM   22  O1  UNL     1      21.795   5.686  49.524  1.00  0.00    -0.356 OA
BRANCH  22  23
HETATM   23  C2  UNL     1      21.804   6.145  48.203  1.00  0.00     0.170 C 
HETATM   24  C1  UNL     1      22.453   5.062  47.329  1.00  0.00     0.034 C 
ENDBRANCH  22  23
ENDBRANCH   1  22
TORSDOF 6
ENDMDL
