MODEL 1
REMARK VINA RESULT:      -8.0      0.000      0.000
REMARK  6 active torsions:
REMARK  status: ('A' for Active; 'I' for Inactive)
REMARK    1  A    between atoms: C3_3  and  C4_4 
REMARK    2  A    between atoms: C3_3  and  N1_8 
REMARK    3  A    between atoms: N1_8  and  C6_9 
REMARK    4  A    between atoms: C10_15  and  O1_16 
REMARK    5  A    between atoms: C13_19  and  O2_20 
REMARK    6  A    between atoms: O2_20  and  C14_21 
ROOT
HETATM    1  C6  UNL     1      23.804  -0.303  53.736  1.00  0.00     0.144 A 
HETATM    2  N2  UNL     1      24.211  -0.956  54.837  1.00  0.00    -0.223 NA
HETATM    3  C7  UNL     1      23.234  -1.574  55.562  1.00  0.00     0.236 A 
HETATM    4  N3  UNL     1      21.941  -1.542  55.208  1.00  0.00    -0.241 NA
HETATM    5  C8  UNL     1      21.601  -0.873  54.097  1.00  0.00     0.077 A 
HETATM    6  C9  UNL     1      20.259  -0.858  53.757  1.00  0.00     0.069 A 
HETATM    7  C10 UNL     1      19.800  -0.190  52.616  1.00  0.00     0.073 A 
HETATM    8  C12 UNL     1      20.781   0.440  51.875  1.00  0.00     0.074 A 
HETATM    9  C13 UNL     1      22.127   0.455  52.171  1.00  0.00     0.088 A 
HETATM   10  C18 UNL     1      22.514  -0.221  53.307  1.00  0.00     0.072 A 
ENDROOT
BRANCH   1  11
HETATM   11  N1  UNL     1      24.845   0.320  53.018  1.00  0.00    -0.340 N 
HETATM   12  H6  UNL     1      25.205   1.057  52.384  1.00  0.00     0.167 HD
BRANCH  11  13
HETATM   13  C3  UNL     1      26.188  -0.208  53.083  1.00  0.00     0.033 C 
HETATM   14  C2  UNL     1      26.459  -1.437  52.611  1.00  0.00    -0.002 C 
HETATM   15  C1  UNL     1      27.834  -1.936  52.696  1.00  0.00     0.038 C 
BRANCH  13  16
HETATM   16  C4  UNL     1      27.230   0.617  53.667  1.00  0.00     0.084 C 
HETATM   17  C5  UNL     1      27.723   1.658  53.022  1.00  0.00     0.188 C 
HETATM   18  F1  UNL     1      27.342   2.076  51.792  1.00  0.00    -0.193 F 
HETATM   19 CL1  UNL     1      28.979   2.667  53.707  1.00  0.00    -0.051 Cl
ENDBRANCH  13  16
ENDBRANCH  11  13
ENDBRANCH   1  11
BRANCH   9  20
HETATM   20  O2  UNL     1      23.072   1.085  51.421  1.00  0.00    -0.343 OA
BRANCH  20  21
HETATM   21  C14 UNL     1      23.063   2.352  50.857  1.00  0.00     0.154 C 
HETATM   22  C15 UNL     1      22.777   3.356  51.980  1.00  0.00     0.061 C 
HETATM   23  C16 UNL     1      23.905   4.341  51.981  1.00  0.00     0.170 C 
HETATM   24  O3  UNL     1      24.521   4.186  50.745  1.00  0.00    -0.389 OA
HETATM   25  C17 UNL     1      24.436   2.829  50.429  1.00  0.00     0.200 C 
ENDBRANCH  20  21
ENDBRANCH   9  20
BRANCH   7  26
HETATM   26  O1  UNL     1      18.464  -0.150  52.239  1.00  0.00    -0.356 OA
HETATM   27  C11 UNL     1      17.620  -1.171  52.739  1.00  0.00     0.210 C 
ENDBRANCH   7  26
TORSDOF 6
ENDMDL
MODEL 2
REMARK VINA RESULT:      -7.9      3.340      6.914
REMARK  6 active torsions:
REMARK  status: ('A' for Active; 'I' for Inactive)
REMARK    1  A    between atoms: C3_3  and  C4_4 
REMARK    2  A    between atoms: C3_3  and  N1_8 
REMARK    3  A    between atoms: N1_8  and  C6_9 
REMARK    4  A    between atoms: C10_15  and  O1_16 
REMARK    5  A    between atoms: C13_19  and  O2_20 
REMARK    6  A    between atoms: O2_20  and  C14_21 
ROOT
HETATM    1  C6  UNL     1      23.618   3.649  51.875  1.00  0.00     0.144 A 
HETATM    2  N2  UNL     1      22.616   4.535  51.995  1.00  0.00    -0.223 NA
HETATM    3  C7  UNL     1      22.728   5.671  51.246  1.00  0.00     0.236 A 
HETATM    4  N3  UNL     1      23.770   5.901  50.433  1.00  0.00    -0.241 NA
HETATM    5  C8  UNL     1      24.737   4.975  50.360  1.00  0.00     0.077 A 
HETATM    6  C9  UNL     1      25.799   5.241  49.512  1.00  0.00     0.069 A 
HETATM    7  C10 UNL     1      26.859   4.339  49.361  1.00  0.00     0.073 A 
HETATM    8  C12 UNL     1      26.755   3.186  50.115  1.00  0.00     0.074 A 
HETATM    9  C13 UNL     1      25.721   2.876  50.972  1.00  0.00     0.088 A 
HETATM   10  C18 UNL     1      24.709   3.805  51.075  1.00  0.00     0.072 A 
ENDROOT
BRANCH   1  11
HETATM   11  N1  UNL     1      23.461   2.492  52.665  1.00  0.00    -0.340 N 
HETATM   12  H6  UNL     1      23.716   1.895  53.472  1.00  0.00     0.167 HD
BRANCH  11  13
HETATM   13  C3  UNL     1      22.462   1.507  52.318  1.00  0.00     0.033 C 
HETATM   14  C2  UNL     1      22.078   1.350  51.040  1.00  0.00    -0.002 C 
HETATM   15  C1  UNL     1      21.063   0.339  50.730  1.00  0.00     0.038 C 
BRANCH  13  16
HETATM   16  C4  UNL     1      21.890   0.698  53.378  1.00  0.00     0.084 C 
HETATM   17  C5  UNL     1      22.398  -0.479  53.695  1.00  0.00     0.188 C 
HETATM   18  F1  UNL     1      23.468  -1.059  53.104  1.00  0.00    -0.193 F 
HETATM   19 CL1  UNL     1      21.724  -1.471  54.970  1.00  0.00    -0.051 Cl
ENDBRANCH  13  16
ENDBRANCH  11  13
ENDBRANCH   1  11
BRANCH   9  20
HETATM   20  O2  UNL     1      25.646   1.730  51.703  1.00  0.00    -0.343 OA
BRANCH  20  21
HETATM   21  C14 UNL     1      26.632   1.055  52.406  1.00  0.00     0.154 C 
HETATM   22  C15 UNL     1      26.418   1.345  53.896  1.00  0.00     0.061 C 
HETATM   23  C16 UNL     1      26.278   0.021  54.581  1.00  0.00     0.170 C 
HETATM   24  O3  UNL     1      26.786  -0.907  53.681  1.00  0.00    -0.389 OA
HETATM   25  C17 UNL     1      26.446  -0.449  52.408  1.00  0.00     0.200 C 
ENDBRANCH  20  21
ENDBRANCH   9  20
BRANCH   7  26
HETATM   26  O1  UNL     1      27.942   4.566  48.523  1.00  0.00    -0.356 OA
HETATM   27  C11 UNL     1      28.309   5.913  48.289  1.00  0.00     0.210 C 
ENDBRANCH   7  26
TORSDOF 6
ENDMDL
MODEL 3
REMARK VINA RESULT:      -7.8      3.619      5.989
REMARK  6 active torsions:
REMARK  status: ('A' for Active; 'I' for Inactive)
REMARK    1  A    between atoms: C3_3  and  C4_4 
REMARK    2  A    between atoms: C3_3  and  N1_8 
REMARK    3  A    between atoms: N1_8  and  C6_9 
REMARK    4  A    between atoms: C10_15  and  O1_16 
REMARK    5  A    between atoms: C13_19  and  O2_20 
REMARK    6  A    between atoms: O2_20  and  C14_21 
ROOT
HETATM    1  C6  UNL     1      22.088  -0.287  52.837  1.00  0.00     0.144 A 
HETATM    2  N2  UNL     1      21.043  -0.935  53.376  1.00  0.00    -0.223 NA
HETATM    3  C7  UNL     1      21.282  -1.580  54.554  1.00  0.00     0.236 A 
HETATM    4  N3  UNL     1      22.483  -1.576  55.152  1.00  0.00    -0.241 NA
HETATM    5  C8  UNL     1      23.484  -0.908  54.560  1.00  0.00     0.077 A 
HETATM    6  C9  UNL     1      24.712  -0.920  55.201  1.00  0.00     0.069 A 
HETATM    7  C10 UNL     1      25.822  -0.254  54.668  1.00  0.00     0.073 A 
HETATM    8  C12 UNL     1      25.591   0.402  53.475  1.00  0.00     0.074 A 
HETATM    9  C13 UNL     1      24.391   0.444  52.799  1.00  0.00     0.088 A 
HETATM   10  C18 UNL     1      23.338  -0.232  53.376  1.00  0.00     0.072 A 
ENDROOT
BRANCH   1  11
HETATM   11  N1  UNL     1      21.796   0.365  51.622  1.00  0.00    -0.340 N 
HETATM   12  H6  UNL     1      21.987   0.566  50.623  1.00  0.00     0.167 HD
BRANCH  11  13
HETATM   13  C3  UNL     1      20.672   1.268  51.535  1.00  0.00     0.033 C 
HETATM   14  C2  UNL     1      20.627   2.374  52.297  1.00  0.00    -0.002 C 
HETATM   15  C1  UNL     1      19.469   3.264  52.179  1.00  0.00     0.038 C 
BRANCH  13  16
HETATM   16  C4  UNL     1      19.600   0.953  50.609  1.00  0.00     0.084 C 
HETATM   17  C5  UNL     1      18.560   0.229  50.983  1.00  0.00     0.188 C 
HETATM   18  F1  UNL     1      18.364  -0.289  52.218  1.00  0.00    -0.193 F 
HETATM   19 CL1  UNL     1      17.255  -0.162  49.884  1.00  0.00    -0.051 Cl
ENDBRANCH  13  16
ENDBRANCH  11  13
ENDBRANCH   1  11
BRANCH   9  20
HETATM   20  O2  UNL     1      24.192   1.100  51.624  1.00  0.00    -0.343 OA
BRANCH  20  21
HETATM   21  C14 UNL     1      24.607   2.362  51.227  1.00  0.00     0.154 C 
HETATM   22  C15 UNL     1      23.828   2.727  49.957  1.00  0.00     0.061 C 
HETATM   23  C16 UNL     1      23.130   4.023  50.233  1.00  0.00     0.170 C 
HETATM   24  O3  UNL     1      23.775   4.552  51.343  1.00  0.00    -0.389 OA
HETATM   25  C17 UNL     1      24.130   3.468  52.147  1.00  0.00     0.200 C 
ENDBRANCH  20  21
ENDBRANCH   9  20
BRANCH   7  26
HETATM   26  O1  UNL     1      27.070  -0.241  55.278  1.00  0.00    -0.356 OA
HETATM   27  C11 UNL     1      28.156   0.255  54.518  1.00  0.00     0.210 C 
ENDBRANCH   7  26
TORSDOF 6
ENDMDL
MODEL 4
REMARK VINA RESULT:      -7.6      3.561      6.854
REMARK  6 active torsions:
REMARK  status: ('A' for Active; 'I' for Inactive)
REMARK    1  A    between atoms: C3_3  and  C4_4 
REMARK    2  A    between atoms: C3_3  and  N1_8 
REMARK    3  A    between atoms: N1_8  and  C6_9 
REMARK    4  A    between atoms: C10_15  and  O1_16 
REMARK    5  A    between atoms: C13_19  and  O2_20 
REMARK    6  A    between atoms: O2_20  and  C14_21 
ROOT
HETATM    1  C6  UNL     1      24.338   2.176  51.397  1.00  0.00     0.144 A 
HETATM    2  N2  UNL     1      24.734   3.163  50.576  1.00  0.00    -0.223 NA
HETATM    3  C7  UNL     1      26.081   3.343  50.462  1.00  0.00     0.236 A 
HETATM    4  N3  UNL     1      26.971   2.587  51.123  1.00  0.00    -0.241 NA
HETATM    5  C8  UNL     1      26.510   1.618  51.926  1.00  0.00     0.077 A 
HETATM    6  C9  UNL     1      27.452   0.853  52.594  1.00  0.00     0.069 A 
HETATM    7  C10 UNL     1      27.075  -0.184  53.455  1.00  0.00     0.073 A 
HETATM    8  C12 UNL     1      25.713  -0.375  53.578  1.00  0.00     0.074 A 
HETATM    9  C13 UNL     1      24.737   0.357  52.937  1.00  0.00     0.088 A 
HETATM   10  C18 UNL     1      25.173   1.364  52.103  1.00  0.00     0.072 A 
ENDROOT
BRANCH   1  11
HETATM   11  N1  UNL     1      22.939   2.025  51.484  1.00  0.00    -0.340 N 
HETATM   12  H6  UNL     1      22.048   2.053  52.011  1.00  0.00     0.167 HD
BRANCH  11  13
HETATM   13  C3  UNL     1      22.179   1.628  50.321  1.00  0.00     0.033 C 
HETATM   14  C2  UNL     1      22.492   2.111  49.107  1.00  0.00    -0.002 C 
HETATM   15  C1  UNL     1      21.696   1.683  47.954  1.00  0.00     0.038 C 
BRANCH  13  16
HETATM   16  C4  UNL     1      21.078   0.700  50.498  1.00  0.00     0.084 C 
HETATM   17  C5  UNL     1      19.886   1.114  50.887  1.00  0.00     0.188 C 
HETATM   18  F1  UNL     1      19.548   2.396  51.159  1.00  0.00    -0.193 F 
HETATM   19 CL1  UNL     1      18.542   0.013  51.104  1.00  0.00    -0.051 Cl
ENDBRANCH  13  16
ENDBRANCH  11  13
ENDBRANCH   1  11
BRANCH   9  20
HETATM   20  O2  UNL     1      23.400   0.146  53.077  1.00  0.00    -0.343 OA
BRANCH  20  21
HETATM   21  C14 UNL     1      22.681  -0.315  54.169  1.00  0.00     0.154 C 
HETATM   22  C15 UNL     1      21.317   0.387  54.154  1.00  0.00     0.061 C 
HETATM   23  C16 UNL     1      20.275  -0.688  54.146  1.00  0.00     0.170 C 
HETATM   24  O3  UNL     1      20.939  -1.840  54.551  1.00  0.00    -0.389 OA
HETATM   25  C17 UNL     1      22.230  -1.755  54.026  1.00  0.00     0.200 C 
ENDBRANCH  20  21
ENDBRANCH   9  20
BRANCH   7  26
HETATM   26  O1  UNL     1      27.987  -0.974  54.144  1.00  0.00    -0.356 OA
HETATM   27  C11 UNL     1      29.355  -0.628  54.035  1.00  0.00     0.210 C 
ENDBRANCH   7  26
TORSDOF 6
ENDMDL
MODEL 5
REMARK VINA RESULT:      -7.6      2.921      5.427
REMARK  6 active torsions:
REMARK  status: ('A' for Active; 'I' for Inactive)
REMARK    1  A    between atoms: C3_3  and  C4_4 
REMARK    2  A    between atoms: C3_3  and  N1_8 
REMARK    3  A    between atoms: N1_8  and  C6_9 
REMARK    4  A    between atoms: C10_15  and  O1_16 
REMARK    5  A    between atoms: C13_19  and  O2_20 
REMARK    6  A    between atoms: O2_20  and  C14_21 
ROOT
HETATM    1  C6  UNL     1      21.651   0.331  53.309  1.00  0.00     0.144 A 
HETATM    2  N2  UNL     1      20.653  -0.450  53.755  1.00  0.00    -0.223 NA
HETATM    3  C7  UNL     1      21.016  -1.470  54.585  1.00  0.00     0.236 A 
HETATM    4  N3  UNL     1      22.289  -1.692  54.945  1.00  0.00    -0.241 NA
HETATM    5  C8  UNL     1      23.238  -0.874  54.464  1.00  0.00     0.077 A 
HETATM    6  C9  UNL     1      24.543  -1.128  54.854  1.00  0.00     0.069 A 
HETATM    7  C10 UNL     1      25.606  -0.333  54.410  1.00  0.00     0.073 A 
HETATM    8  C12 UNL     1      25.249   0.702  53.569  1.00  0.00     0.074 A 
HETATM    9  C13 UNL     1      23.968   0.995  53.152  1.00  0.00     0.088 A 
HETATM   10  C18 UNL     1      22.967   0.176  53.625  1.00  0.00     0.072 A 
ENDROOT
BRANCH   1  11
HETATM   11  N1  UNL     1      21.230   1.371  52.456  1.00  0.00    -0.340 N 
HETATM   12  H6  UNL     1      21.171   2.373  52.195  1.00  0.00     0.167 HD
BRANCH  11  13
HETATM   13  C3  UNL     1      20.469   1.070  51.266  1.00  0.00     0.033 C 
HETATM   14  C2  UNL     1      19.132   0.951  51.326  1.00  0.00    -0.002 C 
HETATM   15  C1  UNL     1      18.397   0.645  50.096  1.00  0.00     0.038 C 
BRANCH  13  16
HETATM   16  C4  UNL     1      21.181   0.901  50.012  1.00  0.00     0.084 C 
HETATM   17  C5  UNL     1      21.532   1.940  49.276  1.00  0.00     0.188 C 
HETATM   18  F1  UNL     1      21.288   3.236  49.577  1.00  0.00    -0.193 F 
HETATM   19 CL1  UNL     1      22.392   1.759  47.762  1.00  0.00    -0.051 Cl
ENDBRANCH  13  16
ENDBRANCH  11  13
ENDBRANCH   1  11
BRANCH   9  20
HETATM   20  O2  UNL     1      23.646   2.024  52.321  1.00  0.00    -0.343 OA
BRANCH  20  21
HETATM   21  C14 UNL     1      24.325   3.204  52.060  1.00  0.00     0.154 C 
HETATM   22  C15 UNL     1      24.925   3.090  50.653  1.00  0.00     0.061 C 
HETATM   23  C16 UNL     1      24.415   4.257  49.867  1.00  0.00     0.170 C 
HETATM   24  O3  UNL     1      23.948   5.157  50.817  1.00  0.00    -0.389 OA
HETATM   25  C17 UNL     1      23.408   4.392  51.852  1.00  0.00     0.200 C 
ENDBRANCH  20  21
ENDBRANCH   9  20
BRANCH   7  26
HETATM   26  O1  UNL     1      26.928  -0.552  54.776  1.00  0.00    -0.356 OA
HETATM   27  C11 UNL     1      27.887   0.391  54.335  1.00  0.00     0.210 C 
ENDBRANCH   7  26
TORSDOF 6
ENDMDL
MODEL 6
REMARK VINA RESULT:      -7.4      3.312      6.627
REMARK  6 active torsions:
REMARK  status: ('A' for Active; 'I' for Inactive)
REMARK    1  A    between atoms: C3_3  and  C4_4 
REMARK    2  A    between atoms: C3_3  and  N1_8 
REMARK    3  A    between atoms: N1_8  and  C6_9 
REMARK    4  A    between atoms: C10_15  and  O1_16 
REMARK    5  A    between atoms: C13_19  and  O2_20 
REMARK    6  A    between atoms: O2_20  and  C14_21 
ROOT
HETATM    1  C6  UNL     1      24.338   2.607  51.415  1.00  0.00     0.144 A 
HETATM    2  N2  UNL     1      24.867   3.594  50.674  1.00  0.00    -0.223 NA
HETATM    3  C7  UNL     1      26.219   3.550  50.496  1.00  0.00     0.236 A 
HETATM    4  N3  UNL     1      26.987   2.584  51.022  1.00  0.00    -0.241 NA
HETATM    5  C8  UNL     1      26.395   1.627  51.751  1.00  0.00     0.077 A 
HETATM    6  C9  UNL     1      27.214   0.643  52.280  1.00  0.00     0.069 A 
HETATM    7  C10 UNL     1      26.696  -0.402  53.054  1.00  0.00     0.073 A 
HETATM    8  C12 UNL     1      25.328  -0.366  53.241  1.00  0.00     0.074 A 
HETATM    9  C13 UNL     1      24.472   0.589  52.738  1.00  0.00     0.088 A 
HETATM   10  C18 UNL     1      25.044   1.590  51.984  1.00  0.00     0.072 A 
ENDROOT
BRANCH   1  11
HETATM   11  N1  UNL     1      22.939   2.691  51.572  1.00  0.00    -0.340 N 
HETATM   12  H6  UNL     1      22.091   2.821  52.153  1.00  0.00     0.167 HD
BRANCH  11  13
HETATM   13  C3  UNL     1      22.071   2.547  50.427  1.00  0.00     0.033 C 
HETATM   14  C2  UNL     1      22.035   1.391  49.742  1.00  0.00    -0.002 C 
HETATM   15  C1  UNL     1      21.140   1.286  48.587  1.00  0.00     0.038 C 
BRANCH  13  16
HETATM   16  C4  UNL     1      21.243   3.674  50.039  1.00  0.00     0.084 C 
HETATM   17  C5  UNL     1      21.649   4.545  49.134  1.00  0.00     0.188 C 
HETATM   18  F1  UNL     1      22.833   4.506  48.479  1.00  0.00    -0.193 F 
HETATM   19 CL1  UNL     1      20.667   5.910  48.649  1.00  0.00    -0.051 Cl
ENDBRANCH  13  16
ENDBRANCH  11  13
ENDBRANCH   1  11
BRANCH   9  20
HETATM   20  O2  UNL     1      23.125   0.598  52.938  1.00  0.00    -0.343 OA
BRANCH  20  21
HETATM   21  C14 UNL     1      22.371   0.017  53.945  1.00  0.00     0.154 C 
HETATM   22  C15 UNL     1      20.962   0.618  53.874  1.00  0.00     0.061 C 
HETATM   23  C16 UNL     1      20.008  -0.526  53.726  1.00  0.00     0.170 C 
HETATM   24  O3  UNL     1      20.729  -1.650  54.108  1.00  0.00    -0.389 OA
HETATM   25  C17 UNL     1      22.042  -1.439  53.685  1.00  0.00     0.200 C 
ENDBRANCH  20  21
ENDBRANCH   9  20
BRANCH   7  26
HETATM   26  O1  UNL     1      27.480  -1.408  53.603  1.00  0.00    -0.356 OA
HETATM   27  C11 UNL     1      28.879  -1.321  53.400  1.00  0.00     0.210 C 
ENDBRANCH   7  26
TORSDOF 6
ENDMDL
MODEL 7
REMARK VINA RESULT:      -7.3      2.874      5.011
REMARK  6 active torsions:
REMARK  status: ('A' for Active; 'I' for Inactive)
REMARK    1  A    between atoms: C3_3  and  C4_4 
REMARK    2  A    between atoms: C3_3  and  N1_8 
REMARK    3  A    between atoms: N1_8  and  C6_9 
REMARK    4  A    between atoms: C10_15  and  O1_16 
REMARK    5  A    between atoms: C13_19  and  O2_20 
REMARK    6  A    between atoms: O2_20  and  C14_21 
ROOT
HETATM    1  C6  UNL     1      23.237   2.306  50.138  1.00  0.00     0.144 A 
HETATM    2  N2  UNL     1      22.417   2.725  49.160  1.00  0.00    -0.223 NA
HETATM    3  C7  UNL     1      21.168   2.178  49.151  1.00  0.00     0.236 A 
HETATM    4  N3  UNL     1      20.766   1.276  50.058  1.00  0.00    -0.241 NA
HETATM    5  C8  UNL     1      21.634   0.900  51.009  1.00  0.00     0.077 A 
HETATM    6  C9  UNL     1      21.190  -0.033  51.932  1.00  0.00     0.069 A 
HETATM    7  C10 UNL     1      22.017  -0.491  52.964  1.00  0.00     0.073 A 
HETATM    8  C12 UNL     1      23.284   0.057  52.983  1.00  0.00     0.074 A 
HETATM    9  C13 UNL     1      23.773   0.985  52.089  1.00  0.00     0.088 A 
HETATM   10  C18 UNL     1      22.910   1.395  51.097  1.00  0.00     0.072 A 
ENDROOT
BRANCH   1  11
HETATM   11  N1  UNL     1      24.516   2.897  50.110  1.00  0.00    -0.340 N 
HETATM   12  H6  UNL     1      25.547   2.842  50.017  1.00  0.00     0.167 HD
BRANCH  11  13
HETATM   13  C3  UNL     1      24.660   4.324  50.284  1.00  0.00     0.033 C 
HETATM   14  C2  UNL     1      23.765   5.014  51.010  1.00  0.00    -0.002 C 
HETATM   15  C1  UNL     1      23.947   6.459  51.163  1.00  0.00     0.038 C 
BRANCH  13  16
HETATM   16  C4  UNL     1      25.789   4.988  49.659  1.00  0.00     0.084 C 
HETATM   17  C5  UNL     1      26.804   4.301  49.167  1.00  0.00     0.188 C 
HETATM   18  F1  UNL     1      26.922   2.953  49.178  1.00  0.00    -0.193 F 
HETATM   19 CL1  UNL     1      28.175   5.081  48.407  1.00  0.00    -0.051 Cl
ENDBRANCH  13  16
ENDBRANCH  11  13
ENDBRANCH   1  11
BRANCH   9  20
HETATM   20  O2  UNL     1      25.029   1.508  52.132  1.00  0.00    -0.343 OA
BRANCH  20  21
HETATM   21  C14 UNL     1      26.191   0.988  52.680  1.00  0.00     0.154 C 
HETATM   22  C15 UNL     1      27.345   1.916  52.281  1.00  0.00     0.061 C 
HETATM   23  C16 UNL     1      28.008   2.357  53.549  1.00  0.00     0.170 C 
HETATM   24  O3  UNL     1      27.576   1.455  54.515  1.00  0.00    -0.389 OA
HETATM   25  C17 UNL     1      26.260   1.127  54.187  1.00  0.00     0.200 C 
ENDBRANCH  20  21
ENDBRANCH   9  20
BRANCH   7  26
HETATM   26  O1  UNL     1      21.612  -1.424  53.910  1.00  0.00    -0.356 OA
HETATM   27  C11 UNL     1      22.396  -1.540  55.082  1.00  0.00     0.210 C 
ENDBRANCH   7  26
TORSDOF 6
ENDMDL
MODEL 8
REMARK VINA RESULT:      -7.3      3.231      5.071
REMARK  6 active torsions:
REMARK  status: ('A' for Active; 'I' for Inactive)
REMARK    1  A    between atoms: C3_3  and  C4_4 
REMARK    2  A    between atoms: C3_3  and  N1_8 
REMARK    3  A    between atoms: N1_8  and  C6_9 
REMARK    4  A    between atoms: C10_15  and  O1_16 
REMARK    5  A    between atoms: C13_19  and  O2_20 
REMARK    6  A    between atoms: O2_20  and  C14_21 
ROOT
HETATM    1  C6  UNL     1      25.894   2.378  51.206  1.00  0.00     0.144 A 
HETATM    2  N2  UNL     1      27.178   2.617  51.517  1.00  0.00    -0.223 NA
HETATM    3  C7  UNL     1      27.645   2.009  52.646  1.00  0.00     0.236 A 
HETATM    4  N3  UNL     1      26.879   1.215  53.409  1.00  0.00    -0.241 NA
HETATM    5  C8  UNL     1      25.604   1.017  53.042  1.00  0.00     0.077 A 
HETATM    6  C9  UNL     1      24.839   0.192  53.849  1.00  0.00     0.069 A 
HETATM    7  C10 UNL     1      23.498  -0.081  53.554  1.00  0.00     0.073 A 
HETATM    8  C12 UNL     1      23.016   0.531  52.413  1.00  0.00     0.074 A 
HETATM    9  C13 UNL     1      23.735   1.359  51.579  1.00  0.00     0.088 A 
HETATM   10  C18 UNL     1      25.049   1.587  51.925  1.00  0.00     0.072 A 
ENDROOT
BRANCH   1  11
HETATM   11  N1  UNL     1      25.455   3.026  50.034  1.00  0.00    -0.340 N 
HETATM   12  H6  UNL     1      24.862   3.078  49.186  1.00  0.00     0.167 HD
BRANCH  11  13
HETATM   13  C3  UNL     1      26.018   4.301  49.656  1.00  0.00     0.033 C 
HETATM   14  C2  UNL     1      27.140   4.357  48.917  1.00  0.00    -0.002 C 
HETATM   15  C1  UNL     1      27.678   5.671  48.555  1.00  0.00     0.038 C 
BRANCH  13  16
HETATM   16  C4  UNL     1      25.346   5.511  50.090  1.00  0.00     0.084 C 
HETATM   17  C5  UNL     1      24.203   5.895  49.550  1.00  0.00     0.188 C 
HETATM   18  F1  UNL     1      23.539   5.242  48.568  1.00  0.00    -0.193 F 
HETATM   19 CL1  UNL     1      23.375   7.350  50.060  1.00  0.00    -0.051 Cl
ENDBRANCH  13  16
ENDBRANCH  11  13
ENDBRANCH   1  11
BRANCH   9  20
HETATM   20  O2  UNL     1      23.233   1.948  50.460  1.00  0.00    -0.343 OA
BRANCH  20  21
HETATM   21  C14 UNL     1      22.026   1.742  49.810  1.00  0.00     0.154 C 
HETATM   22  C15 UNL     1      21.150   2.976  50.058  1.00  0.00     0.061 C 
HETATM   23  C16 UNL     1      20.758   3.509  48.715  1.00  0.00     0.170 C 
HETATM   24  O3  UNL     1      21.003   2.467  47.828  1.00  0.00    -0.389 OA
HETATM   25  C17 UNL     1      22.138   1.806  48.300  1.00  0.00     0.200 C 
ENDBRANCH  20  21
ENDBRANCH   9  20
BRANCH   7  26
HETATM   26  O1  UNL     1      22.696  -0.902  54.336  1.00  0.00    -0.356 OA
HETATM   27  C11 UNL     1      21.414  -0.412  54.684  1.00  0.00     0.210 C 
ENDBRANCH   7  26
TORSDOF 6
ENDMDL
MODEL 9
REMARK VINA RESULT:      -7.1      1.979      2.968
REMARK  6 active torsions:
REMARK  status: ('A' for Active; 'I' for Inactive)
REMARK    1  A    between atoms: C3_3  and  C4_4 
REMARK    2  A    between atoms: C3_3  and  N1_8 
REMARK    3  A    between atoms: N1_8  and  C6_9 
REMARK    4  A    between atoms: C10_15  and  O1_16 
REMARK    5  A    between atoms: C13_19  and  O2_20 
REMARK    6  A    between atoms: O2_20  and  C14_21 
ROOT
HETATM    1  C6  UNL     1      22.529   0.070  53.031  1.00  0.00     0.144 A 
HETATM    2  N2  UNL     1      23.304  -0.413  54.016  1.00  0.00    -0.223 NA
HETATM    3  C7  UNL     1      22.683  -1.212  54.930  1.00  0.00     0.236 A 
HETATM    4  N3  UNL     1      21.377  -1.509  54.862  1.00  0.00    -0.241 NA
HETATM    5  C8  UNL     1      20.659  -0.995  53.852  1.00  0.00     0.077 A 
HETATM    6  C9  UNL     1      19.313  -1.320  53.808  1.00  0.00     0.069 A 
HETATM    7  C10 UNL     1      18.477  -0.836  52.795  1.00  0.00     0.073 A 
HETATM    8  C12 UNL     1      19.097  -0.026  51.864  1.00  0.00     0.074 A 
HETATM    9  C13 UNL     1      20.429   0.327  51.865  1.00  0.00     0.088 A 
HETATM   10  C18 UNL     1      21.198  -0.182  52.888  1.00  0.00     0.072 A 
ENDROOT
BRANCH   1  11
HETATM   11  N1  UNL     1      23.212   0.889  52.110  1.00  0.00    -0.340 N 
HETATM   12  H6  UNL     1      23.596   1.082  51.166  1.00  0.00     0.167 HD
BRANCH  11  13
HETATM   13  C3  UNL     1      23.715   2.180  52.520  1.00  0.00     0.033 C 
HETATM   14  C2  UNL     1      22.968   3.285  52.354  1.00  0.00    -0.002 C 
HETATM   15  C1  UNL     1      23.514   4.574  52.785  1.00  0.00     0.038 C 
BRANCH  13  16
HETATM   16  C4  UNL     1      25.037   2.252  53.113  1.00  0.00     0.084 C 
HETATM   17  C5  UNL     1      26.126   2.077  52.387  1.00  0.00     0.188 C 
HETATM   18  F1  UNL     1      26.154   1.821  51.059  1.00  0.00    -0.193 F 
HETATM   19 CL1  UNL     1      27.731   2.162  53.081  1.00  0.00    -0.051 Cl
ENDBRANCH  13  16
ENDBRANCH  11  13
ENDBRANCH   1  11
BRANCH   9  20
HETATM   20  O2  UNL     1      21.013   1.128  50.933  1.00  0.00    -0.343 OA
BRANCH  20  21
HETATM   21  C14 UNL     1      20.569   1.498  49.672  1.00  0.00     0.154 C 
HETATM   22  C15 UNL     1      20.498   3.030  49.639  1.00  0.00     0.061 C 
HETATM   23  C16 UNL     1      21.348   3.479  48.490  1.00  0.00     0.170 C 
HETATM   24  O3  UNL     1      21.521   2.347  47.703  1.00  0.00    -0.389 OA
HETATM   25  C17 UNL     1      21.595   1.265  48.582  1.00  0.00     0.200 C 
ENDBRANCH  20  21
ENDBRANCH   9  20
BRANCH   7  26
HETATM   26  O1  UNL     1      17.124  -1.138  52.714  1.00  0.00    -0.356 OA
HETATM   27  C11 UNL     1      16.375  -0.486  51.704  1.00  0.00     0.210 C 
ENDBRANCH   7  26
TORSDOF 6
ENDMDL
