MODEL 1
REMARK VINA RESULT:      -9.5      0.000      0.000
REMARK  3 active torsions:
REMARK  status: ('A' for Active; 'I' for Inactive)
REMARK    1  A    between atoms: C4_4  and  O1_5 
REMARK    2  A    between atoms: O1_5  and  C5_6 
REMARK    3  A    between atoms: C20_24  and  O3_25 
ROOT
HETATM    1  C1  UNL     1      22.519  -1.246  54.973  1.00  0.00     0.024 C 
HETATM    2  C2  UNL     1      23.089  -0.513  54.046  1.00  0.00    -0.031 C 
HETATM    3  C3  UNL     1      24.526  -0.518  53.830  1.00  0.00     0.075 C 
HETATM    4  C4  UNL     1      24.981   0.243  52.849  1.00  0.00     0.188 C 
HETATM    5  O2  UNL     1      24.170   1.063  52.030  1.00  0.00    -0.300 OA
HETATM    6  C11 UNL     1      22.919   1.497  52.620  1.00  0.00     0.262 C 
HETATM    7  C12 UNL     1      22.270   0.282  53.208  1.00  0.00    -0.004 C 
HETATM    8  C13 UNL     1      21.020  -0.166  52.947  1.00  0.00    -0.014 C 
HETATM    9  C14 UNL     1      19.705  -0.023  52.300  1.00  0.00     0.000 C 
HETATM   10  C15 UNL     1      18.949   0.790  51.508  1.00  0.00     0.033 C 
HETATM   11  C16 UNL     1      19.404   2.131  50.928  1.00  0.00     0.023 C 
HETATM   12  C17 UNL     1      19.871   3.016  52.047  1.00  0.00     0.027 C 
HETATM   13  C18 UNL     1      21.362   3.283  52.049  1.00  0.00     0.120 C 
HETATM   14  N1  UNL     1      22.052   2.103  51.703  1.00  0.00    -0.381 N 
HETATM   15  C19 UNL     1      21.840   1.541  50.437  1.00  0.00     0.151 C 
HETATM   16  C20 UNL     1      20.484   1.899  49.897  1.00  0.00     0.140 C 
ENDROOT
BRANCH   4  17
HETATM   17  O1  UNL     1      26.264   0.400  52.439  1.00  0.00    -0.286 OA
BRANCH  17  18
HETATM   18  C5  UNL     1      27.407  -0.298  52.807  1.00  0.00     0.100 A 
HETATM   19  C6  UNL     1      27.806  -1.592  52.791  1.00  0.00     0.039 A 
HETATM   20  C7  UNL     1      29.022  -2.031  53.238  1.00  0.00     0.003 A 
HETATM   21  C8  UNL     1      29.925  -1.137  53.742  1.00  0.00     0.002 A 
HETATM   22  C9  UNL     1      29.554   0.196  53.773  1.00  0.00     0.026 A 
HETATM   23  C10 UNL     1      28.304   0.654  53.316  1.00  0.00     0.068 A 
HETATM   24 CL1  UNL     1      28.118   2.386  53.485  1.00  0.00    -0.081 Cl
ENDBRANCH  17  18
ENDBRANCH   4  17
BRANCH  16  25
HETATM   25  O3  UNL     1      20.540   3.103  49.155  1.00  0.00    -0.394 OA
HETATM   26  H20 UNL     1      20.363   2.878  48.185  1.00  0.00     0.210 HD
ENDBRANCH  16  25
TORSDOF 3
ENDMDL
MODEL 2
REMARK VINA RESULT:      -9.3      4.089      6.398
REMARK  3 active torsions:
REMARK  status: ('A' for Active; 'I' for Inactive)
REMARK    1  A    between atoms: C4_4  and  O1_5 
REMARK    2  A    between atoms: O1_5  and  C5_6 
REMARK    3  A    between atoms: C20_24  and  O3_25 
ROOT
HETATM    1  C1  UNL     1      21.712   1.348  50.590  1.00  0.00     0.024 C 
HETATM    2  C2  UNL     1      22.844   1.970  50.820  1.00  0.00    -0.031 C 
HETATM    3  C3  UNL     1      23.140   3.275  50.253  1.00  0.00     0.075 C 
HETATM    4  C4  UNL     1      24.303   3.813  50.578  1.00  0.00     0.188 C 
HETATM    5  O2  UNL     1      25.268   3.194  51.406  1.00  0.00    -0.300 OA
HETATM    6  C11 UNL     1      25.223   1.746  51.448  1.00  0.00     0.262 C 
HETATM    7  C12 UNL     1      23.793   1.360  51.676  1.00  0.00    -0.004 C 
HETATM    8  C13 UNL     1      23.325   0.565  52.665  1.00  0.00    -0.014 C 
HETATM    9  C14 UNL     1      23.539  -0.324  53.819  1.00  0.00     0.000 C 
HETATM   10  C15 UNL     1      24.493  -0.905  54.601  1.00  0.00     0.033 C 
HETATM   11  C16 UNL     1      26.004  -0.729  54.429  1.00  0.00     0.023 C 
HETATM   12  C17 UNL     1      26.384  -1.099  53.025  1.00  0.00     0.027 C 
HETATM   13  C18 UNL     1      26.837   0.069  52.173  1.00  0.00     0.120 C 
HETATM   14  N1  UNL     1      26.030   1.193  52.450  1.00  0.00    -0.381 N 
HETATM   15  C19 UNL     1      26.038   1.731  53.743  1.00  0.00     0.151 C 
HETATM   16  C20 UNL     1      26.393   0.691  54.769  1.00  0.00     0.140 C 
ENDROOT
BRANCH   4  17
HETATM   17  O1  UNL     1      24.803   5.014  50.197  1.00  0.00    -0.286 OA
BRANCH  17  18
HETATM   18  C5  UNL     1      25.984   5.314  49.531  1.00  0.00     0.100 A 
HETATM   19  C6  UNL     1      27.014   4.608  49.007  1.00  0.00     0.039 A 
HETATM   20  C7  UNL     1      28.100   5.167  48.391  1.00  0.00     0.003 A 
HETATM   21  C8  UNL     1      28.190   6.526  48.271  1.00  0.00     0.002 A 
HETATM   22  C9  UNL     1      27.155   7.282  48.793  1.00  0.00     0.026 A 
HETATM   23  C10 UNL     1      26.036   6.713  49.429  1.00  0.00     0.068 A 
HETATM   24 CL1  UNL     1      24.895   7.917  49.989  1.00  0.00    -0.081 Cl
ENDBRANCH  17  18
ENDBRANCH   4  17
BRANCH  16  25
HETATM   25  O3  UNL     1      27.793   0.644  54.974  1.00  0.00    -0.394 OA
HETATM   26  H20 UNL     1      28.169  -0.081  54.377  1.00  0.00     0.210 HD
ENDBRANCH  16  25
TORSDOF 3
ENDMDL
MODEL 3
REMARK VINA RESULT:      -9.2      2.483      3.426
REMARK  3 active torsions:
REMARK  status: ('A' for Active; 'I' for Inactive)
REMARK    1  A    between atoms: C4_4  and  O1_5 
REMARK    2  A    between atoms: O1_5  and  C5_6 
REMARK    3  A    between atoms: C20_24  and  O3_25 
ROOT
HETATM    1  C1  UNL     1      21.435  -0.208  51.946  1.00  0.00     0.024 C 
HETATM    2  C2  UNL     1      22.597   0.281  52.309  1.00  0.00    -0.031 C 
HETATM    3  C3  UNL     1      23.492  -0.432  53.205  1.00  0.00     0.075 C 
HETATM    4  C4  UNL     1      24.647   0.150  53.479  1.00  0.00     0.188 C 
HETATM    5  O2  UNL     1      25.043   1.414  52.981  1.00  0.00    -0.300 OA
HETATM    6  C11 UNL     1      23.966   2.314  52.623  1.00  0.00     0.262 C 
HETATM    7  C12 UNL     1      23.004   1.531  51.782  1.00  0.00    -0.004 C 
HETATM    8  C13 UNL     1      22.564   1.863  50.547  1.00  0.00    -0.014 C 
HETATM    9  C14 UNL     1      22.489   2.794  49.409  1.00  0.00     0.000 C 
HETATM   10  C15 UNL     1      22.889   4.017  48.957  1.00  0.00     0.033 C 
HETATM   11  C16 UNL     1      23.762   5.004  49.735  1.00  0.00     0.023 C 
HETATM   12  C17 UNL     1      23.124   5.280  51.065  1.00  0.00     0.027 C 
HETATM   13  C18 UNL     1      23.887   4.721  52.249  1.00  0.00     0.120 C 
HETATM   14  N1  UNL     1      24.396   3.448  51.922  1.00  0.00    -0.381 N 
HETATM   15  C19 UNL     1      25.322   3.336  50.877  1.00  0.00     0.151 C 
HETATM   16  C20 UNL     1      25.159   4.446  49.878  1.00  0.00     0.140 C 
ENDROOT
BRANCH   4  17
HETATM   17  O1  UNL     1      25.650  -0.310  54.265  1.00  0.00    -0.286 OA
BRANCH  17  18
HETATM   18  C5  UNL     1      27.014  -0.057  54.205  1.00  0.00     0.100 A 
HETATM   19  C6  UNL     1      27.863   0.846  54.752  1.00  0.00     0.039 A 
HETATM   20  C7  UNL     1      29.209   0.885  54.512  1.00  0.00     0.003 A 
HETATM   21  C8  UNL     1      29.777  -0.031  53.672  1.00  0.00     0.002 A 
HETATM   22  C9  UNL     1      28.942  -0.971  53.095  1.00  0.00     0.026 A 
HETATM   23  C10 UNL     1      27.556  -1.017  53.337  1.00  0.00     0.068 A 
HETATM   24 CL1  UNL     1      26.762  -2.311  52.466  1.00  0.00    -0.081 Cl
ENDBRANCH  17  18
ENDBRANCH   4  17
BRANCH  16  25
HETATM   25  O3  UNL     1      25.960   5.559  50.228  1.00  0.00    -0.394 OA
HETATM   26  H20 UNL     1      26.420   5.347  51.103  1.00  0.00     0.210 HD
ENDBRANCH  16  25
TORSDOF 3
ENDMDL
MODEL 4
REMARK VINA RESULT:      -8.8      2.294      3.624
REMARK  3 active torsions:
REMARK  status: ('A' for Active; 'I' for Inactive)
REMARK    1  A    between atoms: C4_4  and  O1_5 
REMARK    2  A    between atoms: O1_5  and  C5_6 
REMARK    3  A    between atoms: C20_24  and  O3_25 
ROOT
HETATM    1  C1  UNL     1      26.648   3.888  49.327  1.00  0.00     0.024 C 
HETATM    2  C2  UNL     1      26.050   3.229  50.291  1.00  0.00    -0.031 C 
HETATM    3  C3  UNL     1      26.788   2.434  51.259  1.00  0.00     0.075 C 
HETATM    4  C4  UNL     1      26.077   1.836  52.200  1.00  0.00     0.188 C 
HETATM    5  O2  UNL     1      24.668   1.903  52.303  1.00  0.00    -0.300 OA
HETATM    6  C11 UNL     1      23.960   2.163  51.066  1.00  0.00     0.262 C 
HETATM    7  C12 UNL     1      24.642   3.325  50.409  1.00  0.00    -0.004 C 
HETATM    8  C13 UNL     1      24.056   4.475  50.005  1.00  0.00    -0.014 C 
HETATM    9  C14 UNL     1      22.865   5.313  49.792  1.00  0.00     0.000 C 
HETATM   10  C15 UNL     1      21.506   5.346  49.904  1.00  0.00     0.033 C 
HETATM   11  C16 UNL     1      20.635   4.202  50.429  1.00  0.00     0.023 C 
HETATM   12  C17 UNL     1      20.921   2.962  49.632  1.00  0.00     0.027 C 
HETATM   13  C18 UNL     1      21.631   1.873  50.409  1.00  0.00     0.120 C 
HETATM   14  N1  UNL     1      22.602   2.452  51.251  1.00  0.00    -0.381 N 
HETATM   15  C19 UNL     1      22.188   3.331  52.260  1.00  0.00     0.151 C 
HETATM   16  C20 UNL     1      20.891   4.002  51.905  1.00  0.00     0.140 C 
ENDROOT
BRANCH   4  17
HETATM   17  O1  UNL     1      26.524   1.060  53.218  1.00  0.00    -0.286 OA
BRANCH  17  18
HETATM   18  C5  UNL     1      27.382  -0.032  53.192  1.00  0.00     0.100 A 
HETATM   19  C6  UNL     1      27.284  -1.341  52.859  1.00  0.00     0.039 A 
HETATM   20  C7  UNL     1      28.314  -2.237  52.939  1.00  0.00     0.003 A 
HETATM   21  C8  UNL     1      29.542  -1.826  53.377  1.00  0.00     0.002 A 
HETATM   22  C9  UNL     1      29.682  -0.495  53.725  1.00  0.00     0.026 A 
HETATM   23  C10 UNL     1      28.626   0.433  53.646  1.00  0.00     0.068 A 
HETATM   24 CL1  UNL     1      29.101   2.039  54.155  1.00  0.00    -0.081 Cl
ENDBRANCH  17  18
ENDBRANCH   4  17
BRANCH  16  25
HETATM   25  O3  UNL     1      19.789   3.241  52.363  1.00  0.00    -0.394 OA
HETATM   26  H20 UNL     1      19.260   3.817  53.004  1.00  0.00     0.210 HD
ENDBRANCH  16  25
TORSDOF 3
ENDMDL
MODEL 5
REMARK VINA RESULT:      -8.5      2.450      6.716
REMARK  3 active torsions:
REMARK  status: ('A' for Active; 'I' for Inactive)
REMARK    1  A    between atoms: C4_4  and  O1_5 
REMARK    2  A    between atoms: O1_5  and  C5_6 
REMARK    3  A    between atoms: C20_24  and  O3_25 
ROOT
HETATM    1  C1  UNL     1      22.289  -1.553  54.365  1.00  0.00     0.024 C 
HETATM    2  C2  UNL     1      22.604  -0.577  53.545  1.00  0.00    -0.031 C 
HETATM    3  C3  UNL     1      21.608   0.117  52.748  1.00  0.00     0.075 C 
HETATM    4  C4  UNL     1      22.043   1.100  51.978  1.00  0.00     0.188 C 
HETATM    5  O2  UNL     1      23.399   1.490  51.868  1.00  0.00    -0.300 OA
HETATM    6  C11 UNL     1      24.374   0.461  52.169  1.00  0.00     0.262 C 
HETATM    7  C12 UNL     1      23.958  -0.169  53.463  1.00  0.00    -0.004 C 
HETATM    8  C13 UNL     1      24.721  -0.302  54.572  1.00  0.00    -0.014 C 
HETATM    9  C14 UNL     1      26.003  -0.167  55.283  1.00  0.00     0.000 C 
HETATM   10  C15 UNL     1      27.304   0.218  55.145  1.00  0.00     0.033 C 
HETATM   11  C16 UNL     1      27.934   0.760  53.859  1.00  0.00     0.023 C 
HETATM   12  C17 UNL     1      27.709  -0.226  52.749  1.00  0.00     0.027 C 
HETATM   13  C18 UNL     1      26.752   0.253  51.677  1.00  0.00     0.120 C 
HETATM   14  N1  UNL     1      25.683   0.949  52.277  1.00  0.00    -0.381 N 
HETATM   15  C19 UNL     1      25.954   2.121  52.994  1.00  0.00     0.151 C 
HETATM   16  C20 UNL     1      27.353   2.118  53.541  1.00  0.00     0.140 C 
ENDROOT
BRANCH   4  17
HETATM   17  O1  UNL     1      21.321   1.904  51.160  1.00  0.00    -0.286 OA
BRANCH  17  18
HETATM   18  C5  UNL     1      21.614   2.367  49.884  1.00  0.00     0.100 A 
HETATM   19  C6  UNL     1      21.850   1.806  48.673  1.00  0.00     0.039 A 
HETATM   20  C7  UNL     1      22.136   2.512  47.537  1.00  0.00     0.003 A 
HETATM   21  C8  UNL     1      22.196   3.877  47.581  1.00  0.00     0.002 A 
HETATM   22  C9  UNL     1      21.959   4.487  48.800  1.00  0.00     0.026 A 
HETATM   23  C10 UNL     1      21.665   3.766  49.973  1.00  0.00     0.068 A 
HETATM   24 CL1  UNL     1      21.417   4.807  51.359  1.00  0.00    -0.081 Cl
ENDBRANCH  17  18
ENDBRANCH   4  17
BRANCH  16  25
HETATM   25  O3  UNL     1      28.257   2.690  52.614  1.00  0.00    -0.394 OA
HETATM   26  H20 UNL     1      27.981   2.392  51.688  1.00  0.00     0.210 HD
ENDBRANCH  16  25
TORSDOF 3
ENDMDL
MODEL 6
REMARK VINA RESULT:      -8.4      3.841      5.013
REMARK  3 active torsions:
REMARK  status: ('A' for Active; 'I' for Inactive)
REMARK    1  A    between atoms: C4_4  and  O1_5 
REMARK    2  A    between atoms: O1_5  and  C5_6 
REMARK    3  A    between atoms: C20_24  and  O3_25 
ROOT
HETATM    1  C1  UNL     1      26.176   1.507  53.769  1.00  0.00     0.024 C 
HETATM    2  C2  UNL     1      25.352   1.824  52.798  1.00  0.00    -0.031 C 
HETATM    3  C3  UNL     1      25.777   2.597  51.643  1.00  0.00     0.075 C 
HETATM    4  C4  UNL     1      24.863   2.832  50.717  1.00  0.00     0.188 C 
HETATM    5  O2  UNL     1      23.517   2.406  50.795  1.00  0.00    -0.300 OA
HETATM    6  C11 UNL     1      23.001   2.196  52.133  1.00  0.00     0.262 C 
HETATM    7  C12 UNL     1      24.013   1.368  52.865  1.00  0.00    -0.004 C 
HETATM    8  C13 UNL     1      23.782   0.196  53.500  1.00  0.00    -0.014 C 
HETATM    9  C14 UNL     1      22.871  -0.859  53.975  1.00  0.00     0.000 C 
HETATM   10  C15 UNL     1      21.564  -1.243  54.033  1.00  0.00     0.033 C 
HETATM   11  C16 UNL     1      20.385  -0.455  53.456  1.00  0.00     0.023 C 
HETATM   12  C17 UNL     1      20.400   0.935  54.024  1.00  0.00     0.027 C 
HETATM   13  C18 UNL     1      20.737   2.016  53.016  1.00  0.00     0.120 C 
HETATM   14  N1  UNL     1      21.756   1.556  52.157  1.00  0.00    -0.381 N 
HETATM   15  C19 UNL     1      21.507   0.442  51.345  1.00  0.00     0.151 C 
HETATM   16  C20 UNL     1      20.463  -0.455  51.947  1.00  0.00     0.140 C 
ENDROOT
BRANCH   4  17
HETATM   17  O1  UNL     1      25.009   3.507  49.551  1.00  0.00    -0.286 OA
BRANCH  17  18
HETATM   18  C5  UNL     1      26.010   4.384  49.150  1.00  0.00     0.100 A 
HETATM   19  C6  UNL     1      27.342   4.303  48.922  1.00  0.00     0.039 A 
HETATM   20  C7  UNL     1      28.124   5.355  48.532  1.00  0.00     0.003 A 
HETATM   21  C8  UNL     1      27.564   6.588  48.347  1.00  0.00     0.002 A 
HETATM   22  C9  UNL     1      26.204   6.710  48.569  1.00  0.00     0.026 A 
HETATM   23  C10 UNL     1      25.393   5.632  48.971  1.00  0.00     0.068 A 
HETATM   24 CL1  UNL     1      23.716   6.090  49.177  1.00  0.00    -0.081 Cl
ENDBRANCH  17  18
ENDBRANCH   4  17
BRANCH  16  25
HETATM   25  O3  UNL     1      19.168  -0.077  51.518  1.00  0.00    -0.394 OA
HETATM   26  H20 UNL     1      19.129  -0.187  50.514  1.00  0.00     0.210 HD
ENDBRANCH  16  25
TORSDOF 3
ENDMDL
MODEL 7
REMARK VINA RESULT:      -8.3      2.477      7.327
REMARK  3 active torsions:
REMARK  status: ('A' for Active; 'I' for Inactive)
REMARK    1  A    between atoms: C4_4  and  O1_5 
REMARK    2  A    between atoms: O1_5  and  C5_6 
REMARK    3  A    between atoms: C20_24  and  O3_25 
ROOT
HETATM    1  C1  UNL     1      22.523  -1.656  55.027  1.00  0.00     0.024 C 
HETATM    2  C2  UNL     1      22.668  -0.650  54.197  1.00  0.00    -0.031 C 
HETATM    3  C3  UNL     1      21.531   0.047  53.620  1.00  0.00     0.075 C 
HETATM    4  C4  UNL     1      21.803   1.062  52.816  1.00  0.00     0.188 C 
HETATM    5  O2  UNL     1      23.109   1.482  52.473  1.00  0.00    -0.300 OA
HETATM    6  C11 UNL     1      24.139   0.466  52.555  1.00  0.00     0.262 C 
HETATM    7  C12 UNL     1      23.977  -0.212  53.882  1.00  0.00    -0.004 C 
HETATM    8  C13 UNL     1      24.933  -0.363  54.827  1.00  0.00    -0.014 C 
HETATM    9  C14 UNL     1      26.322  -0.223  55.294  1.00  0.00     0.000 C 
HETATM   10  C15 UNL     1      27.570   0.193  54.933  1.00  0.00     0.033 C 
HETATM   11  C16 UNL     1      27.944   0.787  53.572  1.00  0.00     0.023 C 
HETATM   12  C17 UNL     1      27.533  -0.169  52.490  1.00  0.00     0.027 C 
HETATM   13  C18 UNL     1      26.388   0.321  51.628  1.00  0.00     0.120 C 
HETATM   14  N1  UNL     1      25.437   0.977  52.437  1.00  0.00    -0.381 N 
HETATM   15  C19 UNL     1      25.819   2.132  53.131  1.00  0.00     0.151 C 
HETATM   16  C20 UNL     1      27.295   2.142  53.412  1.00  0.00     0.140 C 
ENDROOT
BRANCH   4  17
HETATM   17  O1  UNL     1      20.931   1.874  52.172  1.00  0.00    -0.286 OA
BRANCH  17  18
HETATM   18  C5  UNL     1      19.783   1.558  51.457  1.00  0.00     0.100 A 
HETATM   19  C6  UNL     1      19.102   0.425  51.158  1.00  0.00     0.039 A 
HETATM   20  C7  UNL     1      17.965   0.385  50.400  1.00  0.00     0.003 A 
HETATM   21  C8  UNL     1      17.444   1.542  49.891  1.00  0.00     0.002 A 
HETATM   22  C9  UNL     1      18.111   2.721  50.177  1.00  0.00     0.026 A 
HETATM   23  C10 UNL     1      19.282   2.769  50.956  1.00  0.00     0.068 A 
HETATM   24 CL1  UNL     1      19.900   4.396  51.143  1.00  0.00    -0.081 Cl
ENDBRANCH  17  18
ENDBRANCH   4  17
BRANCH  16  25
HETATM   25  O3  UNL     1      28.004   2.760  52.354  1.00  0.00    -0.394 OA
HETATM   26  H20 UNL     1      28.071   2.095  51.596  1.00  0.00     0.210 HD
ENDBRANCH  16  25
TORSDOF 3
ENDMDL
MODEL 8
REMARK VINA RESULT:      -8.0      3.996      6.812
REMARK  3 active torsions:
REMARK  status: ('A' for Active; 'I' for Inactive)
REMARK    1  A    between atoms: C4_4  and  O1_5 
REMARK    2  A    between atoms: O1_5  and  C5_6 
REMARK    3  A    between atoms: C20_24  and  O3_25 
ROOT
HETATM    1  C1  UNL     1      21.751   3.576  46.263  1.00  0.00     0.024 C 
HETATM    2  C2  UNL     1      21.952   3.316  47.534  1.00  0.00    -0.031 C 
HETATM    3  C3  UNL     1      21.799   1.981  48.085  1.00  0.00     0.075 C 
HETATM    4  C4  UNL     1      22.054   1.838  49.375  1.00  0.00     0.188 C 
HETATM    5  O2  UNL     1      22.433   2.894  50.237  1.00  0.00    -0.300 OA
HETATM    6  C11 UNL     1      22.006   4.218  49.834  1.00  0.00     0.262 C 
HETATM    7  C12 UNL     1      22.363   4.370  48.386  1.00  0.00    -0.004 C 
HETATM    8  C13 UNL     1      23.106   5.361  47.843  1.00  0.00    -0.014 C 
HETATM    9  C14 UNL     1      23.842   6.632  47.950  1.00  0.00     0.000 C 
HETATM   10  C15 UNL     1      24.193   7.634  48.807  1.00  0.00     0.033 C 
HETATM   11  C16 UNL     1      23.803   7.709  50.285  1.00  0.00     0.023 C 
HETATM   12  C17 UNL     1      22.310   7.611  50.405  1.00  0.00     0.027 C 
HETATM   13  C18 UNL     1      21.819   6.327  51.041  1.00  0.00     0.120 C 
HETATM   14  N1  UNL     1      22.597   5.246  50.579  1.00  0.00    -0.381 N 
HETATM   15  C19 UNL     1      23.969   5.227  50.863  1.00  0.00     0.151 C 
HETATM   16  C20 UNL     1      24.509   6.616  51.054  1.00  0.00     0.140 C 
ENDROOT
BRANCH   4  17
HETATM   17  O1  UNL     1      22.000   0.705  50.117  1.00  0.00    -0.286 OA
BRANCH  17  18
HETATM   18  C5  UNL     1      21.261   0.425  51.260  1.00  0.00     0.100 A 
HETATM   19  C6  UNL     1      19.956   0.206  51.546  1.00  0.00     0.039 A 
HETATM   20  C7  UNL     1      19.472  -0.046  52.801  1.00  0.00     0.003 A 
HETATM   21  C8  UNL     1      20.329  -0.090  53.865  1.00  0.00     0.002 A 
HETATM   22  C9  UNL     1      21.672   0.128  53.611  1.00  0.00     0.026 A 
HETATM   23  C10 UNL     1      22.176   0.389  52.323  1.00  0.00     0.068 A 
HETATM   24 CL1  UNL     1      23.911   0.626  52.314  1.00  0.00    -0.081 Cl
ENDBRANCH  17  18
ENDBRANCH   4  17
BRANCH  16  25
HETATM   25  O3  UNL     1      24.416   7.011  52.411  1.00  0.00    -0.394 OA
HETATM   26  H20 UNL     1      23.962   7.914  52.440  1.00  0.00     0.210 HD
ENDBRANCH  16  25
TORSDOF 3
ENDMDL
MODEL 9
REMARK VINA RESULT:      -7.8      4.494      6.600
REMARK  3 active torsions:
REMARK  status: ('A' for Active; 'I' for Inactive)
REMARK    1  A    between atoms: C4_4  and  O1_5 
REMARK    2  A    between atoms: O1_5  and  C5_6 
REMARK    3  A    between atoms: C20_24  and  O3_25 
ROOT
HETATM    1  C1  UNL     1      27.798   4.757  48.581  1.00  0.00     0.024 C 
HETATM    2  C2  UNL     1      26.715   4.453  49.257  1.00  0.00    -0.031 C 
HETATM    3  C3  UNL     1      26.621   3.249  50.067  1.00  0.00     0.075 C 
HETATM    4  C4  UNL     1      25.488   3.063  50.723  1.00  0.00     0.188 C 
HETATM    5  O2  UNL     1      24.377   3.937  50.665  1.00  0.00    -0.300 OA
HETATM    6  C11 UNL     1      24.269   4.737  49.462  1.00  0.00     0.262 C 
HETATM    7  C12 UNL     1      25.617   5.346  49.222  1.00  0.00    -0.004 C 
HETATM    8  C13 UNL     1      25.886   6.662  49.064  1.00  0.00    -0.014 C 
HETATM    9  C14 UNL     1      25.452   8.064  48.933  1.00  0.00     0.000 C 
HETATM   10  C15 UNL     1      24.360   8.879  48.882  1.00  0.00     0.033 C 
HETATM   11  C16 UNL     1      22.905   8.414  48.977  1.00  0.00     0.023 C 
HETATM   12  C17 UNL     1      22.653   7.374  47.925  1.00  0.00     0.027 C 
HETATM   13  C18 UNL     1      22.422   5.979  48.470  1.00  0.00     0.120 C 
HETATM   14  N1  UNL     1      23.301   5.745  49.548  1.00  0.00    -0.381 N 
HETATM   15  C19 UNL     1      23.199   6.546  50.693  1.00  0.00     0.151 C 
HETATM   16  C20 UNL     1      22.626   7.896  50.369  1.00  0.00     0.140 C 
ENDROOT
BRANCH   4  17
HETATM   17  O1  UNL     1      25.159   2.040  51.549  1.00  0.00    -0.286 OA
BRANCH  17  18
HETATM   18  C5  UNL     1      23.949   1.376  51.703  1.00  0.00     0.100 A 
HETATM   19  C6  UNL     1      22.749   1.380  51.076  1.00  0.00     0.039 A 
HETATM   20  C7  UNL     1      21.680   0.611  51.448  1.00  0.00     0.003 A 
HETATM   21  C8  UNL     1      21.788  -0.233  52.518  1.00  0.00     0.002 A 
HETATM   22  C9  UNL     1      23.000  -0.265  53.184  1.00  0.00     0.026 A 
HETATM   23  C10 UNL     1      24.104   0.524  52.807  1.00  0.00     0.068 A 
HETATM   24 CL1  UNL     1      25.496   0.271  53.837  1.00  0.00    -0.081 Cl
ENDBRANCH  17  18
ENDBRANCH   4  17
BRANCH  16  25
HETATM   25  O3  UNL     1      21.214   7.881  50.473  1.00  0.00    -0.394 OA
HETATM   26  H20 UNL     1      20.943   8.613  51.116  1.00  0.00     0.210 HD
ENDBRANCH  16  25
TORSDOF 3
ENDMDL
