MODEL 1
REMARK VINA RESULT:      -9.9      0.000      0.000
REMARK  5 active torsions:
REMARK  status: ('A' for Active; 'I' for Inactive)
REMARK    1  A    between atoms: O1_2  and  C2_3 
REMARK    2  A    between atoms: C5_6  and  N1_7 
REMARK    3  A    between atoms: C12_15  and  N3_16 
REMARK    4  A    between atoms: N3_16  and  C13_17 
REMARK    5  A    between atoms: C19_25  and  C20_26 
REMARK       I    between atoms: C20_26  and  N6_27 
ROOT
HETATM    1  C13 UNL     1      26.054   3.027  50.364  1.00  0.00     0.727 A 
HETATM    2  N4  UNL     1      27.114   2.786  51.144  1.00  0.00    -0.074 NA
HETATM    3  C14 UNL     1      27.085   1.997  52.223  1.00  0.00     0.146 A 
HETATM    4  C15 UNL     1      25.923   1.370  52.600  1.00  0.00    -0.008 A 
HETATM    5  C16 UNL     1      24.827   1.609  51.807  1.00  0.00     0.112 A 
HETATM    6  N5  UNL     1      24.933   2.401  50.756  1.00  0.00    -0.060 NA
HETATM    7  C17 UNL     1      23.581   0.959  52.182  1.00  0.00     0.091 A 
HETATM    8  C18 UNL     1      23.650   0.171  53.302  1.00  0.00     0.009 A 
HETATM    9  C19 UNL     1      22.378  -0.335  53.465  1.00  0.00     0.153 A 
HETATM   10  N7  UNL     1      21.629   0.172  52.446  1.00  0.00    -0.166 NA
HETATM   11  N8  UNL     1      22.355   0.949  51.678  1.00  0.00    -0.271 N 
HETATM   12  C21 UNL     1      21.973   1.689  50.491  1.00  0.00     0.180 C 
HETATM   13  C22 UNL     1      24.786  -0.128  54.199  1.00  0.00     0.048 A 
HETATM   14  C23 UNL     1      26.073   0.540  53.810  1.00  0.00     0.047 A 
ENDROOT
BRANCH   1  15
HETATM   15  N3  UNL     1      26.036   3.854  49.212  1.00  0.00    -0.185 N 
HETATM   16  H18 UNL     1      25.330   3.592  48.461  1.00  0.00     0.184 HD
BRANCH  15  17
HETATM   17  C12 UNL     1      26.827   4.974  48.931  1.00  0.00     0.084 A 
HETATM   18  C2  UNL     1      26.298   6.252  48.981  1.00  0.00     0.095 A 
HETATM   19  C3  UNL     1      27.009   7.388  48.721  1.00  0.00     0.041 A 
HETATM   20  C4  UNL     1      28.340   7.308  48.381  1.00  0.00     0.032 A 
HETATM   21  C5  UNL     1      28.944   6.070  48.309  1.00  0.00     0.032 A 
HETATM   22  C11 UNL     1      28.157   4.974  48.586  1.00  0.00     0.062 A 
BRANCH  18  23
HETATM   23  O1  UNL     1      24.947   6.419  49.319  1.00  0.00    -0.354 OA
HETATM   24  C1  UNL     1      24.510   6.670  50.632  1.00  0.00     0.210 C 
ENDBRANCH  18  23
BRANCH  21  25
HETATM   25  N1  UNL     1      30.327   5.944  47.957  1.00  0.00    -0.377 N 
HETATM   26  C6  UNL     1      31.023   4.777  47.475  1.00  0.00     0.153 C 
HETATM   27  C7  UNL     1      32.424   4.741  48.043  1.00  0.00     0.291 C 
HETATM   28  N2  UNL     1      33.223   5.856  47.583  1.00  0.00     0.087 N 
HETATM   29  C8  UNL     1      34.265   6.205  48.526  1.00  0.00     0.310 C 
HETATM   30  C9  UNL     1      32.410   6.997  47.220  1.00  0.00     0.291 C 
HETATM   31  C10 UNL     1      31.175   7.111  48.084  1.00  0.00     0.153 C 
ENDBRANCH  21  25
ENDBRANCH  15  17
ENDBRANCH   1  15
BRANCH   9  32
HETATM   32  C20 UNL     1      21.854  -1.239  54.496  1.00  0.00     0.270 C 
HETATM   33  N6  UNL     1      20.495  -1.649  54.470  1.00  0.00    -0.365 N 
HETATM   34  H20 UNL     1      20.065  -2.562  54.703  1.00  0.00     0.159 HD
HETATM   35  H21 UNL     1      19.662  -1.063  54.196  1.00  0.00     0.159 HD
HETATM   36  O2  UNL     1      22.613  -1.651  55.403  1.00  0.00    -0.266 OA
ENDBRANCH   9  32
TORSDOF 5
ENDMDL
MODEL 2
REMARK VINA RESULT:      -9.6      2.907      8.436
REMARK  5 active torsions:
REMARK  status: ('A' for Active; 'I' for Inactive)
REMARK    1  A    between atoms: O1_2  and  C2_3 
REMARK    2  A    between atoms: C5_6  and  N1_7 
REMARK    3  A    between atoms: C12_15  and  N3_16 
REMARK    4  A    between atoms: N3_16  and  C13_17 
REMARK    5  A    between atoms: C19_25  and  C20_26 
REMARK       I    between atoms: C20_26  and  N6_27 
ROOT
HETATM    1  C13 UNL     1      22.303   3.892  51.415  1.00  0.00     0.727 A 
HETATM    2  N4  UNL     1      21.612   5.021  51.609  1.00  0.00    -0.074 NA
HETATM    3  C14 UNL     1      22.046   6.234  51.250  1.00  0.00     0.146 A 
HETATM    4  C15 UNL     1      23.267   6.388  50.639  1.00  0.00    -0.008 A 
HETATM    5  C16 UNL     1      23.985   5.234  50.433  1.00  0.00     0.112 A 
HETATM    6  N5  UNL     1      23.490   4.072  50.816  1.00  0.00    -0.060 NA
HETATM    7  C17 UNL     1      25.283   5.365  49.788  1.00  0.00     0.091 A 
HETATM    8  C18 UNL     1      25.640   6.647  49.457  1.00  0.00     0.009 A 
HETATM    9  C19 UNL     1      26.882   6.533  48.869  1.00  0.00     0.153 A 
HETATM   10  N7  UNL     1      27.193   5.207  48.881  1.00  0.00    -0.166 NA
HETATM   11  N8  UNL     1      26.230   4.509  49.434  1.00  0.00    -0.271 N 
HETATM   12  C21 UNL     1      26.136   3.078  49.655  1.00  0.00     0.180 C 
HETATM   13  C22 UNL     1      24.924   7.926  49.649  1.00  0.00     0.048 A 
HETATM   14  C23 UNL     1      23.584   7.790  50.310  1.00  0.00     0.047 A 
ENDROOT
BRANCH   1  15
HETATM   15  N3  UNL     1      21.885   2.585  51.778  1.00  0.00    -0.185 N 
HETATM   16  H18 UNL     1      20.880   2.334  51.543  1.00  0.00     0.184 HD
BRANCH  15  17
HETATM   17  C12 UNL     1      22.626   1.578  52.408  1.00  0.00     0.084 A 
HETATM   18  C2  UNL     1      22.041   0.372  52.753  1.00  0.00     0.095 A 
HETATM   19  C3  UNL     1      22.701  -0.653  53.368  1.00  0.00     0.041 A 
HETATM   20  C4  UNL     1      24.034  -0.525  53.687  1.00  0.00     0.032 A 
HETATM   21  C5  UNL     1      24.691   0.647  53.377  1.00  0.00     0.032 A 
HETATM   22  C11 UNL     1      23.954   1.632  52.757  1.00  0.00     0.062 A 
BRANCH  18  23
HETATM   23  O1  UNL     1      20.685   0.163  52.463  1.00  0.00    -0.354 OA
HETATM   24  C1  UNL     1      19.808  -0.506  53.335  1.00  0.00     0.210 C 
ENDBRANCH  18  23
BRANCH  21  25
HETATM   25  N1  UNL     1      26.077   0.821  53.693  1.00  0.00    -0.377 N 
HETATM   26  C6  UNL     1      26.875   2.016  53.586  1.00  0.00     0.153 C 
HETATM   27  C7  UNL     1      28.278   1.662  53.143  1.00  0.00     0.291 C 
HETATM   28  N2  UNL     1      28.967   0.853  54.125  1.00  0.00     0.087 N 
HETATM   29  C8  UNL     1      29.978   0.010  53.522  1.00  0.00     0.310 C 
HETATM   30  C9  UNL     1      28.049   0.100  54.952  1.00  0.00     0.291 C 
HETATM   31  C10 UNL     1      26.815  -0.324  54.189  1.00  0.00     0.153 C 
ENDBRANCH  21  25
ENDBRANCH  15  17
ENDBRANCH   1  15
BRANCH   9  32
HETATM   32  C20 UNL     1      27.757   7.574  48.316  1.00  0.00     0.270 C 
HETATM   33  N6  UNL     1      28.572   8.358  49.173  1.00  0.00    -0.365 N 
HETATM   34  H20 UNL     1      29.534   8.719  49.040  1.00  0.00     0.159 HD
HETATM   35  H21 UNL     1      28.321   8.717  50.133  1.00  0.00     0.159 HD
HETATM   36  O2  UNL     1      27.782   7.770  47.079  1.00  0.00    -0.266 OA
ENDBRANCH   9  32
TORSDOF 5
ENDMDL
MODEL 3
REMARK VINA RESULT:      -9.6      3.242      9.254
REMARK  5 active torsions:
REMARK  status: ('A' for Active; 'I' for Inactive)
REMARK    1  A    between atoms: O1_2  and  C2_3 
REMARK    2  A    between atoms: C5_6  and  N1_7 
REMARK    3  A    between atoms: C12_15  and  N3_16 
REMARK    4  A    between atoms: N3_16  and  C13_17 
REMARK    5  A    between atoms: C19_25  and  C20_26 
REMARK       I    between atoms: C20_26  and  N6_27 
ROOT
HETATM    1  C13 UNL     1      26.643   5.051  49.001  1.00  0.00     0.727 A 
HETATM    2  N4  UNL     1      27.850   4.653  48.583  1.00  0.00    -0.074 NA
HETATM    3  C14 UNL     1      28.840   5.489  48.254  1.00  0.00     0.146 A 
HETATM    4  C15 UNL     1      28.664   6.849  48.333  1.00  0.00    -0.008 A 
HETATM    5  C16 UNL     1      27.428   7.270  48.762  1.00  0.00     0.112 A 
HETATM    6  N5  UNL     1      26.499   6.383  49.069  1.00  0.00    -0.060 NA
HETATM    7  C17 UNL     1      27.210   8.705  48.856  1.00  0.00     0.091 A 
HETATM    8  C18 UNL     1      28.284   9.480  48.498  1.00  0.00     0.009 A 
HETATM    9  C19 UNL     1      27.858  10.782  48.662  1.00  0.00     0.153 A 
HETATM   10  N7  UNL     1      26.571  10.712  49.103  1.00  0.00    -0.166 NA
HETATM   11  N8  UNL     1      26.185   9.463  49.218  1.00  0.00    -0.271 N 
HETATM   12  C21 UNL     1      24.909   8.928  49.649  1.00  0.00     0.180 C 
HETATM   13  C22 UNL     1      29.633   9.099  48.029  1.00  0.00     0.048 A 
HETATM   14  C23 UNL     1      29.858   7.618  47.936  1.00  0.00     0.047 A 
ENDROOT
BRANCH   1  15
HETATM   15  N3  UNL     1      25.563   4.204  49.360  1.00  0.00    -0.185 N 
HETATM   16  H18 UNL     1      24.893   3.945  48.576  1.00  0.00     0.184 HD
BRANCH  15  17
HETATM   17  C12 UNL     1      25.261   3.662  50.614  1.00  0.00     0.084 A 
HETATM   18  C2  UNL     1      24.182   4.121  51.350  1.00  0.00     0.095 A 
HETATM   19  C3  UNL     1      23.828   3.639  52.577  1.00  0.00     0.041 A 
HETATM   20  C4  UNL     1      24.564   2.634  53.164  1.00  0.00     0.032 A 
HETATM   21  C5  UNL     1      25.656   2.121  52.496  1.00  0.00     0.032 A 
HETATM   22  C11 UNL     1      25.945   2.661  51.263  1.00  0.00     0.062 A 
BRANCH  18  23
HETATM   23  O1  UNL     1      23.382   5.145  50.822  1.00  0.00    -0.354 OA
HETATM   24  C1  UNL     1      21.983   5.176  50.962  1.00  0.00     0.210 C 
ENDBRANCH  18  23
BRANCH  21  25
HETATM   25  N1  UNL     1      26.448   1.076  53.073  1.00  0.00    -0.377 N 
HETATM   26  C6  UNL     1      26.770   0.860  54.461  1.00  0.00     0.153 C 
HETATM   27  C7  UNL     1      28.182   0.333  54.588  1.00  0.00     0.291 C 
HETATM   28  N2  UNL     1      28.330  -0.969  53.975  1.00  0.00     0.087 N 
HETATM   29  C8  UNL     1      29.687  -1.207  53.526  1.00  0.00     0.310 C 
HETATM   30  C9  UNL     1      27.359  -1.192  52.925  1.00  0.00     0.291 C 
HETATM   31  C10 UNL     1      27.021   0.083  52.186  1.00  0.00     0.153 C 
ENDBRANCH  21  25
ENDBRANCH  15  17
ENDBRANCH   1  15
BRANCH   9  32
HETATM   32  C20 UNL     1      28.578  12.040  48.432  1.00  0.00     0.270 C 
HETATM   33  N6  UNL     1      29.507  12.523  49.390  1.00  0.00    -0.365 N 
HETATM   34  H20 UNL     1      30.414  13.005  49.261  1.00  0.00     0.159 HD
HETATM   35  H21 UNL     1      29.422  12.465  50.440  1.00  0.00     0.159 HD
HETATM   36  O2  UNL     1      28.369  12.690  47.382  1.00  0.00    -0.266 OA
ENDBRANCH   9  32
TORSDOF 5
ENDMDL
MODEL 4
REMARK VINA RESULT:      -9.5      4.299      7.092
REMARK  5 active torsions:
REMARK  status: ('A' for Active; 'I' for Inactive)
REMARK    1  A    between atoms: O1_2  and  C2_3 
REMARK    2  A    between atoms: C5_6  and  N1_7 
REMARK    3  A    between atoms: C12_15  and  N3_16 
REMARK    4  A    between atoms: N3_16  and  C13_17 
REMARK    5  A    between atoms: C19_25  and  C20_26 
REMARK       I    between atoms: C20_26  and  N6_27 
ROOT
HETATM    1  C13 UNL     1      22.267   0.643  51.821  1.00  0.00     0.727 A 
HETATM    2  N4  UNL     1      22.043  -0.248  52.793  1.00  0.00    -0.074 NA
HETATM    3  C14 UNL     1      22.965  -0.635  53.680  1.00  0.00     0.146 A 
HETATM    4  C15 UNL     1      24.237  -0.117  53.639  1.00  0.00    -0.008 A 
HETATM    5  C16 UNL     1      24.479   0.801  52.645  1.00  0.00     0.112 A 
HETATM    6  N5  UNL     1      23.516   1.133  51.805  1.00  0.00    -0.060 NA
HETATM    7  C17 UNL     1      25.817   1.367  52.575  1.00  0.00     0.091 A 
HETATM    8  C18 UNL     1      26.692   0.909  53.526  1.00  0.00     0.009 A 
HETATM    9  C19 UNL     1      27.876   1.570  53.273  1.00  0.00     0.153 A 
HETATM   10  N7  UNL     1      27.645   2.375  52.199  1.00  0.00    -0.166 NA
HETATM   11  N8  UNL     1      26.407   2.250  51.782  1.00  0.00    -0.271 N 
HETATM   12  C21 UNL     1      25.734   2.910  50.681  1.00  0.00     0.180 C 
HETATM   13  C22 UNL     1      26.503  -0.071  54.616  1.00  0.00     0.048 A 
HETATM   14  C23 UNL     1      25.121  -0.652  54.690  1.00  0.00     0.047 A 
ENDROOT
BRANCH   1  15
HETATM   15  N3  UNL     1      21.323   1.084  50.858  1.00  0.00    -0.185 N 
HETATM   16  H18 UNL     1      20.933   0.337  50.211  1.00  0.00     0.184 HD
BRANCH  15  17
HETATM   17  C12 UNL     1      20.833   2.379  50.648  1.00  0.00     0.084 A 
HETATM   18  C2  UNL     1      19.501   2.597  50.341  1.00  0.00     0.095 A 
HETATM   19  C3  UNL     1      18.954   3.829  50.124  1.00  0.00     0.041 A 
HETATM   20  C4  UNL     1      19.740   4.957  50.203  1.00  0.00     0.032 A 
HETATM   21  C5  UNL     1      21.079   4.826  50.504  1.00  0.00     0.032 A 
HETATM   22  C11 UNL     1      21.551   3.549  50.709  1.00  0.00     0.062 A 
BRANCH  18  23
HETATM   23  O1  UNL     1      18.634   1.498  50.242  1.00  0.00    -0.354 OA
HETATM   24  C1  UNL     1      17.509   1.331  51.068  1.00  0.00     0.210 C 
ENDBRANCH  18  23
BRANCH  21  25
HETATM   25  N1  UNL     1      21.930   5.975  50.594  1.00  0.00    -0.377 N 
HETATM   26  C6  UNL     1      21.552   7.362  50.688  1.00  0.00     0.153 C 
HETATM   27  C7  UNL     1      22.527   8.218  49.910  1.00  0.00     0.291 C 
HETATM   28  N2  UNL     1      23.860   8.166  50.472  1.00  0.00     0.087 N 
HETATM   29  C8  UNL     1      24.880   8.414  49.474  1.00  0.00     0.310 C 
HETATM   30  C9  UNL     1      24.096   6.939  51.203  1.00  0.00     0.291 C 
HETATM   31  C10 UNL     1      23.364   5.766  50.593  1.00  0.00     0.153 C 
ENDBRANCH  21  25
ENDBRANCH  15  17
ENDBRANCH   1  15
BRANCH   9  32
HETATM   32  C20 UNL     1      29.166   1.482  53.968  1.00  0.00     0.270 C 
HETATM   33  N6  UNL     1      30.140   0.533  53.562  1.00  0.00    -0.365 N 
HETATM   34  H20 UNL     1      31.171   0.609  53.514  1.00  0.00     0.159 HD
HETATM   35  H21 UNL     1      29.963  -0.451  53.225  1.00  0.00     0.159 HD
HETATM   36  O2  UNL     1      29.406   2.252  54.927  1.00  0.00    -0.266 OA
ENDBRANCH   9  32
TORSDOF 5
ENDMDL
MODEL 5
REMARK VINA RESULT:      -9.4      4.189      6.947
REMARK  5 active torsions:
REMARK  status: ('A' for Active; 'I' for Inactive)
REMARK    1  A    between atoms: O1_2  and  C2_3 
REMARK    2  A    between atoms: C5_6  and  N1_7 
REMARK    3  A    between atoms: C12_15  and  N3_16 
REMARK    4  A    between atoms: N3_16  and  C13_17 
REMARK    5  A    between atoms: C19_25  and  C20_26 
REMARK       I    between atoms: C20_26  and  N6_27 
ROOT
HETATM    1  C13 UNL     1      22.829  -0.590  53.757  1.00  0.00     0.727 A 
HETATM    2  N4  UNL     1      22.079  -1.280  54.624  1.00  0.00    -0.074 NA
HETATM    3  C14 UNL     1      20.761  -1.460  54.495  1.00  0.00     0.146 A 
HETATM    4  C15 UNL     1      20.083  -0.926  53.426  1.00  0.00    -0.008 A 
HETATM    5  C16 UNL     1      20.842  -0.215  52.528  1.00  0.00     0.112 A 
HETATM    6  N5  UNL     1      22.141  -0.081  52.723  1.00  0.00    -0.060 NA
HETATM    7  C17 UNL     1      20.152   0.364  51.385  1.00  0.00     0.091 A 
HETATM    8  C18 UNL     1      18.803   0.126  51.340  1.00  0.00     0.009 A 
HETATM    9  C19 UNL     1      18.365   0.756  50.193  1.00  0.00     0.153 A 
HETATM   10  N7  UNL     1      19.463   1.326  49.625  1.00  0.00    -0.166 NA
HETATM   11  N8  UNL     1      20.535   1.089  50.344  1.00  0.00    -0.271 N 
HETATM   12  C21 UNL     1      21.907   1.500  50.118  1.00  0.00     0.180 C 
HETATM   13  C22 UNL     1      17.925  -0.622  52.265  1.00  0.00     0.048 A 
HETATM   14  C23 UNL     1      18.638  -1.222  53.442  1.00  0.00     0.047 A 
ENDROOT
BRANCH   1  15
HETATM   15  N3  UNL     1      24.228  -0.373  53.851  1.00  0.00    -0.185 N 
HETATM   16  H18 UNL     1      24.729  -0.891  54.631  1.00  0.00     0.184 HD
BRANCH  15  17
HETATM   17  C12 UNL     1      25.039   0.438  53.048  1.00  0.00     0.084 A 
HETATM   18  C2  UNL     1      26.358   0.101  52.797  1.00  0.00     0.095 A 
HETATM   19  C3  UNL     1      27.206   0.842  52.025  1.00  0.00     0.041 A 
HETATM   20  C4  UNL     1      26.767   2.008  51.438  1.00  0.00     0.032 A 
HETATM   21  C5  UNL     1      25.464   2.414  51.639  1.00  0.00     0.032 A 
HETATM   22  C11 UNL     1      24.674   1.610  52.431  1.00  0.00     0.062 A 
BRANCH  18  23
HETATM   23  O1  UNL     1      26.883  -1.072  53.359  1.00  0.00    -0.354 OA
HETATM   24  C1  UNL     1      27.126  -2.238  52.613  1.00  0.00     0.210 C 
ENDBRANCH  18  23
BRANCH  21  25
HETATM   25  N1  UNL     1      24.969   3.621  51.048  1.00  0.00    -0.377 N 
HETATM   26  C6  UNL     1      25.404   4.266  49.834  1.00  0.00     0.153 C 
HETATM   27  C7  UNL     1      25.350   5.768  49.999  1.00  0.00     0.291 C 
HETATM   28  N2  UNL     1      23.997   6.242  50.198  1.00  0.00     0.087 N 
HETATM   29  C8  UNL     1      23.960   7.478  50.952  1.00  0.00     0.310 C 
HETATM   30  C9  UNL     1      23.141   5.226  50.770  1.00  0.00     0.291 C 
HETATM   31  C10 UNL     1      23.892   4.320  51.719  1.00  0.00     0.153 C 
ENDBRANCH  21  25
ENDBRANCH  15  17
ENDBRANCH   1  15
BRANCH   9  32
HETATM   32  C20 UNL     1      17.013   0.841  49.629  1.00  0.00     0.270 C 
HETATM   33  N6  UNL     1      16.476  -0.236  48.878  1.00  0.00    -0.365 N 
HETATM   34  H20 UNL     1      15.513  -0.615  48.842  1.00  0.00     0.159 HD
HETATM   35  H21 UNL     1      16.996  -0.858  48.203  1.00  0.00     0.159 HD
HETATM   36  O2  UNL     1      16.329   1.875  49.814  1.00  0.00    -0.266 OA
ENDBRANCH   9  32
TORSDOF 5
ENDMDL
MODEL 6
REMARK VINA RESULT:      -9.4      2.191      2.852
REMARK  5 active torsions:
REMARK  status: ('A' for Active; 'I' for Inactive)
REMARK    1  A    between atoms: O1_2  and  C2_3 
REMARK    2  A    between atoms: C5_6  and  N1_7 
REMARK    3  A    between atoms: C12_15  and  N3_16 
REMARK    4  A    between atoms: N3_16  and  C13_17 
REMARK    5  A    between atoms: C19_25  and  C20_26 
REMARK       I    between atoms: C20_26  and  N6_27 
ROOT
HETATM    1  C13 UNL     1      25.314   3.341  50.223  1.00  0.00     0.727 A 
HETATM    2  N4  UNL     1      26.533   2.810  50.377  1.00  0.00    -0.074 NA
HETATM    3  C14 UNL     1      26.804   1.785  51.190  1.00  0.00     0.146 A 
HETATM    4  C15 UNL     1      25.810   1.200  51.936  1.00  0.00    -0.008 A 
HETATM    5  C16 UNL     1      24.554   1.736  51.786  1.00  0.00     0.112 A 
HETATM    6  N5  UNL     1      24.363   2.750  50.962  1.00  0.00    -0.060 NA
HETATM    7  C17 UNL     1      23.479   1.139  52.564  1.00  0.00     0.091 A 
HETATM    8  C18 UNL     1      23.855   0.094  53.368  1.00  0.00     0.009 A 
HETATM    9  C19 UNL     1      22.697  -0.309  53.999  1.00  0.00     0.153 A 
HETATM   10  N7  UNL     1      21.707   0.506  53.542  1.00  0.00    -0.166 NA
HETATM   11  N8  UNL     1      22.180   1.376  52.681  1.00  0.00    -0.271 N 
HETATM   12  C21 UNL     1      21.490   2.422  51.952  1.00  0.00     0.180 C 
HETATM   13  C22 UNL     1      25.179  -0.530  53.580  1.00  0.00     0.048 A 
HETATM   14  C23 UNL     1      26.286   0.084  52.774  1.00  0.00     0.047 A 
ENDROOT
BRANCH   1  15
HETATM   15  N3  UNL     1      24.978   4.427  49.374  1.00  0.00    -0.185 N 
HETATM   16  H18 UNL     1      24.548   4.170  48.437  1.00  0.00     0.184 HD
BRANCH  15  17
HETATM   17  C12 UNL     1      25.136   5.798  49.610  1.00  0.00     0.084 A 
HETATM   18  C2  UNL     1      24.113   6.550  50.161  1.00  0.00     0.095 A 
HETATM   19  C3  UNL     1      24.197   7.888  50.419  1.00  0.00     0.041 A 
HETATM   20  C4  UNL     1      25.353   8.577  50.126  1.00  0.00     0.032 A 
HETATM   21  C5  UNL     1      26.420   7.901  49.574  1.00  0.00     0.032 A 
HETATM   22  C11 UNL     1      26.254   6.552  49.346  1.00  0.00     0.062 A 
BRANCH  18  23
HETATM   23  O1  UNL     1      22.903   5.922  50.487  1.00  0.00    -0.354 OA
HETATM   24  C1  UNL     1      21.755   6.628  50.889  1.00  0.00     0.210 C 
ENDBRANCH  18  23
BRANCH  21  25
HETATM   25  N1  UNL     1      27.639   8.581  49.254  1.00  0.00    -0.377 N 
HETATM   26  C6  UNL     1      27.990   9.955  49.514  1.00  0.00     0.153 C 
HETATM   27  C7  UNL     1      28.813  10.503  48.369  1.00  0.00     0.291 C 
HETATM   28  N2  UNL     1      30.083   9.821  48.241  1.00  0.00     0.087 N 
HETATM   29  C8  UNL     1      30.582   9.852  46.881  1.00  0.00     0.310 C 
HETATM   30  C9  UNL     1      30.038   8.478  48.776  1.00  0.00     0.291 C 
HETATM   31  C10 UNL     1      28.683   7.835  48.582  1.00  0.00     0.153 C 
ENDBRANCH  21  25
ENDBRANCH  15  17
ENDBRANCH   1  15
BRANCH   9  32
HETATM   32  C20 UNL     1      22.487  -1.386  54.974  1.00  0.00     0.270 C 
HETATM   33  N6  UNL     1      23.479  -1.681  55.945  1.00  0.00    -0.365 N 
HETATM   34  H20 UNL     1      23.384  -1.962  56.937  1.00  0.00     0.159 HD
HETATM   35  H21 UNL     1      24.525  -1.659  55.809  1.00  0.00     0.159 HD
HETATM   36  O2  UNL     1      21.423  -2.047  54.947  1.00  0.00    -0.266 OA
ENDBRANCH   9  32
TORSDOF 5
ENDMDL
MODEL 7
REMARK VINA RESULT:      -9.3      4.206      8.707
REMARK  5 active torsions:
REMARK  status: ('A' for Active; 'I' for Inactive)
REMARK    1  A    between atoms: O1_2  and  C2_3 
REMARK    2  A    between atoms: C5_6  and  N1_7 
REMARK    3  A    between atoms: C12_15  and  N3_16 
REMARK    4  A    between atoms: N3_16  and  C13_17 
REMARK    5  A    between atoms: C19_25  and  C20_26 
REMARK       I    between atoms: C20_26  and  N6_27 
ROOT
HETATM    1  C13 UNL     1      21.359   1.733  50.008  1.00  0.00     0.727 A 
HETATM    2  N4  UNL     1      21.198   1.832  48.684  1.00  0.00    -0.074 NA
HETATM    3  C14 UNL     1      21.684   2.834  47.944  1.00  0.00     0.146 A 
HETATM    4  C15 UNL     1      22.401   3.850  48.527  1.00  0.00    -0.008 A 
HETATM    5  C16 UNL     1      22.574   3.760  49.888  1.00  0.00     0.112 A 
HETATM    6  N5  UNL     1      22.063   2.738  50.551  1.00  0.00    -0.060 NA
HETATM    7  C17 UNL     1      23.328   4.822  50.534  1.00  0.00     0.091 A 
HETATM    8  C18 UNL     1      23.785   5.805  49.694  1.00  0.00     0.009 A 
HETATM    9  C19 UNL     1      24.460   6.689  50.508  1.00  0.00     0.153 A 
HETATM   10  N7  UNL     1      24.371   6.192  51.773  1.00  0.00    -0.166 NA
HETATM   11  N8  UNL     1      23.689   5.071  51.785  1.00  0.00    -0.271 N 
HETATM   12  C21 UNL     1      23.352   4.208  52.900  1.00  0.00     0.180 C 
HETATM   13  C22 UNL     1      23.637   5.967  48.232  1.00  0.00     0.048 A 
HETATM   14  C23 UNL     1      22.861   4.869  47.564  1.00  0.00     0.047 A 
ENDROOT
BRANCH   1  15
HETATM   15  N3  UNL     1      20.864   0.691  50.834  1.00  0.00    -0.185 N 
HETATM   16  H18 UNL     1      19.961   0.231  50.514  1.00  0.00     0.184 HD
BRANCH  15  17
HETATM   17  C12 UNL     1      21.409   0.186  52.020  1.00  0.00     0.084 A 
HETATM   18  C2  UNL     1      20.596  -0.311  53.024  1.00  0.00     0.095 A 
HETATM   19  C3  UNL     1      21.057  -0.819  54.205  1.00  0.00     0.041 A 
HETATM   20  C4  UNL     1      22.410  -0.858  54.460  1.00  0.00     0.032 A 
HETATM   21  C5  UNL     1      23.288  -0.380  53.510  1.00  0.00     0.032 A 
HETATM   22  C11 UNL     1      22.742   0.115  52.346  1.00  0.00     0.062 A 
BRANCH  18  23
HETATM   23  O1  UNL     1      19.205  -0.306  52.842  1.00  0.00    -0.354 OA
HETATM   24  C1  UNL     1      18.354  -1.272  53.409  1.00  0.00     0.210 C 
ENDBRANCH  18  23
BRANCH  21  25
HETATM   25  N1  UNL     1      24.702  -0.401  53.737  1.00  0.00    -0.377 N 
HETATM   26  C6  UNL     1      25.406  -0.644  54.971  1.00  0.00     0.153 C 
HETATM   27  C7  UNL     1      26.639   0.228  55.043  1.00  0.00     0.291 C 
HETATM   28  N2  UNL     1      27.596  -0.102  54.009  1.00  0.00     0.087 N 
HETATM   29  C8  UNL     1      28.423   1.032  53.651  1.00  0.00     0.310 C 
HETATM   30  C9  UNL     1      26.966  -0.705  52.855  1.00  0.00     0.291 C 
HETATM   31  C10 UNL     1      25.580  -0.152  52.612  1.00  0.00     0.153 C 
ENDBRANCH  21  25
ENDBRANCH  15  17
ENDBRANCH   1  15
BRANCH   9  32
HETATM   32  C20 UNL     1      25.160   7.933  50.165  1.00  0.00     0.270 C 
HETATM   33  N6  UNL     1      26.527   8.107  50.502  1.00  0.00    -0.365 N 
HETATM   34  H20 UNL     1      27.293   8.569  49.981  1.00  0.00     0.159 HD
HETATM   35  H21 UNL     1      27.010   7.775  51.379  1.00  0.00     0.159 HD
HETATM   36  O2  UNL     1      24.542   8.847  49.570  1.00  0.00    -0.266 OA
ENDBRANCH   9  32
TORSDOF 5
ENDMDL
MODEL 8
REMARK VINA RESULT:      -9.3      4.369      9.981
REMARK  5 active torsions:
REMARK  status: ('A' for Active; 'I' for Inactive)
REMARK    1  A    between atoms: O1_2  and  C2_3 
REMARK    2  A    between atoms: C5_6  and  N1_7 
REMARK    3  A    between atoms: C12_15  and  N3_16 
REMARK    4  A    between atoms: N3_16  and  C13_17 
REMARK    5  A    between atoms: C19_25  and  C20_26 
REMARK       I    between atoms: C20_26  and  N6_27 
ROOT
HETATM    1  C13 UNL     1      22.200   0.703  51.564  1.00  0.00     0.727 A 
HETATM    2  N4  UNL     1      21.956  -0.206  52.515  1.00  0.00    -0.074 NA
HETATM    3  C14 UNL     1      22.859  -0.604  53.417  1.00  0.00     0.146 A 
HETATM    4  C15 UNL     1      24.129  -0.080  53.415  1.00  0.00    -0.008 A 
HETATM    5  C16 UNL     1      24.391   0.855  52.443  1.00  0.00     0.112 A 
HETATM    6  N5  UNL     1      23.447   1.198  51.586  1.00  0.00    -0.060 NA
HETATM    7  C17 UNL     1      25.727   1.428  52.415  1.00  0.00     0.091 A 
HETATM    8  C18 UNL     1      26.582   0.958  53.379  1.00  0.00     0.009 A 
HETATM    9  C19 UNL     1      27.768   1.628  53.166  1.00  0.00     0.153 A 
HETATM   10  N7  UNL     1      27.559   2.450  52.101  1.00  0.00    -0.166 NA
HETATM   11  N8  UNL     1      26.332   2.327  51.652  1.00  0.00    -0.271 N 
HETATM   12  C21 UNL     1      25.682   3.003  50.546  1.00  0.00     0.180 C 
HETATM   13  C22 UNL     1      26.371  -0.042  54.448  1.00  0.00     0.048 A 
HETATM   14  C23 UNL     1      24.990  -0.630  54.479  1.00  0.00     0.047 A 
ENDROOT
BRANCH   1  15
HETATM   15  N3  UNL     1      21.277   1.156  50.586  1.00  0.00    -0.185 N 
HETATM   16  H18 UNL     1      21.284   0.634  49.660  1.00  0.00     0.184 HD
BRANCH  15  17
HETATM   17  C12 UNL     1      20.353   2.204  50.680  1.00  0.00     0.084 A 
HETATM   18  C2  UNL     1      20.734   3.514  50.448  1.00  0.00     0.095 A 
HETATM   19  C3  UNL     1      19.889   4.584  50.521  1.00  0.00     0.041 A 
HETATM   20  C4  UNL     1      18.564   4.398  50.845  1.00  0.00     0.032 A 
HETATM   21  C5  UNL     1      18.104   3.122  51.092  1.00  0.00     0.032 A 
HETATM   22  C11 UNL     1      19.020   2.097  50.998  1.00  0.00     0.062 A 
BRANCH  18  23
HETATM   23  O1  UNL     1      22.068   3.788  50.112  1.00  0.00    -0.354 OA
HETATM   24  C1  UNL     1      22.444   4.836  49.253  1.00  0.00     0.210 C 
ENDBRANCH  18  23
BRANCH  21  25
HETATM   25  N1  UNL     1      16.733   2.885  51.434  1.00  0.00    -0.377 N 
HETATM   26  C6  UNL     1      15.751   3.834  51.895  1.00  0.00     0.153 C 
HETATM   27  C7  UNL     1      14.847   3.186  52.919  1.00  0.00     0.291 C 
HETATM   28  N2  UNL     1      14.070   2.107  52.350  1.00  0.00     0.087 N 
HETATM   29  C8  UNL     1      13.712   1.112  53.341  1.00  0.00     0.310 C 
HETATM   30  C9  UNL     1      14.715   1.520  51.195  1.00  0.00     0.291 C 
HETATM   31  C10 UNL     1      16.221   1.535  51.319  1.00  0.00     0.153 C 
ENDBRANCH  21  25
ENDBRANCH  15  17
ENDBRANCH   1  15
BRANCH   9  32
HETATM   32  C20 UNL     1      29.041   1.534  53.891  1.00  0.00     0.270 C 
HETATM   33  N6  UNL     1      29.989   0.533  53.553  1.00  0.00    -0.365 N 
HETATM   34  H20 UNL     1      31.023   0.572  53.522  1.00  0.00     0.159 HD
HETATM   35  H21 UNL     1      29.785  -0.460  53.264  1.00  0.00     0.159 HD
HETATM   36  O2  UNL     1      29.289   2.343  54.814  1.00  0.00    -0.266 OA
ENDBRANCH   9  32
TORSDOF 5
ENDMDL
MODEL 9
REMARK VINA RESULT:      -9.2      4.444     10.656
REMARK  5 active torsions:
REMARK  status: ('A' for Active; 'I' for Inactive)
REMARK    1  A    between atoms: O1_2  and  C2_3 
REMARK    2  A    between atoms: C5_6  and  N1_7 
REMARK    3  A    between atoms: C12_15  and  N3_16 
REMARK    4  A    between atoms: N3_16  and  C13_17 
REMARK    5  A    between atoms: C19_25  and  C20_26 
REMARK       I    between atoms: C20_26  and  N6_27 
ROOT
HETATM    1  C13 UNL     1      22.199   0.694  51.743  1.00  0.00     0.727 A 
HETATM    2  N4  UNL     1      21.990  -0.231  52.686  1.00  0.00    -0.074 NA
HETATM    3  C14 UNL     1      22.923  -0.641  53.551  1.00  0.00     0.146 A 
HETATM    4  C15 UNL     1      24.191  -0.113  53.515  1.00  0.00    -0.008 A 
HETATM    5  C16 UNL     1      24.417   0.839  52.550  1.00  0.00     0.112 A 
HETATM    6  N5  UNL     1      23.444   1.193  51.731  1.00  0.00    -0.060 NA
HETATM    7  C17 UNL     1      25.751   1.417  52.487  1.00  0.00     0.091 A 
HETATM    8  C18 UNL     1      26.638   0.933  53.414  1.00  0.00     0.009 A 
HETATM    9  C19 UNL     1      27.815   1.611  53.172  1.00  0.00     0.153 A 
HETATM   10  N7  UNL     1      27.568   2.450  52.129  1.00  0.00    -0.166 NA
HETATM   11  N8  UNL     1      26.327   2.331  51.720  1.00  0.00    -0.271 N 
HETATM   12  C21 UNL     1      25.639   3.023  50.647  1.00  0.00     0.180 C 
HETATM   13  C22 UNL     1      26.466  -0.085  54.472  1.00  0.00     0.048 A 
HETATM   14  C23 UNL     1      25.089  -0.678  54.540  1.00  0.00     0.047 A 
ENDROOT
BRANCH   1  15
HETATM   15  N3  UNL     1      21.242   1.161  50.804  1.00  0.00    -0.185 N 
HETATM   16  H18 UNL     1      21.600   1.331  49.818  1.00  0.00     0.184 HD
BRANCH  15  17
HETATM   17  C12 UNL     1      19.883   1.427  51.006  1.00  0.00     0.084 A 
HETATM   18  C2  UNL     1      19.430   2.722  51.195  1.00  0.00     0.095 A 
HETATM   19  C3  UNL     1      18.121   3.056  51.396  1.00  0.00     0.041 A 
HETATM   20  C4  UNL     1      17.154   2.077  51.424  1.00  0.00     0.032 A 
HETATM   21  C5  UNL     1      17.523   0.760  51.245  1.00  0.00     0.032 A 
HETATM   22  C11 UNL     1      18.862   0.508  51.047  1.00  0.00     0.062 A 
BRANCH  18  23
HETATM   23  O1  UNL     1      20.353   3.777  51.181  1.00  0.00    -0.354 OA
HETATM   24  C1  UNL     1      20.429   4.717  50.138  1.00  0.00     0.210 C 
ENDBRANCH  18  23
BRANCH  21  25
HETATM   25  N1  UNL     1      16.547  -0.288  51.268  1.00  0.00    -0.377 N 
HETATM   26  C6  UNL     1      15.761  -0.802  50.175  1.00  0.00     0.153 C 
HETATM   27  C7  UNL     1      14.375  -1.164  50.661  1.00  0.00     0.291 C 
HETATM   28  N2  UNL     1      14.404  -2.242  51.625  1.00  0.00     0.087 N 
HETATM   29  C8  UNL     1      13.278  -2.189  52.534  1.00  0.00     0.310 C 
HETATM   30  C9  UNL     1      15.669  -2.315  52.324  1.00  0.00     0.291 C 
HETATM   31  C10 UNL     1      16.282  -0.948  52.530  1.00  0.00     0.153 C 
ENDBRANCH  21  25
ENDBRANCH  15  17
ENDBRANCH   1  15
BRANCH   9  32
HETATM   32  C20 UNL     1      29.112   1.509  53.852  1.00  0.00     0.270 C 
HETATM   33  N6  UNL     1      30.037   0.496  53.489  1.00  0.00    -0.365 N 
HETATM   34  H20 UNL     1      31.070   0.524  53.421  1.00  0.00     0.159 HD
HETATM   35  H21 UNL     1      29.813  -0.498  53.215  1.00  0.00     0.159 HD
HETATM   36  O2  UNL     1      29.401   2.323  54.760  1.00  0.00    -0.266 OA
ENDBRANCH   9  32
TORSDOF 5
ENDMDL
