MODEL 1
REMARK VINA RESULT:      -7.2      0.000      0.000
REMARK  4 active torsions:
REMARK  status: ('A' for Active; 'I' for Inactive)
REMARK    1  A    between atoms: C2_2  and  C3_3 
REMARK    2  A    between atoms: C11_17  and  C12_18 
REMARK    3  A    between atoms: C12_18  and  N7_19 
REMARK    4  A    between atoms: C15_22  and  N8_23 
ROOT
HETATM    1  C3  UNL     1      20.847   3.840  49.818  1.00  0.00     0.349 C 
HETATM    2  N1  UNL     1      20.655   3.520  51.268  1.00  0.00     0.135 NA
HETATM    3  C4  UNL     1      20.977   2.111  51.299  1.00  0.00     0.305 C 
HETATM    4  C5  UNL     1      20.911   1.501  49.917  1.00  0.00     0.005 C 
HETATM    5  C6  UNL     1      21.317   1.188  48.601  1.00  0.00     0.019 C 
HETATM    6  C7  UNL     1      22.486   2.015  47.923  1.00  0.00     0.139 C 
HETATM    7  N2  UNL     1      22.912   3.281  48.395  1.00  0.00    -0.181 NA
HETATM    8  N3  UNL     1      22.293   3.568  49.445  1.00  0.00    -0.221 N 
HETATM    9  C8  UNL     1      23.627   3.493  50.189  1.00  0.00     0.134 C 
HETATM   10  N4  UNL     1      24.086   4.270  49.488  1.00  0.00    -0.225 NA
HETATM   11  C9  UNL     1      24.027   5.715  50.292  1.00  0.00     0.256 C 
HETATM   12  N5  UNL     1      23.535   5.888  51.591  1.00  0.00    -0.169 NA
HETATM   13  N6  UNL     1      22.848   4.697  52.118  1.00  0.00    -0.275 N 
HETATM   14  C10 UNL     1      23.897   3.711  52.690  1.00  0.00     0.161 C 
HETATM   15  C11 UNL     1      24.449   2.977  51.383  1.00  0.00     0.105 C 
HETATM   16  C18 UNL     1      21.430   4.192  52.245  1.00  0.00     0.419 C 
ENDROOT
BRANCH  15  17
HETATM   17  C12 UNL     1      24.661   1.556  51.606  1.00  0.00     0.286 C 
BRANCH  17  18
HETATM   18  N7  UNL     1      25.660   1.170  52.577  1.00  0.00     0.089 N 
HETATM   19  C13 UNL     1      26.918   1.803  52.325  1.00  0.00     0.274 C 
HETATM   20  C14 UNL     1      28.064   1.293  53.090  1.00  0.00     0.065 C 
HETATM   21  C15 UNL     1      27.564   0.341  54.167  1.00  0.00     0.221 C 
HETATM   22  C16 UNL     1      26.896  -0.790  53.411  1.00  0.00     0.065 C 
HETATM   23  C17 UNL     1      25.677  -0.228  52.748  1.00  0.00     0.274 C 
BRANCH  21  24
HETATM   24  N8  UNL     1      28.627  -0.193  54.972  1.00  0.00     0.083 N 
HETATM   25  H23 UNL     1      28.967  -1.115  54.627  1.00  0.00     0.313 HD
HETATM   26  H24 UNL     1      29.458   0.432  55.060  1.00  0.00     0.313 HD
ENDBRANCH  21  24
ENDBRANCH  17  18
ENDBRANCH  15  17
BRANCH   1  27
HETATM   27  C2  UNL     1      20.361   5.241  49.594  1.00  0.00     0.055 C 
HETATM   28  C1  UNL     1      18.836   5.248  49.562  1.00  0.00     0.009 C 
ENDBRANCH   1  27
TORSDOF 4
ENDMDL
MODEL 2
REMARK VINA RESULT:      -7.1      1.597      3.470
REMARK  4 active torsions:
REMARK  status: ('A' for Active; 'I' for Inactive)
REMARK    1  A    between atoms: C2_2  and  C3_3 
REMARK    2  A    between atoms: C11_17  and  C12_18 
REMARK    3  A    between atoms: C12_18  and  N7_19 
REMARK    4  A    between atoms: C15_22  and  N8_23 
ROOT
HETATM    1  C3  UNL     1      22.749   4.665  49.056  1.00  0.00     0.349 C 
HETATM    2  N1  UNL     1      23.236   3.290  48.721  1.00  0.00     0.135 NA
HETATM    3  C4  UNL     1      24.563   3.305  49.294  1.00  0.00     0.305 C 
HETATM    4  C5  UNL     1      25.039   4.719  49.542  1.00  0.00     0.005 C 
HETATM    5  C6  UNL     1      25.147   5.972  50.184  1.00  0.00     0.019 C 
HETATM    6  C7  UNL     1      24.068   6.398  51.262  1.00  0.00     0.139 C 
HETATM    7  N2  UNL     1      22.798   5.778  51.371  1.00  0.00    -0.181 NA
HETATM    8  N3  UNL     1      22.726   4.822  50.565  1.00  0.00    -0.221 N 
HETATM    9  C8  UNL     1      22.639   3.883  51.769  1.00  0.00     0.134 C 
HETATM   10  N4  UNL     1      21.729   4.447  52.169  1.00  0.00    -0.225 NA
HETATM   11  C9  UNL     1      20.401   3.565  51.726  1.00  0.00     0.256 C 
HETATM   12  N5  UNL     1      20.443   2.352  51.030  1.00  0.00    -0.169 NA
HETATM   13  N6  UNL     1      21.781   2.024  50.509  1.00  0.00    -0.275 N 
HETATM   14  C10 UNL     1      22.619   1.362  51.631  1.00  0.00     0.161 C 
HETATM   15  C11 UNL     1      23.116   2.613  52.493  1.00  0.00     0.105 C 
HETATM   16  C18 UNL     1      22.537   2.158  49.208  1.00  0.00     0.419 C 
ENDROOT
BRANCH  15  17
HETATM   17  C12 UNL     1      24.493   2.457  52.934  1.00  0.00     0.286 C 
BRANCH  17  18
HETATM   18  N7  UNL     1      25.091   1.146  52.822  1.00  0.00     0.089 N 
HETATM   19  C13 UNL     1      25.049   0.435  54.063  1.00  0.00     0.274 C 
HETATM   20  C14 UNL     1      25.849  -0.795  54.131  1.00  0.00     0.065 C 
HETATM   21  C15 UNL     1      26.355  -1.142  52.738  1.00  0.00     0.221 C 
HETATM   22  C16 UNL     1      27.231   0.028  52.337  1.00  0.00     0.065 C 
HETATM   23  C17 UNL     1      26.340   1.220  52.175  1.00  0.00     0.274 C 
BRANCH  21  24
HETATM   24  N8  UNL     1      27.137  -2.347  52.717  1.00  0.00     0.083 N 
HETATM   25  H23 UNL     1      26.549  -3.206  52.719  1.00  0.00     0.313 HD
HETATM   26  H24 UNL     1      27.794  -2.421  51.910  1.00  0.00     0.313 HD
ENDBRANCH  21  24
ENDBRANCH  17  18
ENDBRANCH  15  17
BRANCH   1  27
HETATM   27  C2  UNL     1      21.439   4.866  48.353  1.00  0.00     0.055 C 
HETATM   28  C1  UNL     1      21.670   4.862  46.845  1.00  0.00     0.009 C 
ENDBRANCH   1  27
TORSDOF 4
ENDMDL
MODEL 3
REMARK VINA RESULT:      -7.0      1.599      2.756
REMARK  4 active torsions:
REMARK  status: ('A' for Active; 'I' for Inactive)
REMARK    1  A    between atoms: C2_2  and  C3_3 
REMARK    2  A    between atoms: C11_17  and  C12_18 
REMARK    3  A    between atoms: C12_18  and  N7_19 
REMARK    4  A    between atoms: C15_22  and  N8_23 
ROOT
HETATM    1  C3  UNL     1      19.891   2.982  50.496  1.00  0.00     0.349 C 
HETATM    2  N1  UNL     1      20.413   4.280  51.026  1.00  0.00     0.135 NA
HETATM    3  C4  UNL     1      21.062   3.855  52.246  1.00  0.00     0.305 C 
HETATM    4  C5  UNL     1      20.577   2.491  52.680  1.00  0.00     0.005 C 
HETATM    5  C6  UNL     1      20.457   1.084  52.689  1.00  0.00     0.019 C 
HETATM    6  C7  UNL     1      20.982   0.243  51.454  1.00  0.00     0.139 C 
HETATM    7  N2  UNL     1      21.233   0.813  50.181  1.00  0.00    -0.181 NA
HETATM    8  N3  UNL     1      21.062   2.053  50.235  1.00  0.00    -0.221 N 
HETATM    9  C8  UNL     1      22.557   2.218  49.955  1.00  0.00     0.134 C 
HETATM   10  N4  UNL     1      22.466   1.605  48.995  1.00  0.00    -0.225 NA
HETATM   11  C9  UNL     1      22.388   2.694  47.752  1.00  0.00     0.256 C 
HETATM   12  N5  UNL     1      22.462   4.083  47.900  1.00  0.00    -0.169 NA
HETATM   13  N6  UNL     1      22.384   4.525  49.303  1.00  0.00    -0.275 N 
HETATM   14  C10 UNL     1      23.788   4.422  49.951  1.00  0.00     0.161 C 
HETATM   15  C11 UNL     1      23.905   2.869  50.308  1.00  0.00     0.105 C 
HETATM   16  C18 UNL     1      21.330   5.037  50.256  1.00  0.00     0.419 C 
ENDROOT
BRANCH  15  17
HETATM   17  C12 UNL     1      24.542   2.654  51.597  1.00  0.00     0.286 C 
BRANCH  17  18
HETATM   18  N7  UNL     1      25.145   1.364  51.842  1.00  0.00     0.089 N 
HETATM   19  C13 UNL     1      24.503   0.674  52.919  1.00  0.00     0.274 C 
HETATM   20  C14 UNL     1      25.188  -0.526  53.419  1.00  0.00     0.065 C 
HETATM   21  C15 UNL     1      26.331  -0.879  52.479  1.00  0.00     0.221 C 
HETATM   22  C16 UNL     1      27.264   0.314  52.531  1.00  0.00     0.065 C 
HETATM   23  C17 UNL     1      26.548   1.471  51.906  1.00  0.00     0.274 C 
BRANCH  21  24
HETATM   24  N8  UNL     1      27.045  -2.055  52.891  1.00  0.00     0.083 N 
HETATM   25  H23 UNL     1      26.759  -2.904  52.361  1.00  0.00     0.313 HD
HETATM   26  H24 UNL     1      28.083  -1.978  52.820  1.00  0.00     0.313 HD
ENDBRANCH  21  24
ENDBRANCH  17  18
ENDBRANCH  15  17
BRANCH   1  27
HETATM   27  C2  UNL     1      19.019   3.291  49.315  1.00  0.00     0.055 C 
HETATM   28  C1  UNL     1      17.776   2.408  49.359  1.00  0.00     0.009 C 
ENDBRANCH   1  27
TORSDOF 4
ENDMDL
MODEL 4
REMARK VINA RESULT:      -6.7      1.429      2.907
REMARK  4 active torsions:
REMARK  status: ('A' for Active; 'I' for Inactive)
REMARK    1  A    between atoms: C2_2  and  C3_3 
REMARK    2  A    between atoms: C11_17  and  C12_18 
REMARK    3  A    between atoms: C12_18  and  N7_19 
REMARK    4  A    between atoms: C15_22  and  N8_23 
ROOT
HETATM    1  C3  UNL     1      20.806   3.524  49.096  1.00  0.00     0.349 C 
HETATM    2  N1  UNL     1      21.104   2.117  48.679  1.00  0.00     0.135 NA
HETATM    3  C4  UNL     1      22.525   2.184  48.427  1.00  0.00     0.305 C 
HETATM    4  C5  UNL     1      22.984   3.613  48.241  1.00  0.00     0.005 C 
HETATM    5  C6  UNL     1      23.358   4.927  48.598  1.00  0.00     0.019 C 
HETATM    6  C7  UNL     1      23.020   5.473  50.046  1.00  0.00     0.139 C 
HETATM    7  N2  UNL     1      22.050   4.878  50.890  1.00  0.00    -0.181 NA
HETATM    8  N3  UNL     1      21.601   3.841  50.349  1.00  0.00    -0.221 N 
HETATM    9  C8  UNL     1      22.234   3.037  51.485  1.00  0.00     0.134 C 
HETATM   10  N4  UNL     1      21.661   3.647  52.264  1.00  0.00    -0.225 NA
HETATM   11  C9  UNL     1      20.355   2.731  52.704  1.00  0.00     0.256 C 
HETATM   12  N5  UNL     1      20.075   1.450  52.216  1.00  0.00    -0.169 NA
HETATM   13  N6  UNL     1      20.928   1.060  51.080  1.00  0.00    -0.275 N 
HETATM   14  C10 UNL     1      22.276   0.516  51.617  1.00  0.00     0.161 C 
HETATM   15  C11 UNL     1      23.095   1.848  51.944  1.00  0.00     0.105 C 
HETATM   16  C18 UNL     1      20.844   1.049  49.572  1.00  0.00     0.419 C 
ENDROOT
BRANCH  15  17
HETATM   17  C12 UNL     1      24.496   1.731  51.572  1.00  0.00     0.286 C 
BRANCH  17  18
HETATM   18  N7  UNL     1      25.425   1.281  52.583  1.00  0.00     0.089 N 
HETATM   19  C13 UNL     1      26.531   2.178  52.723  1.00  0.00     0.274 C 
HETATM   20  C14 UNL     1      27.657   1.695  53.534  1.00  0.00     0.065 C 
HETATM   21  C15 UNL     1      27.252   0.408  54.239  1.00  0.00     0.221 C 
HETATM   22  C16 UNL     1      26.954  -0.573  53.123  1.00  0.00     0.065 C 
HETATM   23  C17 UNL     1      25.733  -0.082  52.409  1.00  0.00     0.274 C 
BRANCH  21  24
HETATM   24  N8  UNL     1      28.298  -0.123  55.067  1.00  0.00     0.083 N 
HETATM   25  H23 UNL     1      28.859   0.622  55.531  1.00  0.00     0.313 HD
HETATM   26  H24 UNL     1      27.970  -0.775  55.813  1.00  0.00     0.313 HD
ENDBRANCH  21  24
ENDBRANCH  17  18
ENDBRANCH  15  17
BRANCH   1  27
HETATM   27  C2  UNL     1      19.316   3.657  49.210  1.00  0.00     0.055 C 
HETATM   28  C1  UNL     1      18.691   3.536  47.823  1.00  0.00     0.009 C 
ENDBRANCH   1  27
TORSDOF 4
ENDMDL
MODEL 5
REMARK VINA RESULT:      -6.7      1.672      3.553
REMARK  4 active torsions:
REMARK  status: ('A' for Active; 'I' for Inactive)
REMARK    1  A    between atoms: C2_2  and  C3_3 
REMARK    2  A    between atoms: C11_17  and  C12_18 
REMARK    3  A    between atoms: C12_18  and  N7_19 
REMARK    4  A    between atoms: C15_22  and  N8_23 
ROOT
HETATM    1  C3  UNL     1      21.566   5.509  49.506  1.00  0.00     0.349 C 
HETATM    2  N1  UNL     1      21.528   4.518  48.385  1.00  0.00     0.135 NA
HETATM    3  C4  UNL     1      22.844   3.927  48.477  1.00  0.00     0.305 C 
HETATM    4  C5  UNL     1      23.786   4.802  49.273  1.00  0.00     0.005 C 
HETATM    5  C6  UNL     1      24.378   5.396  50.409  1.00  0.00     0.019 C 
HETATM    6  C7  UNL     1      23.636   5.329  51.807  1.00  0.00     0.139 C 
HETATM    7  N2  UNL     1      22.256   5.037  51.936  1.00  0.00    -0.181 NA
HETATM    8  N3  UNL     1      21.776   4.764  50.812  1.00  0.00    -0.221 N 
HETATM    9  C8  UNL     1      21.528   3.344  51.321  1.00  0.00     0.134 C 
HETATM   10  N4  UNL     1      20.910   3.743  52.196  1.00  0.00    -0.225 NA
HETATM   11  C9  UNL     1      19.322   3.575  51.760  1.00  0.00     0.256 C 
HETATM   12  N5  UNL     1      18.878   3.013  50.558  1.00  0.00    -0.169 NA
HETATM   13  N6  UNL     1      19.961   2.781  49.587  1.00  0.00    -0.275 N 
HETATM   14  C10 UNL     1      20.660   1.438  49.911  1.00  0.00     0.161 C 
HETATM   15  C11 UNL     1      21.641   1.824  51.112  1.00  0.00     0.105 C 
HETATM   16  C18 UNL     1      20.558   3.486  48.391  1.00  0.00     0.419 C 
ENDROOT
BRANCH  15  17
HETATM   17  C12 UNL     1      22.931   1.164  50.994  1.00  0.00     0.286 C 
BRANCH  17  18
HETATM   18  N7  UNL     1      24.006   1.633  51.838  1.00  0.00     0.089 N 
HETATM   19  C13 UNL     1      25.174   1.958  51.078  1.00  0.00     0.274 C 
HETATM   20  C14 UNL     1      26.401   2.201  51.849  1.00  0.00     0.065 C 
HETATM   21  C15 UNL     1      26.057   2.277  53.329  1.00  0.00     0.221 C 
HETATM   22  C16 UNL     1      25.488   0.914  53.669  1.00  0.00     0.065 C 
HETATM   23  C17 UNL     1      24.187   0.777  52.941  1.00  0.00     0.274 C 
BRANCH  21  24
HETATM   24  N8  UNL     1      27.205   2.528  54.153  1.00  0.00     0.083 N 
HETATM   25  H23 UNL     1      26.953   2.922  55.084  1.00  0.00     0.313 HD
HETATM   26  H24 UNL     1      27.807   1.693  54.323  1.00  0.00     0.313 HD
ENDBRANCH  21  24
ENDBRANCH  17  18
ENDBRANCH  15  17
BRANCH   1  27
HETATM   27  C2  UNL     1      20.323   6.343  49.417  1.00  0.00     0.055 C 
HETATM   28  C1  UNL     1      20.624   7.755  49.910  1.00  0.00     0.009 C 
ENDBRANCH   1  27
TORSDOF 4
ENDMDL
MODEL 6
REMARK VINA RESULT:      -6.7      2.951      5.395
REMARK  4 active torsions:
REMARK  status: ('A' for Active; 'I' for Inactive)
REMARK    1  A    between atoms: C2_2  and  C3_3 
REMARK    2  A    between atoms: C11_17  and  C12_18 
REMARK    3  A    between atoms: C12_18  and  N7_19 
REMARK    4  A    between atoms: C15_22  and  N8_23 
ROOT
HETATM    1  C3  UNL     1      21.951   2.237  51.445  1.00  0.00     0.349 C 
HETATM    2  N1  UNL     1      21.098   3.203  52.206  1.00  0.00     0.135 NA
HETATM    3  C4  UNL     1      21.998   4.322  52.367  1.00  0.00     0.305 C 
HETATM    4  C5  UNL     1      23.436   3.907  52.146  1.00  0.00     0.005 C 
HETATM    5  C6  UNL     1      24.601   3.545  51.436  1.00  0.00     0.019 C 
HETATM    6  C7  UNL     1      24.493   3.126  49.911  1.00  0.00     0.139 C 
HETATM    7  N2  UNL     1      23.276   2.736  49.301  1.00  0.00    -0.181 NA
HETATM    8  N3  UNL     1      22.336   2.865  50.118  1.00  0.00    -0.221 N 
HETATM    9  C8  UNL     1      21.765   3.954  49.208  1.00  0.00     0.134 C 
HETATM   10  N4  UNL     1      21.743   3.232  48.323  1.00  0.00    -0.225 NA
HETATM   11  C9  UNL     1      20.184   2.691  48.201  1.00  0.00     0.256 C 
HETATM   12  N5  UNL     1      19.129   3.099  49.025  1.00  0.00    -0.169 NA
HETATM   13  N6  UNL     1      19.568   3.896  50.183  1.00  0.00    -0.275 N 
HETATM   14  C10 UNL     1      19.748   5.373  49.749  1.00  0.00     0.161 C 
HETATM   15  C11 UNL     1      21.181   5.367  49.043  1.00  0.00     0.105 C 
HETATM   16  C18 UNL     1      19.884   3.666  51.642  1.00  0.00     0.419 C 
ENDROOT
BRANCH  15  17
HETATM   17  C12 UNL     1      21.953   6.555  49.369  1.00  0.00     0.286 C 
BRANCH  17  18
HETATM   18  N7  UNL     1      23.393   6.440  49.378  1.00  0.00     0.089 N 
HETATM   19  C13 UNL     1      23.974   7.138  50.484  1.00  0.00     0.274 C 
HETATM   20  C14 UNL     1      25.434   7.301  50.452  1.00  0.00     0.065 C 
HETATM   21  C15 UNL     1      26.008   6.454  49.326  1.00  0.00     0.221 C 
HETATM   22  C16 UNL     1      25.393   7.016  48.060  1.00  0.00     0.065 C 
HETATM   23  C17 UNL     1      23.926   6.716  48.105  1.00  0.00     0.274 C 
BRANCH  21  24
HETATM   24  N8  UNL     1      27.439   6.547  49.236  1.00  0.00     0.083 N 
HETATM   25  H23 UNL     1      27.912   6.315  50.134  1.00  0.00     0.313 HD
HETATM   26  H24 UNL     1      27.866   5.949  48.496  1.00  0.00     0.313 HD
ENDBRANCH  21  24
ENDBRANCH  17  18
ENDBRANCH  15  17
BRANCH   1  27
HETATM   27  C2  UNL     1      21.207   0.937  51.368  1.00  0.00     0.055 C 
HETATM   28  C1  UNL     1      21.857  -0.074  52.306  1.00  0.00     0.009 C 
ENDBRANCH   1  27
TORSDOF 4
ENDMDL
MODEL 7
REMARK VINA RESULT:      -6.5      2.591      6.706
REMARK  4 active torsions:
REMARK  status: ('A' for Active; 'I' for Inactive)
REMARK    1  A    between atoms: C2_2  and  C3_3 
REMARK    2  A    between atoms: C11_17  and  C12_18 
REMARK    3  A    between atoms: C12_18  and  N7_19 
REMARK    4  A    between atoms: C15_22  and  N8_23 
ROOT
HETATM    1  C3  UNL     1      22.602   1.514  50.983  1.00  0.00     0.349 C 
HETATM    2  N1  UNL     1      22.644   1.812  49.516  1.00  0.00     0.135 NA
HETATM    3  C4  UNL     1      21.289   1.506  49.119  1.00  0.00     0.305 C 
HETATM    4  C5  UNL     1      20.596   0.640  50.148  1.00  0.00     0.005 C 
HETATM    5  C6  UNL     1      19.928   0.310  51.346  1.00  0.00     0.019 C 
HETATM    6  C7  UNL     1      19.939   1.331  52.558  1.00  0.00     0.139 C 
HETATM    7  N2  UNL     1      20.871   2.392  52.667  1.00  0.00    -0.181 NA
HETATM    8  N3  UNL     1      21.586   2.430  51.639  1.00  0.00    -0.221 N 
HETATM    9  C8  UNL     1      20.961   3.789  51.320  1.00  0.00     0.134 C 
HETATM   10  N4  UNL     1      21.285   4.201  52.335  1.00  0.00    -0.225 NA
HETATM   11  C9  UNL     1      22.664   5.074  52.065  1.00  0.00     0.256 C 
HETATM   12  N5  UNL     1      23.254   5.270  50.812  1.00  0.00    -0.169 NA
HETATM   13  N6  UNL     1      22.668   4.430  49.753  1.00  0.00    -0.275 N 
HETATM   14  C10 UNL     1      21.386   5.112  49.211  1.00  0.00     0.161 C 
HETATM   15  C11 UNL     1      20.287   4.730  50.306  1.00  0.00     0.105 C 
HETATM   16  C18 UNL     1      22.972   3.116  49.073  1.00  0.00     0.419 C 
ENDROOT
BRANCH  15  17
HETATM   17  C12 UNL     1      19.005   4.408  49.700  1.00  0.00     0.286 C 
BRANCH  17  18
HETATM   18  N7  UNL     1      18.158   3.456  50.383  1.00  0.00     0.089 N 
HETATM   19  C13 UNL     1      17.518   2.563  49.468  1.00  0.00     0.274 C 
HETATM   20  C14 UNL     1      16.446   1.725  50.024  1.00  0.00     0.065 C 
HETATM   21  C15 UNL     1      16.443   1.855  51.540  1.00  0.00     0.221 C 
HETATM   22  C16 UNL     1      16.153   3.319  51.807  1.00  0.00     0.065 C 
HETATM   23  C17 UNL     1      17.330   4.105  51.320  1.00  0.00     0.274 C 
BRANCH  21  24
HETATM   24  N8  UNL     1      15.430   1.052  52.163  1.00  0.00     0.083 N 
HETATM   25  H23 UNL     1      15.654   0.820  53.153  1.00  0.00     0.313 HD
HETATM   26  H24 UNL     1      14.475   1.473  52.151  1.00  0.00     0.313 HD
ENDBRANCH  21  24
ENDBRANCH  17  18
ENDBRANCH  15  17
BRANCH   1  27
HETATM   27  C2  UNL     1      24.005   1.604  51.505  1.00  0.00     0.055 C 
HETATM   28  C1  UNL     1      24.150   0.698  52.724  1.00  0.00     0.009 C 
ENDBRANCH   1  27
TORSDOF 4
ENDMDL
MODEL 8
REMARK VINA RESULT:      -6.4      2.757      5.019
REMARK  4 active torsions:
REMARK  status: ('A' for Active; 'I' for Inactive)
REMARK    1  A    between atoms: C2_2  and  C3_3 
REMARK    2  A    between atoms: C11_17  and  C12_18 
REMARK    3  A    between atoms: C12_18  and  N7_19 
REMARK    4  A    between atoms: C15_22  and  N8_23 
ROOT
HETATM    1  C3  UNL     1      21.139   3.403  50.940  1.00  0.00     0.349 C 
HETATM    2  N1  UNL     1      21.831   2.251  50.278  1.00  0.00     0.135 NA
HETATM    3  C4  UNL     1      22.187   2.823  49.000  1.00  0.00     0.305 C 
HETATM    4  C5  UNL     1      21.372   4.063  48.706  1.00  0.00     0.005 C 
HETATM    5  C6  UNL     1      20.966   5.413  48.782  1.00  0.00     0.019 C 
HETATM    6  C7  UNL     1      21.489   6.325  49.967  1.00  0.00     0.139 C 
HETATM    7  N2  UNL     1      22.041   5.799  51.161  1.00  0.00    -0.181 NA
HETATM    8  N3  UNL     1      22.122   4.552  51.073  1.00  0.00    -0.221 N 
HETATM    9  C8  UNL     1      23.643   4.700  51.126  1.00  0.00     0.134 C 
HETATM   10  N4  UNL     1      23.575   5.264  52.118  1.00  0.00    -0.225 NA
HETATM   11  C9  UNL     1      23.911   4.162  53.305  1.00  0.00     0.256 C 
HETATM   12  N5  UNL     1      24.245   2.822  53.081  1.00  0.00    -0.169 NA
HETATM   13  N6  UNL     1      24.048   2.397  51.685  1.00  0.00    -0.275 N 
HETATM   14  C10 UNL     1      25.286   2.803  50.847  1.00  0.00     0.161 C 
HETATM   15  C11 UNL     1      25.026   4.352  50.551  1.00  0.00     0.105 C 
HETATM   16  C18 UNL     1      22.989   1.691  50.871  1.00  0.00     0.419 C 
ENDROOT
BRANCH  15  17
HETATM   17  C12 UNL     1      25.404   4.718  49.196  1.00  0.00     0.286 C 
BRANCH  17  18
HETATM   18  N7  UNL     1      26.480   5.667  49.030  1.00  0.00     0.089 N 
HETATM   19  C13 UNL     1      26.078   6.795  48.247  1.00  0.00     0.274 C 
HETATM   20  C14 UNL     1      27.153   7.692  47.804  1.00  0.00     0.065 C 
HETATM   21  C15 UNL     1      28.447   7.312  48.510  1.00  0.00     0.221 C 
HETATM   22  C16 UNL     1      28.734   5.893  48.063  1.00  0.00     0.065 C 
HETATM   23  C17 UNL     1      27.667   5.016  48.641  1.00  0.00     0.274 C 
BRANCH  21  24
HETATM   24  N8  UNL     1      29.548   8.156  48.141  1.00  0.00     0.083 N 
HETATM   25  H23 UNL     1      30.467   7.671  48.217  1.00  0.00     0.313 HD
HETATM   26  H24 UNL     1      29.485   8.553  47.178  1.00  0.00     0.313 HD
ENDBRANCH  21  24
ENDBRANCH  17  18
ENDBRANCH  15  17
BRANCH   1  27
HETATM   27  C2  UNL     1      20.539   2.897  52.218  1.00  0.00     0.055 C 
HETATM   28  C1  UNL     1      19.254   2.137  51.907  1.00  0.00     0.009 C 
ENDBRANCH   1  27
TORSDOF 4
ENDMDL
MODEL 9
REMARK VINA RESULT:      -6.3      7.720     11.166
REMARK  4 active torsions:
REMARK  status: ('A' for Active; 'I' for Inactive)
REMARK    1  A    between atoms: C2_2  and  C3_3 
REMARK    2  A    between atoms: C11_17  and  C12_18 
REMARK    3  A    between atoms: C12_18  and  N7_19 
REMARK    4  A    between atoms: C15_22  and  N8_23 
ROOT
HETATM    1  C3  UNL     1      28.648   7.262  47.557  1.00  0.00     0.349 C 
HETATM    2  N1  UNL     1      29.343   7.417  46.241  1.00  0.00     0.135 NA
HETATM    3  C4  UNL     1      28.694   8.592  45.707  1.00  0.00     0.305 C 
HETATM    4  C5  UNL     1      27.383   8.864  46.410  1.00  0.00     0.005 C 
HETATM    5  C6  UNL     1      26.509   9.296  47.431  1.00  0.00     0.019 C 
HETATM    6  C7  UNL     1      27.076   9.581  48.883  1.00  0.00     0.139 C 
HETATM    7  N2  UNL     1      28.325   9.089  49.335  1.00  0.00    -0.181 NA
HETATM    8  N3  UNL     1      28.909   8.499  48.397  1.00  0.00    -0.221 N 
HETATM    9  C8  UNL     1      29.980   9.589  48.448  1.00  0.00     0.134 C 
HETATM   10  N4  UNL     1      30.175   9.375  49.553  1.00  0.00    -0.225 NA
HETATM   11  C9  UNL     1      31.527   8.422  49.612  1.00  0.00     0.256 C 
HETATM   12  N5  UNL     1      32.269   8.018  48.497  1.00  0.00    -0.169 NA
HETATM   13  N6  UNL     1      31.611   8.325  47.215  1.00  0.00    -0.275 N 
HETATM   14  C10 UNL     1      31.905   9.795  46.828  1.00  0.00     0.161 C 
HETATM   15  C11 UNL     1      30.858  10.616  47.713  1.00  0.00     0.105 C 
HETATM   16  C18 UNL     1      30.746   7.608  46.205  1.00  0.00     0.419 C 
ENDROOT
BRANCH  15  17
HETATM   17  C12 UNL     1      30.280  11.729  46.979  1.00  0.00     0.286 C 
BRANCH  17  18
HETATM   18  N7  UNL     1      28.907  12.081  47.262  1.00  0.00     0.089 N 
HETATM   19  C13 UNL     1      28.187  12.411  46.070  1.00  0.00     0.274 C 
HETATM   20  C14 UNL     1      26.866  13.024  46.261  1.00  0.00     0.065 C 
HETATM   21  C15 UNL     1      26.481  12.939  47.730  1.00  0.00     0.221 C 
HETATM   22  C16 UNL     1      27.539  13.742  48.460  1.00  0.00     0.065 C 
HETATM   23  C17 UNL     1      28.835  13.005  48.321  1.00  0.00     0.274 C 
BRANCH  21  24
HETATM   24  N8  UNL     1      25.189  13.506  47.999  1.00  0.00     0.083 N 
HETATM   25  H23 UNL     1      25.147  13.987  48.921  1.00  0.00     0.313 HD
HETATM   26  H24 UNL     1      24.857  14.184  47.279  1.00  0.00     0.313 HD
ENDBRANCH  21  24
ENDBRANCH  17  18
ENDBRANCH  15  17
BRANCH   1  27
HETATM   27  C2  UNL     1      29.089   5.957  48.152  1.00  0.00     0.055 C 
HETATM   28  C1  UNL     1      27.861   5.138  48.539  1.00  0.00     0.009 C 
ENDBRANCH   1  27
TORSDOF 4
ENDMDL
