MODEL 1
REMARK VINA RESULT:      -7.5      0.000      0.000
REMARK  0 active torsions:
REMARK  status: ('A' for Active; 'I' for Inactive)
ROOT
HETATM    1 BR1  UNL     1      21.133   0.968  50.029  1.00  0.00    -0.111 Br
HETATM    2  C1  UNL     1      22.397   1.324  51.519  1.00  0.00     0.092 A 
HETATM    3  C2  UNL     1      21.372   0.746  52.227  1.00  0.00     0.141 A 
HETATM    4  C3  UNL     1      21.872  -0.009  53.256  1.00  0.00     0.017 A 
HETATM    5  C4  UNL     1      23.272   0.147  53.142  1.00  0.00     0.006 A 
HETATM    6  C5  UNL     1      23.669   0.929  52.133  1.00  0.00     0.077 A 
HETATM    7  C6  UNL     1      23.667   1.704  51.103  1.00  0.00     0.029 A 
HETATM    8  C7  UNL     1      23.467   2.492  50.049  1.00  0.00     0.010 A 
HETATM    9  C8  UNL     1      24.021   3.438  50.885  1.00  0.00     0.025 A 
HETATM   10  C9  UNL     1      23.128   4.318  51.799  1.00  0.00     0.086 C 
HETATM   11  C10 UNL     1      23.689   4.168  53.160  1.00  0.00     0.128 C 
HETATM   12  N1  UNL     1      24.880   3.500  53.381  1.00  0.00    -0.406 N 
HETATM   13  C11 UNL     1      25.251   2.211  53.428  1.00  0.00     0.233 C 
HETATM   14  N2  UNL     1      25.070   1.188  52.429  1.00  0.00    -0.392 N 
HETATM   15  C12 UNL     1      21.722   3.847  51.582  1.00  0.00     0.149 C 
HETATM   16  N3  UNL     1      21.103   3.012  52.296  1.00  0.00    -0.222 NA
HETATM   17  C13 UNL     1      19.800   2.472  52.216  1.00  0.00     0.231 C 
HETATM   18  N4  UNL     1      19.948   1.092  52.172  1.00  0.00    -0.255 NA
HETATM   19  O1  UNL     1      20.983   4.354  50.478  1.00  0.00    -0.312 OA
HETATM   20  C14 UNL     1      21.201   4.299  49.073  1.00  0.00     0.346 C 
HETATM   21  O2  UNL     1      22.468   4.117  48.649  1.00  0.00    -0.366 OA
HETATM   22  C15 UNL     1      23.014   2.825  48.756  1.00  0.00     0.182 C 
HETATM   23  H7  UNL     1      25.683   4.157  53.118  1.00  0.00     0.154 HD
HETATM   24  H10 UNL     1      25.687   0.550  51.896  1.00  0.00     0.156 HD
ENDROOT
TORSDOF 0
ENDMDL
MODEL 2
REMARK VINA RESULT:      -7.2     10.574     12.370
REMARK  0 active torsions:
REMARK  status: ('A' for Active; 'I' for Inactive)
ROOT
HETATM    1 BR1  UNL     1      32.329   8.190  49.052  1.00  0.00    -0.111 Br
HETATM    2  C1  UNL     1      33.524   6.763  48.358  1.00  0.00     0.092 A 
HETATM    3  C2  UNL     1      34.357   7.845  48.215  1.00  0.00     0.141 A 
HETATM    4  C3  UNL     1      35.656   7.480  48.465  1.00  0.00     0.017 A 
HETATM    5  C4  UNL     1      35.569   6.102  48.765  1.00  0.00     0.006 A 
HETATM    6  C5  UNL     1      34.333   5.595  48.721  1.00  0.00     0.077 A 
HETATM    7  C6  UNL     1      33.056   5.474  48.588  1.00  0.00     0.029 A 
HETATM    8  C7  UNL     1      31.740   5.544  48.402  1.00  0.00     0.010 A 
HETATM    9  C8  UNL     1      32.031   4.696  47.354  1.00  0.00     0.025 A 
HETATM   10  C9  UNL     1      32.329   5.252  45.937  1.00  0.00     0.086 C 
HETATM   11  C10 UNL     1      33.618   4.645  45.538  1.00  0.00     0.128 C 
HETATM   12  N1  UNL     1      34.217   3.657  46.300  1.00  0.00    -0.406 N 
HETATM   13  C11 UNL     1      34.921   3.635  47.442  1.00  0.00     0.233 C 
HETATM   14  N2  UNL     1      34.551   4.156  48.734  1.00  0.00    -0.392 N 
HETATM   15  C12 UNL     1      32.285   6.746  46.059  1.00  0.00     0.149 C 
HETATM   16  N3  UNL     1      33.277   7.503  46.233  1.00  0.00    -0.222 NA
HETATM   17  C13 UNL     1      33.391   8.905  46.373  1.00  0.00     0.231 C 
HETATM   18  N4  UNL     1      34.047   9.128  47.577  1.00  0.00    -0.255 NA
HETATM   19  O1  UNL     1      31.030   7.410  45.988  1.00  0.00    -0.312 OA
HETATM   20  C14 UNL     1      29.854   7.326  46.784  1.00  0.00     0.346 C 
HETATM   21  O2  UNL     1      29.658   6.188  47.481  1.00  0.00    -0.366 OA
HETATM   22  C15 UNL     1      30.426   5.994  48.644  1.00  0.00     0.182 C 
HETATM   23  H7  UNL     1      33.716   2.733  46.099  1.00  0.00     0.154 HD
HETATM   24  H10 UNL     1      34.445   3.772  49.690  1.00  0.00     0.156 HD
ENDROOT
TORSDOF 0
ENDMDL
MODEL 3
REMARK VINA RESULT:      -7.0     11.142     12.879
REMARK  0 active torsions:
REMARK  status: ('A' for Active; 'I' for Inactive)
ROOT
HETATM    1 BR1  UNL     1      32.432   3.612  47.378  1.00  0.00    -0.111 Br
HETATM    2  C1  UNL     1      33.401   4.901  46.218  1.00  0.00     0.092 A 
HETATM    3  C2  UNL     1      34.384   3.955  46.373  1.00  0.00     0.141 A 
HETATM    4  C3  UNL     1      35.117   3.838  45.219  1.00  0.00     0.017 A 
HETATM    5  C4  UNL     1      34.527   4.781  44.346  1.00  0.00     0.006 A 
HETATM    6  C5  UNL     1      33.499   5.458  44.865  1.00  0.00     0.077 A 
HETATM    7  C6  UNL     1      32.590   5.889  45.673  1.00  0.00     0.029 A 
HETATM    8  C7  UNL     1      31.731   6.207  46.639  1.00  0.00     0.010 A 
HETATM    9  C8  UNL     1      32.379   7.421  46.561  1.00  0.00     0.025 A 
HETATM   10  C9  UNL     1      33.607   7.729  47.458  1.00  0.00     0.086 C 
HETATM   11  C10 UNL     1      34.669   8.179  46.531  1.00  0.00     0.128 C 
HETATM   12  N1  UNL     1      34.410   8.408  45.191  1.00  0.00    -0.406 N 
HETATM   13  C11 UNL     1      34.236   7.630  44.112  1.00  0.00     0.233 C 
HETATM   14  N2  UNL     1      33.297   6.551  43.924  1.00  0.00    -0.392 N 
HETATM   15  C12 UNL     1      33.870   6.480  48.245  1.00  0.00     0.149 C 
HETATM   16  N3  UNL     1      34.698   5.578  47.946  1.00  0.00    -0.222 NA
HETATM   17  C13 UNL     1      35.046   4.361  48.574  1.00  0.00     0.231 C 
HETATM   18  N4  UNL     1      34.859   3.362  47.627  1.00  0.00    -0.255 NA
HETATM   19  O1  UNL     1      33.134   6.247  49.440  1.00  0.00    -0.312 OA
HETATM   20  C14 UNL     1      31.743   6.096  49.695  1.00  0.00     0.346 C 
HETATM   21  O2  UNL     1      30.888   6.641  48.806  1.00  0.00    -0.366 OA
HETATM   22  C15 UNL     1      30.707   5.976  47.580  1.00  0.00     0.182 C 
HETATM   23  H7  UNL     1      33.926   9.358  45.104  1.00  0.00     0.154 HD
HETATM   24  H10 UNL     1      32.539   6.332  43.255  1.00  0.00     0.156 HD
ENDROOT
TORSDOF 0
ENDMDL
MODEL 4
REMARK VINA RESULT:      -7.0      2.592      4.460
REMARK  0 active torsions:
REMARK  status: ('A' for Active; 'I' for Inactive)
ROOT
HETATM    1 BR1  UNL     1      20.626   3.944  51.563  1.00  0.00    -0.111 Br
HETATM    2  C1  UNL     1      22.115   5.131  50.997  1.00  0.00     0.092 A 
HETATM    3  C2  UNL     1      21.120   5.617  50.187  1.00  0.00     0.141 A 
HETATM    4  C3  UNL     1      21.255   6.974  50.032  1.00  0.00     0.017 A 
HETATM    5  C4  UNL     1      22.403   7.290  50.793  1.00  0.00     0.006 A 
HETATM    6  C5  UNL     1      22.978   6.247  51.399  1.00  0.00     0.077 A 
HETATM    7  C6  UNL     1      23.239   5.053  51.813  1.00  0.00     0.029 A 
HETATM    8  C7  UNL     1      23.350   3.766  52.131  1.00  0.00     0.010 A 
HETATM    9  C8  UNL     1      24.519   3.879  51.410  1.00  0.00     0.025 A 
HETATM   10  C9  UNL     1      24.550   3.576  49.889  1.00  0.00     0.086 C 
HETATM   11  C10 UNL     1      25.166   4.767  49.262  1.00  0.00     0.128 C 
HETATM   12  N1  UNL     1      25.721   5.779  50.025  1.00  0.00    -0.406 N 
HETATM   13  C11 UNL     1      25.234   6.800  50.745  1.00  0.00     0.233 C 
HETATM   14  N2  UNL     1      24.273   6.764  51.819  1.00  0.00    -0.392 N 
HETATM   15  C12 UNL     1      23.139   3.251  49.500  1.00  0.00     0.149 C 
HETATM   16  N3  UNL     1      22.302   4.057  49.013  1.00  0.00    -0.222 NA
HETATM   17  C13 UNL     1      20.956   3.903  48.611  1.00  0.00     0.231 C 
HETATM   18  N4  UNL     1      20.224   4.848  49.319  1.00  0.00    -0.255 NA
HETATM   19  O1  UNL     1      22.656   1.927  49.691  1.00  0.00    -0.312 OA
HETATM   20  C14 UNL     1      22.506   1.119  50.852  1.00  0.00     0.346 C 
HETATM   21  O2  UNL     1      23.284   1.411  51.914  1.00  0.00    -0.366 OA
HETATM   22  C15 UNL     1      22.942   2.536  52.686  1.00  0.00     0.182 C 
HETATM   23  H7  UNL     1      26.684   5.452  50.359  1.00  0.00     0.154 HD
HETATM   24  H10 UNL     1      24.253   7.058  52.811  1.00  0.00     0.156 HD
ENDROOT
TORSDOF 0
ENDMDL
MODEL 5
REMARK VINA RESULT:      -6.9      2.890      4.325
REMARK  0 active torsions:
REMARK  status: ('A' for Active; 'I' for Inactive)
ROOT
HETATM    1 BR1  UNL     1      23.111   2.896  48.974  1.00  0.00    -0.111 Br
HETATM    2  C1  UNL     1      24.439   4.297  49.442  1.00  0.00     0.092 A 
HETATM    3  C2  UNL     1      24.984   3.235  50.120  1.00  0.00     0.141 A 
HETATM    4  C3  UNL     1      26.353   3.303  50.086  1.00  0.00     0.017 A 
HETATM    5  C4  UNL     1      26.616   4.481  49.350  1.00  0.00     0.006 A 
HETATM    6  C5  UNL     1      25.529   5.135  48.931  1.00  0.00     0.077 A 
HETATM    7  C6  UNL     1      24.304   5.470  48.707  1.00  0.00     0.029 A 
HETATM    8  C7  UNL     1      22.992   5.654  48.583  1.00  0.00     0.010 A 
HETATM    9  C8  UNL     1      23.264   6.772  49.343  1.00  0.00     0.025 A 
HETATM   10  C9  UNL     1      23.180   6.725  50.891  1.00  0.00     0.086 C 
HETATM   11  C10 UNL     1      24.477   7.251  51.372  1.00  0.00     0.128 C 
HETATM   12  N1  UNL     1      25.398   7.808  50.503  1.00  0.00    -0.406 N 
HETATM   13  C11 UNL     1      26.282   7.322  49.618  1.00  0.00     0.233 C 
HETATM   14  N2  UNL     1      26.047   6.429  48.511  1.00  0.00    -0.392 N 
HETATM   15  C12 UNL     1      22.842   5.308  51.246  1.00  0.00     0.149 C 
HETATM   16  N3  UNL     1      23.666   4.409  51.567  1.00  0.00    -0.222 NA
HETATM   17  C13 UNL     1      23.502   3.049  51.914  1.00  0.00     0.231 C 
HETATM   18  N4  UNL     1      24.300   2.322  51.040  1.00  0.00    -0.255 NA
HETATM   19  O1  UNL     1      21.482   4.893  51.222  1.00  0.00    -0.312 OA
HETATM   20  C14 UNL     1      20.512   4.848  50.182  1.00  0.00     0.346 C 
HETATM   21  O2  UNL     1      20.690   5.675  49.132  1.00  0.00    -0.366 OA
HETATM   22  C15 UNL     1      21.677   5.333  48.189  1.00  0.00     0.182 C 
HETATM   23  H7  UNL     1      25.077   8.802  50.271  1.00  0.00     0.154 HD
HETATM   24  H10 UNL     1      26.197   6.456  47.488  1.00  0.00     0.156 HD
ENDROOT
TORSDOF 0
ENDMDL
MODEL 6
REMARK VINA RESULT:      -6.7      9.901     11.807
REMARK  0 active torsions:
REMARK  status: ('A' for Active; 'I' for Inactive)
ROOT
HETATM    1 BR1  UNL     1      32.501   6.366  45.596  1.00  0.00    -0.111 Br
HETATM    2  C1  UNL     1      31.035   7.335  46.523  1.00  0.00     0.092 A 
HETATM    3  C2  UNL     1      31.138   8.109  45.394  1.00  0.00     0.141 A 
HETATM    4  C3  UNL     1      29.900   8.560  45.013  1.00  0.00     0.017 A 
HETATM    5  C4  UNL     1      29.028   8.019  45.985  1.00  0.00     0.006 A 
HETATM    6  C5  UNL     1      29.625   7.277  46.923  1.00  0.00     0.077 A 
HETATM    7  C6  UNL     1      30.515   6.655  47.619  1.00  0.00     0.029 A 
HETATM    8  C7  UNL     1      31.566   6.089  48.207  1.00  0.00     0.010 A 
HETATM    9  C8  UNL     1      31.222   6.948  49.229  1.00  0.00     0.025 A 
HETATM   10  C9  UNL     1      31.846   8.364  49.326  1.00  0.00     0.086 C 
HETATM   11  C10 UNL     1      30.700   9.293  49.438  1.00  0.00     0.128 C 
HETATM   12  N1  UNL     1      29.407   8.828  49.602  1.00  0.00    -0.406 N 
HETATM   13  C11 UNL     1      28.483   8.287  48.794  1.00  0.00     0.233 C 
HETATM   14  N2  UNL     1      28.601   7.127  47.946  1.00  0.00    -0.392 N 
HETATM   15  C12 UNL     1      32.730   8.511  48.124  1.00  0.00     0.149 C 
HETATM   16  N3  UNL     1      32.412   9.058  47.034  1.00  0.00    -0.222 NA
HETATM   17  C13 UNL     1      33.121   9.262  45.829  1.00  0.00     0.231 C 
HETATM   18  N4  UNL     1      32.357   8.688  44.821  1.00  0.00    -0.255 NA
HETATM   19  O1  UNL     1      34.054   7.994  48.170  1.00  0.00    -0.312 OA
HETATM   20  C14 UNL     1      34.563   6.679  48.365  1.00  0.00     0.346 C 
HETATM   21  O2  UNL     1      33.772   5.798  49.011  1.00  0.00    -0.366 OA
HETATM   22  C15 UNL     1      32.692   5.245  48.300  1.00  0.00     0.182 C 
HETATM   23  H7  UNL     1      29.283   8.546  50.627  1.00  0.00     0.154 HD
HETATM   24  H10 UNL     1      28.107   6.223  47.848  1.00  0.00     0.156 HD
ENDROOT
TORSDOF 0
ENDMDL
MODEL 7
REMARK VINA RESULT:      -6.6     10.257     11.867
REMARK  0 active torsions:
REMARK  status: ('A' for Active; 'I' for Inactive)
ROOT
HETATM    1 BR1  UNL     1      29.750   6.392  47.803  1.00  0.00    -0.111 Br
HETATM    2  C1  UNL     1      31.512   6.510  46.894  1.00  0.00     0.092 A 
HETATM    3  C2  UNL     1      31.673   5.311  47.542  1.00  0.00     0.141 A 
HETATM    4  C3  UNL     1      32.409   4.448  46.770  1.00  0.00     0.017 A 
HETATM    5  C4  UNL     1      32.699   5.198  45.607  1.00  0.00     0.006 A 
HETATM    6  C5  UNL     1      32.202   6.439  45.602  1.00  0.00     0.077 A 
HETATM    7  C6  UNL     1      31.590   7.521  45.944  1.00  0.00     0.029 A 
HETATM    8  C7  UNL     1      30.916   8.543  46.466  1.00  0.00     0.010 A 
HETATM    9  C8  UNL     1      32.161   9.134  46.445  1.00  0.00     0.025 A 
HETATM   10  C9  UNL     1      33.109   9.045  47.669  1.00  0.00     0.086 C 
HETATM   11  C10 UNL     1      34.392   8.535  47.138  1.00  0.00     0.128 C 
HETATM   12  N1  UNL     1      34.606   8.394  45.778  1.00  0.00    -0.406 N 
HETATM   13  C11 UNL     1      34.229   7.507  44.845  1.00  0.00     0.233 C 
HETATM   14  N2  UNL     1      32.897   7.082  44.496  1.00  0.00    -0.392 N 
HETATM   15  C12 UNL     1      32.400   8.196  48.681  1.00  0.00     0.149 C 
HETATM   16  N3  UNL     1      32.562   6.957  48.850  1.00  0.00    -0.222 NA
HETATM   17  C13 UNL     1      31.972   6.033  49.742  1.00  0.00     0.231 C 
HETATM   18  N4  UNL     1      31.425   5.024  48.959  1.00  0.00    -0.255 NA
HETATM   19  O1  UNL     1      31.444   8.798  49.544  1.00  0.00    -0.312 OA
HETATM   20  C14 UNL     1      30.225   9.486  49.292  1.00  0.00     0.346 C 
HETATM   21  O2  UNL     1      30.075  10.056  48.079  1.00  0.00    -0.366 OA
HETATM   22  C15 UNL     1      29.790   9.211  46.991  1.00  0.00     0.182 C 
HETATM   23  H7  UNL     1      34.819   9.362  45.374  1.00  0.00     0.154 HD
HETATM   24  H10 UNL     1      32.317   7.076  43.638  1.00  0.00     0.156 HD
ENDROOT
TORSDOF 0
ENDMDL
MODEL 8
REMARK VINA RESULT:      -6.5      2.313      4.343
REMARK  0 active torsions:
REMARK  status: ('A' for Active; 'I' for Inactive)
ROOT
HETATM    1 BR1  UNL     1      19.605   2.835  49.841  1.00  0.00    -0.111 Br
HETATM    2  C1  UNL     1      21.199   4.003  50.046  1.00  0.00     0.092 A 
HETATM    3  C2  UNL     1      21.096   4.000  48.677  1.00  0.00     0.141 A 
HETATM    4  C3  UNL     1      21.456   5.224  48.172  1.00  0.00     0.017 A 
HETATM    5  C4  UNL     1      21.795   5.978  49.319  1.00  0.00     0.006 A 
HETATM    6  C5  UNL     1      21.671   5.322  50.477  1.00  0.00     0.077 A 
HETATM    7  C6  UNL     1      21.437   4.407  51.354  1.00  0.00     0.029 A 
HETATM    8  C7  UNL     1      21.150   3.346  52.104  1.00  0.00     0.010 A 
HETATM    9  C8  UNL     1      22.498   3.412  52.386  1.00  0.00     0.025 A 
HETATM   10  C9  UNL     1      23.529   2.620  51.540  1.00  0.00     0.086 C 
HETATM   11  C10 UNL     1      24.539   3.615  51.116  1.00  0.00     0.128 C 
HETATM   12  N1  UNL     1      24.531   4.908  51.610  1.00  0.00    -0.406 N 
HETATM   13  C11 UNL     1      23.804   6.010  51.372  1.00  0.00     0.233 C 
HETATM   14  N2  UNL     1      22.373   6.172  51.429  1.00  0.00    -0.392 N 
HETATM   15  C12 UNL     1      22.745   1.938  50.459  1.00  0.00     0.149 C 
HETATM   16  N3  UNL     1      22.571   2.369  49.288  1.00  0.00    -0.222 NA
HETATM   17  C13 UNL     1      21.862   1.852  48.179  1.00  0.00     0.231 C 
HETATM   18  N4  UNL     1      20.959   2.836  47.797  1.00  0.00    -0.255 NA
HETATM   19  O1  UNL     1      22.114   0.695  50.740  1.00  0.00    -0.312 OA
HETATM   20  C14 UNL     1      21.117   0.317  51.681  1.00  0.00     0.346 C 
HETATM   21  O2  UNL     1      20.980   1.085  52.782  1.00  0.00    -0.366 OA
HETATM   22  C15 UNL     1      20.334   2.326  52.636  1.00  0.00     0.182 C 
HETATM   23  H7  UNL     1      24.955   4.890  52.593  1.00  0.00     0.154 HD
HETATM   24  H10 UNL     1      21.711   6.777  51.946  1.00  0.00     0.156 HD
ENDROOT
TORSDOF 0
ENDMDL
MODEL 9
REMARK VINA RESULT:      -6.5     23.136     25.047
REMARK  0 active torsions:
REMARK  status: ('A' for Active; 'I' for Inactive)
ROOT
HETATM    1 BR1  UNL     1      40.295  -4.738  68.039  1.00  0.00    -0.111 Br
HETATM    2  C1  UNL     1      40.924  -2.898  68.444  1.00  0.00     0.092 A 
HETATM    3  C2  UNL     1      41.587  -3.584  69.431  1.00  0.00     0.141 A 
HETATM    4  C3  UNL     1      42.818  -3.022  69.654  1.00  0.00     0.017 A 
HETATM    5  C4  UNL     1      42.867  -1.940  68.746  1.00  0.00     0.006 A 
HETATM    6  C5  UNL     1      41.776  -1.794  67.989  1.00  0.00     0.077 A 
HETATM    7  C6  UNL     1      40.612  -1.966  67.460  1.00  0.00     0.029 A 
HETATM    8  C7  UNL     1      39.392  -2.296  67.042  1.00  0.00     0.010 A 
HETATM    9  C8  UNL     1      39.078  -1.066  67.579  1.00  0.00     0.025 A 
HETATM   10  C9  UNL     1      38.611  -0.933  69.052  1.00  0.00     0.086 C 
HETATM   11  C10 UNL     1      39.493   0.092  69.654  1.00  0.00     0.128 C 
HETATM   12  N1  UNL     1      40.377   0.827  68.884  1.00  0.00    -0.406 N 
HETATM   13  C11 UNL     1      41.569   0.587  68.318  1.00  0.00     0.233 C 
HETATM   14  N2  UNL     1      41.935  -0.469  67.408  1.00  0.00    -0.392 N 
HETATM   15  C12 UNL     1      38.672  -2.314  69.633  1.00  0.00     0.149 C 
HETATM   16  N3  UNL     1      39.629  -2.795  70.298  1.00  0.00    -0.222 NA
HETATM   17  C13 UNL     1      39.831  -4.060  70.894  1.00  0.00     0.231 C 
HETATM   18  N4  UNL     1      41.021  -4.553  70.374  1.00  0.00    -0.255 NA
HETATM   19  O1  UNL     1      37.578  -3.199  69.431  1.00  0.00    -0.312 OA
HETATM   20  C14 UNL     1      36.983  -3.736  68.256  1.00  0.00     0.346 C 
HETATM   21  O2  UNL     1      37.151  -3.049  67.107  1.00  0.00    -0.366 OA
HETATM   22  C15 UNL     1      38.405  -3.128  66.476  1.00  0.00     0.182 C 
HETATM   23  H7  UNL     1      39.822   1.593  68.382  1.00  0.00     0.154 HD
HETATM   24  H10 UNL     1      42.331  -0.525  66.453  1.00  0.00     0.156 HD
ENDROOT
TORSDOF 0
ENDMDL
