MODEL 1
REMARK VINA RESULT:      -7.9      0.000      0.000
REMARK  4 active torsions:
REMARK  status: ('A' for Active; 'I' for Inactive)
REMARK    1  A    between atoms: C1_2  and  C2_3 
REMARK       I    between atoms: C1_2  and  N1_11 
REMARK    2  A    between atoms: C2_3  and  P1_4 
REMARK    3  A    between atoms: N1_11  and  S1_12 
REMARK    4  A    between atoms: S1_12  and  C8_15 
ROOT
HETATM    1  O1  UNL     1      24.874   1.972  53.002  1.00  0.00    -0.268 OA
HETATM    2  C1  UNL     1      25.512   2.490  52.041  1.00  0.00     0.256 C 
HETATM    3  N1  UNL     1      26.894   2.427  52.329  1.00  0.00    -0.247 N 
HETATM    4  H6  UNL     1      27.498   2.812  51.582  1.00  0.00     0.182 HD
ENDROOT
BRANCH   3   5
HETATM    5  S1  UNL     1      27.413   1.728  53.819  1.00  0.00     0.265 S 
HETATM    6  O2  UNL     1      26.358   1.771  54.857  1.00  0.00    -0.200 OA
HETATM    7  O3  UNL     1      28.589   2.517  54.313  1.00  0.00    -0.200 OA
BRANCH   5   8
HETATM    8  C8  UNL     1      27.895   0.075  53.445  1.00  0.00     0.080 A 
HETATM    9  C9  UNL     1      27.015  -0.838  52.893  1.00  0.00     0.025 A 
HETATM   10  C10 UNL     1      27.511  -2.113  52.641  1.00  0.00     0.002 A 
HETATM   11  C11 UNL     1      28.815  -2.474  52.920  1.00  0.00     0.000 A 
HETATM   12  C12 UNL     1      29.655  -1.525  53.471  1.00  0.00     0.002 A 
HETATM   13  C13 UNL     1      29.205  -0.246  53.738  1.00  0.00     0.025 A 
ENDBRANCH   5   8
ENDBRANCH   3   5
BRANCH   2  14
HETATM   14  C2  UNL     1      24.697   2.980  50.955  1.00  0.00     0.089 C 
BRANCH  14  15
HETATM   15  P1  UNL     1      25.050   3.838  49.590  1.00  0.00    -0.042 P 
HETATM   16  C3  UNL     1      26.691   3.590  49.260  1.00  0.00     0.016 A 
HETATM   17  C4  UNL     1      27.509   4.702  48.775  1.00  0.00     0.020 A 
HETATM   18  C5  UNL     1      26.996   5.931  48.583  1.00  0.00     0.011 A 
HETATM   19 BR1  UNL     1      28.199   7.268  47.947  1.00  0.00    -0.051 Br
HETATM   20  C6  UNL     1      25.639   6.380  48.798  1.00  0.00     0.020 A 
HETATM   21  C7  UNL     1      24.668   5.561  49.245  1.00  0.00     0.016 A 
ENDBRANCH  14  15
ENDBRANCH   2  14
TORSDOF 4
ENDMDL
MODEL 2
REMARK VINA RESULT:      -7.7      4.656      5.791
REMARK  4 active torsions:
REMARK  status: ('A' for Active; 'I' for Inactive)
REMARK    1  A    between atoms: C1_2  and  C2_3 
REMARK       I    between atoms: C1_2  and  N1_11 
REMARK    2  A    between atoms: C2_3  and  P1_4 
REMARK    3  A    between atoms: N1_11  and  S1_12 
REMARK    4  A    between atoms: S1_12  and  C8_15 
ROOT
HETATM    1  O1  UNL     1      24.489   2.709  52.617  1.00  0.00    -0.268 OA
HETATM    2  C1  UNL     1      24.252   1.640  51.983  1.00  0.00     0.256 C 
HETATM    3  N1  UNL     1      25.395   0.811  52.052  1.00  0.00    -0.247 N 
HETATM    4  H6  UNL     1      25.283  -0.100  51.575  1.00  0.00     0.182 HD
ENDROOT
BRANCH   3   5
HETATM    5  S1  UNL     1      26.789   1.367  52.903  1.00  0.00     0.265 S 
HETATM    6  O2  UNL     1      26.446   1.971  54.211  1.00  0.00    -0.200 OA
HETATM    7  O3  UNL     1      27.454   2.417  52.062  1.00  0.00    -0.200 OA
BRANCH   5   8
HETATM    8  C8  UNL     1      27.844  -0.032  53.085  1.00  0.00     0.080 A 
HETATM    9  C9  UNL     1      27.406  -1.319  52.829  1.00  0.00     0.025 A 
HETATM   10  C10 UNL     1      28.330  -2.342  53.008  1.00  0.00     0.002 A 
HETATM   11  C11 UNL     1      29.628  -2.112  53.421  1.00  0.00     0.000 A 
HETATM   12  C12 UNL     1      30.017  -0.808  53.664  1.00  0.00     0.002 A 
HETATM   13  C13 UNL     1      29.132   0.240  53.499  1.00  0.00     0.025 A 
ENDBRANCH   5   8
ENDBRANCH   3   5
BRANCH   2  14
HETATM   14  C2  UNL     1      22.939   1.554  51.391  1.00  0.00     0.089 C 
BRANCH  14  15
HETATM   15  P1  UNL     1      21.420   1.547  52.035  1.00  0.00    -0.042 P 
HETATM   16  C3  UNL     1      21.453   0.508  53.370  1.00  0.00     0.016 A 
HETATM   17  C4  UNL     1      20.314  -0.373  53.630  1.00  0.00     0.020 A 
HETATM   18  C5  UNL     1      19.229  -0.388  52.835  1.00  0.00     0.011 A 
HETATM   19 BR1  UNL     1      17.833  -1.595  53.317  1.00  0.00    -0.051 Br
HETATM   20  C6  UNL     1      18.977   0.397  51.648  1.00  0.00     0.020 A 
HETATM   21  C7  UNL     1      19.861   1.295  51.174  1.00  0.00     0.016 A 
ENDBRANCH  14  15
ENDBRANCH   2  14
TORSDOF 4
ENDMDL
MODEL 3
REMARK VINA RESULT:      -7.4      3.507      6.959
REMARK  4 active torsions:
REMARK  status: ('A' for Active; 'I' for Inactive)
REMARK    1  A    between atoms: C1_2  and  C2_3 
REMARK       I    between atoms: C1_2  and  N1_11 
REMARK    2  A    between atoms: C2_3  and  P1_4 
REMARK    3  A    between atoms: N1_11  and  S1_12 
REMARK    4  A    between atoms: S1_12  and  C8_15 
ROOT
HETATM    1  O1  UNL     1      23.035   3.357  51.569  1.00  0.00    -0.268 OA
HETATM    2  C1  UNL     1      24.068   2.629  51.530  1.00  0.00     0.256 C 
HETATM    3  N1  UNL     1      25.037   3.262  50.719  1.00  0.00    -0.247 N 
HETATM    4  H6  UNL     1      25.929   2.743  50.646  1.00  0.00     0.182 HD
ENDROOT
BRANCH   3   5
HETATM    5  S1  UNL     1      24.660   4.776  49.982  1.00  0.00     0.265 S 
HETATM    6  O2  UNL     1      24.137   5.760  50.957  1.00  0.00    -0.200 OA
HETATM    7  O3  UNL     1      23.601   4.534  48.947  1.00  0.00    -0.200 OA
BRANCH   5   8
HETATM    8  C8  UNL     1      26.146   5.336  49.220  1.00  0.00     0.080 A 
HETATM    9  C9  UNL     1      27.226   4.496  49.016  1.00  0.00     0.025 A 
HETATM   10  C10 UNL     1      28.345   5.052  48.405  1.00  0.00     0.002 A 
HETATM   11  C11 UNL     1      28.399   6.375  48.011  1.00  0.00     0.000 A 
HETATM   12  C12 UNL     1      27.294   7.173  48.237  1.00  0.00     0.002 A 
HETATM   13  C13 UNL     1      26.161   6.663  48.842  1.00  0.00     0.025 A 
ENDBRANCH   5   8
ENDBRANCH   3   5
BRANCH   2  14
HETATM   14  C2  UNL     1      23.988   1.406  52.292  1.00  0.00     0.089 C 
BRANCH  14  15
HETATM   15  P1  UNL     1      25.074   0.607  53.244  1.00  0.00    -0.042 P 
HETATM   16  C3  UNL     1      26.266   1.726  53.681  1.00  0.00     0.016 A 
HETATM   17  C4  UNL     1      27.667   1.309  53.732  1.00  0.00     0.020 A 
HETATM   18  C5  UNL     1      28.047   0.053  53.437  1.00  0.00     0.011 A 
HETATM   19 BR1  UNL     1      29.914  -0.324  53.554  1.00  0.00    -0.051 Br
HETATM   20  C6  UNL     1      27.221  -1.063  53.038  1.00  0.00     0.020 A 
HETATM   21  C7  UNL     1      25.884  -0.963  52.908  1.00  0.00     0.016 A 
ENDBRANCH  14  15
ENDBRANCH   2  14
TORSDOF 4
ENDMDL
MODEL 4
REMARK VINA RESULT:      -7.3      3.576      4.674
REMARK  4 active torsions:
REMARK  status: ('A' for Active; 'I' for Inactive)
REMARK    1  A    between atoms: C1_2  and  C2_3 
REMARK       I    between atoms: C1_2  and  N1_11 
REMARK    2  A    between atoms: C2_3  and  P1_4 
REMARK    3  A    between atoms: N1_11  and  S1_12 
REMARK    4  A    between atoms: S1_12  and  C8_15 
ROOT
HETATM    1  O1  UNL     1      24.542   2.294  53.251  1.00  0.00    -0.268 OA
HETATM    2  C1  UNL     1      25.067   2.679  52.167  1.00  0.00     0.256 C 
HETATM    3  N1  UNL     1      26.465   2.483  52.248  1.00  0.00    -0.247 N 
HETATM    4  H6  UNL     1      26.978   2.754  51.391  1.00  0.00     0.182 HD
ENDROOT
BRANCH   3   5
HETATM    5  S1  UNL     1      27.142   1.825  53.692  1.00  0.00     0.265 S 
HETATM    6  O2  UNL     1      26.214   1.920  54.841  1.00  0.00    -0.200 OA
HETATM    7  O3  UNL     1      28.377   2.611  54.021  1.00  0.00    -0.200 OA
BRANCH   5   8
HETATM    8  C8  UNL     1      27.557   0.153  53.323  1.00  0.00     0.080 A 
HETATM    9  C9  UNL     1      26.634  -0.731  52.794  1.00  0.00     0.025 A 
HETATM   10  C10 UNL     1      27.079  -2.025  52.545  1.00  0.00     0.002 A 
HETATM   11  C11 UNL     1      28.374  -2.431  52.802  1.00  0.00     0.000 A 
HETATM   12  C12 UNL     1      29.258  -1.509  53.330  1.00  0.00     0.002 A 
HETATM   13  C13 UNL     1      28.860  -0.213  53.594  1.00  0.00     0.025 A 
ENDBRANCH   5   8
ENDBRANCH   3   5
BRANCH   2  14
HETATM   14  C2  UNL     1      24.143   3.186  51.182  1.00  0.00     0.089 C 
BRANCH  14  15
HETATM   15  P1  UNL     1      22.622   2.728  50.735  1.00  0.00    -0.042 P 
HETATM   16  C3  UNL     1      21.592   3.108  52.023  1.00  0.00     0.016 A 
HETATM   17  C4  UNL     1      20.511   2.189  52.381  1.00  0.00     0.020 A 
HETATM   18  C5  UNL     1      20.307   1.037  51.716  1.00  0.00     0.011 A 
HETATM   19 BR1  UNL     1      18.854  -0.046  52.312  1.00  0.00    -0.051 Br
HETATM   20  C6  UNL     1      21.050   0.503  50.598  1.00  0.00     0.020 A 
HETATM   21  C7  UNL     1      22.105   1.145  50.058  1.00  0.00     0.016 A 
ENDBRANCH  14  15
ENDBRANCH   2  14
TORSDOF 4
ENDMDL
MODEL 5
REMARK VINA RESULT:      -7.2      2.932      3.717
REMARK  4 active torsions:
REMARK  status: ('A' for Active; 'I' for Inactive)
REMARK    1  A    between atoms: C1_2  and  C2_3 
REMARK       I    between atoms: C1_2  and  N1_11 
REMARK    2  A    between atoms: C2_3  and  P1_4 
REMARK    3  A    between atoms: N1_11  and  S1_12 
REMARK    4  A    between atoms: S1_12  and  C8_15 
ROOT
HETATM    1  O1  UNL     1      24.679   3.002  53.173  1.00  0.00    -0.268 OA
HETATM    2  C1  UNL     1      24.633   2.764  51.932  1.00  0.00     0.256 C 
HETATM    3  N1  UNL     1      24.931   1.398  51.724  1.00  0.00    -0.247 N 
HETATM    4  H6  UNL     1      24.896   1.106  50.731  1.00  0.00     0.182 HD
ENDROOT
BRANCH   3   5
HETATM    5  S1  UNL     1      25.288   0.396  53.082  1.00  0.00     0.265 S 
HETATM    6  O2  UNL     1      25.983   1.137  54.159  1.00  0.00    -0.200 OA
HETATM    7  O3  UNL     1      26.189  -0.709  52.616  1.00  0.00    -0.200 OA
BRANCH   5   8
HETATM    8  C8  UNL     1      23.746  -0.258  53.629  1.00  0.00     0.080 A 
HETATM    9  C9  UNL     1      23.632  -0.982  54.802  1.00  0.00     0.025 A 
HETATM   10  C10 UNL     1      22.363  -1.447  55.130  1.00  0.00     0.002 A 
HETATM   11  C11 UNL     1      21.255  -1.212  54.340  1.00  0.00     0.000 A 
HETATM   12  C12 UNL     1      21.422  -0.483  53.177  1.00  0.00     0.002 A 
HETATM   13  C13 UNL     1      22.664  -0.001  52.812  1.00  0.00     0.025 A 
ENDBRANCH   5   8
ENDBRANCH   3   5
BRANCH   2  14
HETATM   14  C2  UNL     1      24.298   3.894  51.100  1.00  0.00     0.089 C 
BRANCH  14  15
HETATM   15  P1  UNL     1      24.887   4.434  49.656  1.00  0.00    -0.042 P 
HETATM   16  C3  UNL     1      26.435   3.775  49.475  1.00  0.00     0.016 A 
HETATM   17  C4  UNL     1      27.505   4.587  48.896  1.00  0.00     0.020 A 
HETATM   18  C5  UNL     1      27.300   5.856  48.500  1.00  0.00     0.011 A 
HETATM   19 BR1  UNL     1      28.803   6.775  47.767  1.00  0.00    -0.051 Br
HETATM   20  C6  UNL     1      26.080   6.628  48.558  1.00  0.00     0.020 A 
HETATM   21  C7  UNL     1      24.930   6.126  49.049  1.00  0.00     0.016 A 
ENDBRANCH  14  15
ENDBRANCH   2  14
TORSDOF 4
ENDMDL
MODEL 6
REMARK VINA RESULT:      -6.9      1.542      2.399
REMARK  4 active torsions:
REMARK  status: ('A' for Active; 'I' for Inactive)
REMARK    1  A    between atoms: C1_2  and  C2_3 
REMARK       I    between atoms: C1_2  and  N1_11 
REMARK    2  A    between atoms: C2_3  and  P1_4 
REMARK    3  A    between atoms: N1_11  and  S1_12 
REMARK    4  A    between atoms: S1_12  and  C8_15 
ROOT
HETATM    1  O1  UNL     1      24.942   2.908  51.557  1.00  0.00    -0.268 OA
HETATM    2  C1  UNL     1      26.029   2.942  50.912  1.00  0.00     0.256 C 
HETATM    3  N1  UNL     1      26.953   2.074  51.538  1.00  0.00    -0.247 N 
HETATM    4  H6  UNL     1      27.871   2.023  51.063  1.00  0.00     0.182 HD
ENDROOT
BRANCH   3   5
HETATM    5  S1  UNL     1      26.473   1.212  52.954  1.00  0.00     0.265 S 
HETATM    6  O2  UNL     1      25.058   0.781  52.897  1.00  0.00    -0.200 OA
HETATM    7  O3  UNL     1      26.637   2.130  54.130  1.00  0.00    -0.200 OA
BRANCH   5   8
HETATM    8  C8  UNL     1      27.570  -0.160  53.089  1.00  0.00     0.080 A 
HETATM    9  C9  UNL     1      28.861  -0.022  53.567  1.00  0.00     0.025 A 
HETATM   10  C10 UNL     1      29.633  -1.177  53.627  1.00  0.00     0.002 A 
HETATM   11  C11 UNL     1      29.157  -2.414  53.236  1.00  0.00     0.000 A 
HETATM   12  C12 UNL     1      27.860  -2.498  52.765  1.00  0.00     0.002 A 
HETATM   13  C13 UNL     1      27.057  -1.376  52.688  1.00  0.00     0.025 A 
ENDBRANCH   5   8
ENDBRANCH   3   5
BRANCH   2  14
HETATM   14  C2  UNL     1      26.035   3.813  49.761  1.00  0.00     0.089 C 
BRANCH  14  15
HETATM   15  P1  UNL     1      25.668   5.410  49.565  1.00  0.00    -0.042 P 
HETATM   16  C3  UNL     1      24.081   5.485  48.983  1.00  0.00     0.016 A 
HETATM   17  C4  UNL     1      23.730   6.472  47.961  1.00  0.00     0.020 A 
HETATM   18  C5  UNL     1      24.637   7.329  47.459  1.00  0.00     0.011 A 
HETATM   19 BR1  UNL     1      24.014   8.551  46.133  1.00  0.00    -0.051 Br
HETATM   20  C6  UNL     1      26.038   7.450  47.793  1.00  0.00     0.020 A 
HETATM   21  C7  UNL     1      26.633   6.663  48.709  1.00  0.00     0.016 A 
ENDBRANCH  14  15
ENDBRANCH   2  14
TORSDOF 4
ENDMDL
MODEL 7
REMARK VINA RESULT:      -6.9      2.791      3.630
REMARK  4 active torsions:
REMARK  status: ('A' for Active; 'I' for Inactive)
REMARK    1  A    between atoms: C1_2  and  C2_3 
REMARK       I    between atoms: C1_2  and  N1_11 
REMARK    2  A    between atoms: C2_3  and  P1_4 
REMARK    3  A    between atoms: N1_11  and  S1_12 
REMARK    4  A    between atoms: S1_12  and  C8_15 
ROOT
HETATM    1  O1  UNL     1      23.704   4.853  49.913  1.00  0.00    -0.268 OA
HETATM    2  C1  UNL     1      24.877   5.000  50.361  1.00  0.00     0.256 C 
HETATM    3  N1  UNL     1      25.191   3.890  51.179  1.00  0.00    -0.247 N 
HETATM    4  H6  UNL     1      26.147   3.917  51.575  1.00  0.00     0.182 HD
ENDROOT
BRANCH   3   5
HETATM    5  S1  UNL     1      24.012   2.652  51.407  1.00  0.00     0.265 S 
HETATM    6  O2  UNL     1      23.354   2.262  50.140  1.00  0.00    -0.200 OA
HETATM    7  O3  UNL     1      22.961   3.183  52.337  1.00  0.00    -0.200 OA
BRANCH   5   8
HETATM    8  C8  UNL     1      24.859   1.297  52.148  1.00  0.00     0.080 A 
HETATM    9  C9  UNL     1      24.235   0.440  53.037  1.00  0.00     0.025 A 
HETATM   10  C10 UNL     1      25.007  -0.594  53.556  1.00  0.00     0.002 A 
HETATM   11  C11 UNL     1      26.333  -0.778  53.217  1.00  0.00     0.000 A 
HETATM   12  C12 UNL     1      26.910   0.105  52.324  1.00  0.00     0.002 A 
HETATM   13  C13 UNL     1      26.181   1.147  51.783  1.00  0.00     0.025 A 
ENDBRANCH   5   8
ENDBRANCH   3   5
BRANCH   2  14
HETATM   14  C2  UNL     1      25.553   6.202  49.935  1.00  0.00     0.089 C 
BRANCH  14  15
HETATM   15  P1  UNL     1      26.590   6.522  48.692  1.00  0.00    -0.042 P 
HETATM   16  C3  UNL     1      27.609   5.179  48.540  1.00  0.00     0.016 A 
HETATM   17  C4  UNL     1      29.027   5.377  48.242  1.00  0.00     0.020 A 
HETATM   18  C5  UNL     1      29.558   6.603  48.086  1.00  0.00     0.011 A 
HETATM   19 BR1  UNL     1      31.424   6.684  47.701  1.00  0.00    -0.051 Br
HETATM   20  C6  UNL     1      28.895   7.884  48.173  1.00  0.00     0.020 A 
HETATM   21  C7  UNL     1      27.579   8.001  48.438  1.00  0.00     0.016 A 
ENDBRANCH  14  15
ENDBRANCH   2  14
TORSDOF 4
ENDMDL
MODEL 8
REMARK VINA RESULT:      -6.9      3.250      4.169
REMARK  4 active torsions:
REMARK  status: ('A' for Active; 'I' for Inactive)
REMARK    1  A    between atoms: C1_2  and  C2_3 
REMARK       I    between atoms: C1_2  and  N1_11 
REMARK    2  A    between atoms: C2_3  and  P1_4 
REMARK    3  A    between atoms: N1_11  and  S1_12 
REMARK    4  A    between atoms: S1_12  and  C8_15 
ROOT
HETATM    1  O1  UNL     1      25.549   2.525  53.472  1.00  0.00    -0.268 OA
HETATM    2  C1  UNL     1      25.762   2.166  52.278  1.00  0.00     0.256 C 
HETATM    3  N1  UNL     1      26.155   0.808  52.278  1.00  0.00    -0.247 N 
HETATM    4  H6  UNL     1      26.331   0.422  51.334  1.00  0.00     0.182 HD
ENDROOT
BRANCH   3   5
HETATM    5  S1  UNL     1      26.278  -0.034  53.779  1.00  0.00     0.265 S 
HETATM    6  O2  UNL     1      26.836   0.815  54.856  1.00  0.00    -0.200 OA
HETATM    7  O3  UNL     1      27.199  -1.201  53.578  1.00  0.00    -0.200 OA
BRANCH   5   8
HETATM    8  C8  UNL     1      24.652  -0.594  54.163  1.00  0.00     0.080 A 
HETATM    9  C9  UNL     1      24.337  -1.137  55.396  1.00  0.00     0.025 A 
HETATM   10  C10 UNL     1      23.020  -1.543  55.581  1.00  0.00     0.002 A 
HETATM   11  C11 UNL     1      22.055  -1.421  54.600  1.00  0.00     0.000 A 
HETATM   12  C12 UNL     1      22.422  -0.873  53.385  1.00  0.00     0.002 A 
HETATM   13  C13 UNL     1      23.719  -0.455  53.156  1.00  0.00     0.025 A 
ENDBRANCH   5   8
ENDBRANCH   3   5
BRANCH   2  14
HETATM   14  C2  UNL     1      25.550   3.188  51.282  1.00  0.00     0.089 C 
BRANCH  14  15
HETATM   15  P1  UNL     1      24.187   3.823  50.603  1.00  0.00    -0.042 P 
HETATM   16  C3  UNL     1      23.271   2.524  50.022  1.00  0.00     0.016 A 
HETATM   17  C4  UNL     1      22.567   2.647  48.745  1.00  0.00     0.020 A 
HETATM   18  C5  UNL     1      22.626   3.770  48.006  1.00  0.00     0.011 A 
HETATM   19 BR1  UNL     1      21.650   3.764  46.367  1.00  0.00    -0.051 Br
HETATM   20  C6  UNL     1      23.338   4.994  48.290  1.00  0.00     0.020 A 
HETATM   21  C7  UNL     1      24.075   5.160  49.405  1.00  0.00     0.016 A 
ENDBRANCH  14  15
ENDBRANCH   2  14
TORSDOF 4
ENDMDL
MODEL 9
REMARK VINA RESULT:      -6.9      3.046      3.969
REMARK  4 active torsions:
REMARK  status: ('A' for Active; 'I' for Inactive)
REMARK    1  A    between atoms: C1_2  and  C2_3 
REMARK       I    between atoms: C1_2  and  N1_11 
REMARK    2  A    between atoms: C2_3  and  P1_4 
REMARK    3  A    between atoms: N1_11  and  S1_12 
REMARK    4  A    between atoms: S1_12  and  C8_15 
ROOT
HETATM    1  O1  UNL     1      26.413   2.181  53.191  1.00  0.00    -0.268 OA
HETATM    2  C1  UNL     1      26.465   1.760  51.999  1.00  0.00     0.256 C 
HETATM    3  N1  UNL     1      26.548   0.349  52.022  1.00  0.00    -0.247 N 
HETATM    4  H6  UNL     1      26.573  -0.086  51.083  1.00  0.00     0.182 HD
ENDROOT
BRANCH   3   5
HETATM    5  S1  UNL     1      26.576  -0.469  53.540  1.00  0.00     0.265 S 
HETATM    6  O2  UNL     1      27.349   0.271  54.563  1.00  0.00    -0.200 OA
HETATM    7  O3  UNL     1      27.231  -1.803  53.333  1.00  0.00    -0.200 OA
BRANCH   5   8
HETATM    8  C8  UNL     1      24.893  -0.679  54.017  1.00  0.00     0.080 A 
HETATM    9  C9  UNL     1      24.540  -1.154  55.267  1.00  0.00     0.025 A 
HETATM   10  C10 UNL     1      23.179  -1.277  55.528  1.00  0.00     0.002 A 
HETATM   11  C11 UNL     1      22.209  -0.947  54.602  1.00  0.00     0.000 A 
HETATM   12  C12 UNL     1      22.614  -0.477  53.367  1.00  0.00     0.002 A 
HETATM   13  C13 UNL     1      23.955  -0.339  53.064  1.00  0.00     0.025 A 
ENDBRANCH   5   8
ENDBRANCH   3   5
BRANCH   2  14
HETATM   14  C2  UNL     1      26.421   2.784  50.982  1.00  0.00     0.089 C 
BRANCH  14  15
HETATM   15  P1  UNL     1      25.177   3.505  50.173  1.00  0.00    -0.042 P 
HETATM   16  C3  UNL     1      25.645   5.103  49.868  1.00  0.00     0.016 A 
HETATM   17  C4  UNL     1      24.662   6.180  49.986  1.00  0.00     0.020 A 
HETATM   18  C5  UNL     1      23.385   5.943  50.336  1.00  0.00     0.011 A 
HETATM   19 BR1  UNL     1      22.234   7.461  50.444  1.00  0.00    -0.051 Br
HETATM   20  C6  UNL     1      22.760   4.678  50.647  1.00  0.00     0.020 A 
HETATM   21  C7  UNL     1      23.435   3.512  50.617  1.00  0.00     0.016 A 
ENDBRANCH  14  15
ENDBRANCH   2  14
TORSDOF 4
ENDMDL
