MODEL 1
REMARK VINA RESULT:      -6.1      0.000      0.000
REMARK  6 active torsions:
REMARK  status: ('A' for Active; 'I' for Inactive)
REMARK    1  A    between atoms: C2_2  and  C3_3 
REMARK    2  A    between atoms: C2_2  and  N2_7 
REMARK    3  A    between atoms: C3_3  and  N1_4 
REMARK    4  A    between atoms: N1_4  and  C4_5 
REMARK    5  A    between atoms: C10_15  and  O2_16 
REMARK    6  A    between atoms: O2_16  and  C11_17 
ROOT
HETATM    1  N2  UNL     1      22.999   2.173  51.894  1.00  0.00    -0.305 N 
HETATM    2  C5  UNL     1      22.255   3.541  52.036  1.00  0.00     0.138 C 
HETATM    3  C6  UNL     1      22.915   4.765  51.863  1.00  0.00     0.119 C 
HETATM    4  N3  UNL     1      23.456   5.733  51.717  1.00  0.00    -0.190 NA
HETATM    5  C7  UNL     1      20.866   3.688  52.360  1.00  0.00     0.158 C 
HETATM    6  N4  UNL     1      19.603   2.830  52.154  1.00  0.00    -0.262 NA
HETATM    7  C8  UNL     1      19.833   1.468  51.946  1.00  0.00     0.040 C 
HETATM    8  C9  UNL     1      20.109   0.003  52.608  1.00  0.00     0.066 C 
HETATM    9  C10 UNL     1      21.302   0.536  53.012  1.00  0.00     0.097 C 
HETATM   10  C13 UNL     1      22.000   1.017  51.704  1.00  0.00     0.070 C 
HETATM   11  C14 UNL     1      21.455   0.793  50.442  1.00  0.00     0.012 C 
HETATM   12  C15 UNL     1      20.016   1.305  50.424  1.00  0.00     0.088 C 
ENDROOT
BRANCH   1  13
HETATM   13  C2  UNL     1      24.379   2.410  51.988  1.00  0.00     0.014 C 
HETATM   14  C1  UNL     1      25.107   2.472  50.914  1.00  0.00     0.060 C 
BRANCH  13  15
HETATM   15  C3  UNL     1      24.878   2.587  53.375  1.00  0.00     0.174 C 
BRANCH  15  16
HETATM   16  N1  UNL     1      26.295   2.475  53.496  1.00  0.00    -0.363 N 
HETATM   17  H5  UNL     1      26.934   3.270  53.222  1.00  0.00     0.162 HD
BRANCH  16  18
HETATM   18  C4  UNL     1      26.995   1.354  53.968  1.00  0.00     0.348 C 
HETATM   19  O1  UNL     1      26.736   0.854  55.092  1.00  0.00    -0.284 OA
ENDBRANCH  16  18
ENDBRANCH  15  16
ENDBRANCH  13  15
ENDBRANCH   1  13
BRANCH   9  20
HETATM   20  O2  UNL     1      21.156   0.287  54.463  1.00  0.00    -0.349 OA
BRANCH  20  21
HETATM   21  C11 UNL     1      21.773  -0.935  54.901  1.00  0.00     0.171 C 
HETATM   22  C12 UNL     1      23.225  -0.887  54.528  1.00  0.00     0.034 C 
ENDBRANCH  20  21
ENDBRANCH   9  20
TORSDOF 6
ENDMDL
MODEL 2
REMARK VINA RESULT:      -6.0      1.884      2.223
REMARK  6 active torsions:
REMARK  status: ('A' for Active; 'I' for Inactive)
REMARK    1  A    between atoms: C2_2  and  C3_3 
REMARK    2  A    between atoms: C2_2  and  N2_7 
REMARK    3  A    between atoms: C3_3  and  N1_4 
REMARK    4  A    between atoms: N1_4  and  C4_5 
REMARK    5  A    between atoms: C10_15  and  O2_16 
REMARK    6  A    between atoms: O2_16  and  C11_17 
ROOT
HETATM    1  N2  UNL     1      22.680   3.011  50.608  1.00  0.00    -0.305 N 
HETATM    2  C5  UNL     1      21.667   3.917  51.380  1.00  0.00     0.138 C 
HETATM    3  C6  UNL     1      21.514   5.278  51.083  1.00  0.00     0.119 C 
HETATM    4  N3  UNL     1      21.402   6.362  50.829  1.00  0.00    -0.190 NA
HETATM    5  C7  UNL     1      20.820   3.473  52.448  1.00  0.00     0.158 C 
HETATM    6  N4  UNL     1      20.178   2.129  52.843  1.00  0.00    -0.262 NA
HETATM    7  C8  UNL     1      20.791   0.995  52.307  1.00  0.00     0.040 C 
HETATM    8  C9  UNL     1      21.983  -0.113  52.432  1.00  0.00     0.066 C 
HETATM    9  C10 UNL     1      22.826   0.933  52.180  1.00  0.00     0.097 C 
HETATM   10  C13 UNL     1      22.358   1.519  50.815  1.00  0.00     0.070 C 
HETATM   11  C14 UNL     1      21.341   0.936  50.061  1.00  0.00     0.012 C 
HETATM   12  C15 UNL     1      20.108   0.756  50.945  1.00  0.00     0.088 C 
ENDROOT
BRANCH   1  13
HETATM   13  C2  UNL     1      23.601   3.841  49.950  1.00  0.00     0.014 C 
HETATM   14  C1  UNL     1      23.478   4.074  48.677  1.00  0.00     0.060 C 
BRANCH  13  15
HETATM   15  C3  UNL     1      24.659   4.400  50.827  1.00  0.00     0.174 C 
BRANCH  15  16
HETATM   16  N1  UNL     1      25.357   3.415  51.586  1.00  0.00    -0.363 N 
HETATM   17  H5  UNL     1      25.092   3.201  52.587  1.00  0.00     0.162 HD
BRANCH  16  18
HETATM   18  C4  UNL     1      26.435   2.637  51.134  1.00  0.00     0.348 C 
HETATM   19  O1  UNL     1      27.503   2.564  51.792  1.00  0.00    -0.284 OA
ENDBRANCH  16  18
ENDBRANCH  15  16
ENDBRANCH  13  15
ENDBRANCH   1  13
BRANCH   9  20
HETATM   20  O2  UNL     1      23.667   0.813  53.392  1.00  0.00    -0.349 OA
BRANCH  20  21
HETATM   21  C11 UNL     1      24.252  -0.489  53.558  1.00  0.00     0.171 C 
HETATM   22  C12 UNL     1      25.661  -0.439  53.045  1.00  0.00     0.034 C 
ENDBRANCH  20  21
ENDBRANCH   9  20
TORSDOF 6
ENDMDL
MODEL 3
REMARK VINA RESULT:      -5.7      3.755      5.635
REMARK  6 active torsions:
REMARK  status: ('A' for Active; 'I' for Inactive)
REMARK    1  A    between atoms: C2_2  and  C3_3 
REMARK    2  A    between atoms: C2_2  and  N2_7 
REMARK    3  A    between atoms: C3_3  and  N1_4 
REMARK    4  A    between atoms: N1_4  and  C4_5 
REMARK    5  A    between atoms: C10_15  and  O2_16 
REMARK    6  A    between atoms: O2_16  and  C11_17 
ROOT
HETATM    1  N2  UNL     1      24.228   5.296  50.347  1.00  0.00    -0.305 N 
HETATM    2  C5  UNL     1      25.329   4.265  49.936  1.00  0.00     0.138 C 
HETATM    3  C6  UNL     1      26.505   4.658  49.282  1.00  0.00     0.119 C 
HETATM    4  N3  UNL     1      27.440   4.990  48.765  1.00  0.00    -0.190 NA
HETATM    5  C7  UNL     1      25.255   2.851  50.163  1.00  0.00     0.158 C 
HETATM    6  N4  UNL     1      24.562   1.951  51.204  1.00  0.00    -0.262 NA
HETATM    7  C8  UNL     1      23.481   2.531  51.871  1.00  0.00     0.040 C 
HETATM    8  C9  UNL     1      21.888   2.886  51.861  1.00  0.00     0.066 C 
HETATM    9  C10 UNL     1      22.198   3.728  50.829  1.00  0.00     0.097 C 
HETATM   10  C13 UNL     1      23.276   4.697  51.399  1.00  0.00     0.070 C 
HETATM   11  C14 UNL     1      23.675   4.668  52.734  1.00  0.00     0.012 C 
HETATM   12  C15 UNL     1      24.083   3.242  53.099  1.00  0.00     0.088 C 
ENDROOT
BRANCH   1  13
HETATM   13  C2  UNL     1      24.436   6.477  49.618  1.00  0.00     0.014 C 
HETATM   14  C1  UNL     1      24.190   6.510  48.343  1.00  0.00     0.060 C 
BRANCH  13  15
HETATM   15  C3  UNL     1      24.927   7.619  50.428  1.00  0.00     0.174 C 
BRANCH  15  16
HETATM   16  N1  UNL     1      26.348   7.726  50.471  1.00  0.00    -0.363 N 
HETATM   17  H5  UNL     1      26.941   6.990  50.945  1.00  0.00     0.162 HD
BRANCH  16  18
HETATM   18  C4  UNL     1      27.113   8.767  49.922  1.00  0.00     0.348 C 
HETATM   19  O1  UNL     1      27.092   9.921  50.420  1.00  0.00    -0.284 OA
ENDBRANCH  16  18
ENDBRANCH  15  16
ENDBRANCH  13  15
ENDBRANCH   1  13
BRANCH   9  20
HETATM   20  O2  UNL     1      21.272   3.165  49.822  1.00  0.00    -0.349 OA
BRANCH  20  21
HETATM   21  C11 UNL     1      21.736   3.312  48.470  1.00  0.00     0.171 C 
HETATM   22  C12 UNL     1      22.305   1.997  48.024  1.00  0.00     0.034 C 
ENDBRANCH  20  21
ENDBRANCH   9  20
TORSDOF 6
ENDMDL
MODEL 4
REMARK VINA RESULT:      -5.7      8.768     11.835
REMARK  6 active torsions:
REMARK  status: ('A' for Active; 'I' for Inactive)
REMARK    1  A    between atoms: C2_2  and  C3_3 
REMARK    2  A    between atoms: C2_2  and  N2_7 
REMARK    3  A    between atoms: C3_3  and  N1_4 
REMARK    4  A    between atoms: N1_4  and  C4_5 
REMARK    5  A    between atoms: C10_15  and  O2_16 
REMARK    6  A    between atoms: O2_16  and  C11_17 
ROOT
HETATM    1  N2  UNL     1      31.512   6.381  47.817  1.00  0.00    -0.305 N 
HETATM    2  C5  UNL     1      31.845   7.042  46.439  1.00  0.00     0.138 C 
HETATM    3  C6  UNL     1      31.207   8.211  46.004  1.00  0.00     0.119 C 
HETATM    4  N3  UNL     1      30.691   9.147  45.674  1.00  0.00    -0.190 NA
HETATM    5  C7  UNL     1      32.798   6.534  45.497  1.00  0.00     0.158 C 
HETATM    6  N4  UNL     1      34.085   5.692  45.596  1.00  0.00    -0.262 NA
HETATM    7  C8  UNL     1      34.213   4.930  46.758  1.00  0.00     0.040 C 
HETATM    8  C9  UNL     1      33.848   3.546  47.543  1.00  0.00     0.066 C 
HETATM    9  C10 UNL     1      32.562   4.010  47.528  1.00  0.00     0.097 C 
HETATM   10  C13 UNL     1      32.616   5.395  48.239  1.00  0.00     0.070 C 
HETATM   11  C14 UNL     1      33.782   5.892  48.817  1.00  0.00     0.012 C 
HETATM   12  C15 UNL     1      34.907   5.848  47.784  1.00  0.00     0.088 C 
ENDROOT
BRANCH   1  13
HETATM   13  C2  UNL     1      30.281   6.890  48.263  1.00  0.00     0.014 C 
HETATM   14  C1  UNL     1      30.244   7.967  48.989  1.00  0.00     0.060 C 
BRANCH  13  15
HETATM   15  C3  UNL     1      29.099   6.108  47.823  1.00  0.00     0.174 C 
BRANCH  15  16
HETATM   16  N1  UNL     1      28.202   5.777  48.881  1.00  0.00    -0.363 N 
HETATM   17  H5  UNL     1      28.240   6.276  49.811  1.00  0.00     0.162 HD
BRANCH  16  18
HETATM   18  C4  UNL     1      27.200   4.795  48.833  1.00  0.00     0.348 C 
HETATM   19  O1  UNL     1      27.188   3.840  49.650  1.00  0.00    -0.284 OA
ENDBRANCH  16  18
ENDBRANCH  15  16
ENDBRANCH  13  15
ENDBRANCH   1  13
BRANCH   9  20
HETATM   20  O2  UNL     1      31.937   2.857  46.843  1.00  0.00    -0.349 OA
BRANCH  20  21
HETATM   21  C11 UNL     1      32.631   1.617  47.057  1.00  0.00     0.171 C 
HETATM   22  C12 UNL     1      31.793   0.507  46.494  1.00  0.00     0.034 C 
ENDBRANCH  20  21
ENDBRANCH   9  20
TORSDOF 6
ENDMDL
MODEL 5
REMARK VINA RESULT:      -5.7      2.051      2.827
REMARK  6 active torsions:
REMARK  status: ('A' for Active; 'I' for Inactive)
REMARK    1  A    between atoms: C2_2  and  C3_3 
REMARK    2  A    between atoms: C2_2  and  N2_7 
REMARK    3  A    between atoms: C3_3  and  N1_4 
REMARK    4  A    between atoms: N1_4  and  C4_5 
REMARK    5  A    between atoms: C10_15  and  O2_16 
REMARK    6  A    between atoms: O2_16  and  C11_17 
ROOT
HETATM    1  N2  UNL     1      21.949   1.526  51.658  1.00  0.00    -0.305 N 
HETATM    2  C5  UNL     1      21.518   2.977  52.048  1.00  0.00     0.138 C 
HETATM    3  C6  UNL     1      22.453   3.956  52.413  1.00  0.00     0.119 C 
HETATM    4  N3  UNL     1      23.213   4.725  52.697  1.00  0.00    -0.190 NA
HETATM    5  C7  UNL     1      20.164   3.447  52.086  1.00  0.00     0.158 C 
HETATM    6  N4  UNL     1      18.861   3.076  51.351  1.00  0.00    -0.262 NA
HETATM    7  C8  UNL     1      18.836   1.799  50.788  1.00  0.00     0.040 C 
HETATM    8  C9  UNL     1      18.572   0.203  51.008  1.00  0.00     0.066 C 
HETATM    9  C10 UNL     1      19.680   0.247  51.810  1.00  0.00     0.097 C 
HETATM   10  C13 UNL     1      20.821   0.797  50.904  1.00  0.00     0.070 C 
HETATM   11  C14 UNL     1      20.640   1.053  49.547  1.00  0.00     0.012 C 
HETATM   12  C15 UNL     1      19.420   1.957  49.370  1.00  0.00     0.088 C 
ENDROOT
BRANCH   1  13
HETATM   13  C2  UNL     1      23.256   1.314  52.124  1.00  0.00     0.014 C 
HETATM   14  C1  UNL     1      24.274   1.597  51.366  1.00  0.00     0.060 C 
BRANCH  13  15
HETATM   15  C3  UNL     1      23.336   0.777  53.505  1.00  0.00     0.174 C 
BRANCH  15  16
HETATM   16  N1  UNL     1      22.789  -0.533  53.645  1.00  0.00    -0.363 N 
HETATM   17  H5  UNL     1      22.929  -1.270  52.901  1.00  0.00     0.162 HD
BRANCH  16  18
HETATM   18  C4  UNL     1      22.029  -0.996  54.731  1.00  0.00     0.348 C 
HETATM   19  O1  UNL     1      22.484  -1.864  55.518  1.00  0.00    -0.284 OA
ENDBRANCH  16  18
ENDBRANCH  15  16
ENDBRANCH  13  15
ENDBRANCH   1  13
BRANCH   9  20
HETATM   20  O2  UNL     1      19.059  -0.286  53.043  1.00  0.00    -0.349 OA
BRANCH  20  21
HETATM   21  C11 UNL     1      17.927  -1.135  52.795  1.00  0.00     0.171 C 
HETATM   22  C12 UNL     1      18.051  -2.348  53.670  1.00  0.00     0.034 C 
ENDBRANCH  20  21
ENDBRANCH   9  20
TORSDOF 6
ENDMDL
MODEL 6
REMARK VINA RESULT:      -5.6      8.975     11.840
REMARK  6 active torsions:
REMARK  status: ('A' for Active; 'I' for Inactive)
REMARK    1  A    between atoms: C2_2  and  C3_3 
REMARK    2  A    between atoms: C2_2  and  N2_7 
REMARK    3  A    between atoms: C3_3  and  N1_4 
REMARK    4  A    between atoms: N1_4  and  C4_5 
REMARK    5  A    between atoms: C10_15  and  O2_16 
REMARK    6  A    between atoms: O2_16  and  C11_17 
ROOT
HETATM    1  N2  UNL     1      31.128   8.860  48.159  1.00  0.00    -0.305 N 
HETATM    2  C5  UNL     1      31.065   8.865  46.597  1.00  0.00     0.138 C 
HETATM    3  C6  UNL     1      30.657   9.994  45.875  1.00  0.00     0.119 C 
HETATM    4  N3  UNL     1      30.333  10.907  45.315  1.00  0.00    -0.190 NA
HETATM    5  C7  UNL     1      31.394   7.748  45.760  1.00  0.00     0.158 C 
HETATM    6  N4  UNL     1      32.330   6.531  45.887  1.00  0.00    -0.262 NA
HETATM    7  C8  UNL     1      32.686   6.184  47.191  1.00  0.00     0.040 C 
HETATM    8  C9  UNL     1      32.291   5.387  48.560  1.00  0.00     0.066 C 
HETATM    9  C10 UNL     1      31.283   6.305  48.668  1.00  0.00     0.097 C 
HETATM   10  C13 UNL     1      31.991   7.693  48.674  1.00  0.00     0.070 C 
HETATM   11  C14 UNL     1      33.378   7.824  48.669  1.00  0.00     0.012 C 
HETATM   12  C15 UNL     1      33.950   7.007  47.511  1.00  0.00     0.088 C 
ENDROOT
BRANCH   1  13
HETATM   13  C2  UNL     1      30.362   9.936  48.634  1.00  0.00     0.014 C 
HETATM   14  C1  UNL     1      30.936  11.060  48.945  1.00  0.00     0.060 C 
BRANCH  13  15
HETATM   15  C3  UNL     1      28.906   9.661  48.721  1.00  0.00     0.174 C 
BRANCH  15  16
HETATM   16  N1  UNL     1      28.464   9.309  50.031  1.00  0.00    -0.363 N 
HETATM   17  H5  UNL     1      29.149   9.161  50.822  1.00  0.00     0.162 HD
BRANCH  16  18
HETATM   18  C4  UNL     1      27.131   9.119  50.426  1.00  0.00     0.348 C 
HETATM   19  O1  UNL     1      26.216   9.873  50.007  1.00  0.00    -0.284 OA
ENDBRANCH  16  18
ENDBRANCH  15  16
ENDBRANCH  13  15
ENDBRANCH   1  13
BRANCH   9  20
HETATM   20  O2  UNL     1      30.149   5.357  48.728  1.00  0.00    -0.349 OA
BRANCH  20  21
HETATM   21  C11 UNL     1      28.936   5.876  48.160  1.00  0.00     0.171 C 
HETATM   22  C12 UNL     1      27.798   5.007  48.609  1.00  0.00     0.034 C 
ENDBRANCH  20  21
ENDBRANCH   9  20
TORSDOF 6
ENDMDL
MODEL 7
REMARK VINA RESULT:      -5.6      9.070     11.721
REMARK  6 active torsions:
REMARK  status: ('A' for Active; 'I' for Inactive)
REMARK    1  A    between atoms: C2_2  and  C3_3 
REMARK    2  A    between atoms: C2_2  and  N2_7 
REMARK    3  A    between atoms: C3_3  and  N1_4 
REMARK    4  A    between atoms: N1_4  and  C4_5 
REMARK    5  A    between atoms: C10_15  and  O2_16 
REMARK    6  A    between atoms: O2_16  and  C11_17 
ROOT
HETATM    1  N2  UNL     1      32.231   5.382  47.333  1.00  0.00    -0.305 N 
HETATM    2  C5  UNL     1      32.967   6.027  48.553  1.00  0.00     0.138 C 
HETATM    3  C6  UNL     1      34.310   5.749  48.841  1.00  0.00     0.119 C 
HETATM    4  N3  UNL     1      35.384   5.519  49.052  1.00  0.00    -0.190 NA
HETATM    5  C7  UNL     1      32.365   6.934  49.487  1.00  0.00     0.158 C 
HETATM    6  N4  UNL     1      31.214   7.956  49.425  1.00  0.00    -0.262 NA
HETATM    7  C8  UNL     1      30.292   7.756  48.396  1.00  0.00     0.040 C 
HETATM    8  C9  UNL     1      28.954   6.975  47.880  1.00  0.00     0.066 C 
HETATM    9  C10 UNL     1      29.733   5.851  47.922  1.00  0.00     0.097 C 
HETATM   10  C13 UNL     1      30.945   6.156  46.991  1.00  0.00     0.070 C 
HETATM   11  C14 UNL     1      31.039   7.331  46.248  1.00  0.00     0.012 C 
HETATM   12  C15 UNL     1      30.848   8.525  47.181  1.00  0.00     0.088 C 
ENDROOT
BRANCH   1  13
HETATM   13  C2  UNL     1      32.974   4.269  46.910  1.00  0.00     0.014 C 
HETATM   14  C1  UNL     1      32.932   3.160  47.587  1.00  0.00     0.060 C 
BRANCH  13  15
HETATM   15  C3  UNL     1      33.753   4.487  45.666  1.00  0.00     0.174 C 
BRANCH  15  16
HETATM   16  N1  UNL     1      32.977   4.376  44.474  1.00  0.00    -0.363 N 
HETATM   17  H5  UNL     1      32.105   3.781  44.439  1.00  0.00     0.162 HD
BRANCH  16  18
HETATM   18  C4  UNL     1      33.253   5.007  43.251  1.00  0.00     0.348 C 
HETATM   19  O1  UNL     1      33.947   4.438  42.370  1.00  0.00    -0.284 OA
ENDBRANCH  16  18
ENDBRANCH  15  16
ENDBRANCH  13  15
ENDBRANCH   1  13
BRANCH   9  20
HETATM   20  O2  UNL     1      28.886   5.051  48.834  1.00  0.00    -0.349 OA
BRANCH  20  21
HETATM   21  C11 UNL     1      27.479   5.183  48.575  1.00  0.00     0.171 C 
HETATM   22  C12 UNL     1      26.763   4.086  49.307  1.00  0.00     0.034 C 
ENDBRANCH  20  21
ENDBRANCH   9  20
TORSDOF 6
ENDMDL
MODEL 8
REMARK VINA RESULT:      -5.6      2.454      3.950
REMARK  6 active torsions:
REMARK  status: ('A' for Active; 'I' for Inactive)
REMARK    1  A    between atoms: C2_2  and  C3_3 
REMARK    2  A    between atoms: C2_2  and  N2_7 
REMARK    3  A    between atoms: C3_3  and  N1_4 
REMARK    4  A    between atoms: N1_4  and  C4_5 
REMARK    5  A    between atoms: C10_15  and  O2_16 
REMARK    6  A    between atoms: O2_16  and  C11_17 
ROOT
HETATM    1  N2  UNL     1      23.416   2.307  51.447  1.00  0.00    -0.305 N 
HETATM    2  C5  UNL     1      24.400   2.949  50.415  1.00  0.00     0.138 C 
HETATM    3  C6  UNL     1      25.790   2.898  50.585  1.00  0.00     0.119 C 
HETATM    4  N3  UNL     1      26.897   2.844  50.735  1.00  0.00    -0.190 NA
HETATM    5  C7  UNL     1      24.001   3.646  49.227  1.00  0.00     0.158 C 
HETATM    6  N4  UNL     1      22.785   3.583  48.284  1.00  0.00    -0.262 NA
HETATM    7  C8  UNL     1      21.633   3.014  48.831  1.00  0.00     0.040 C 
HETATM    8  C9  UNL     1      20.288   3.226  49.731  1.00  0.00     0.066 C 
HETATM    9  C10 UNL     1      21.153   3.418  50.772  1.00  0.00     0.097 C 
HETATM   10  C13 UNL     1      22.015   2.122  50.835  1.00  0.00     0.070 C 
HETATM   11  C14 UNL     1      21.779   1.027  50.007  1.00  0.00     0.012 C 
HETATM   12  C15 UNL     1      21.744   1.501  48.555  1.00  0.00     0.088 C 
ENDROOT
BRANCH   1  13
HETATM   13  C2  UNL     1      24.114   2.094  52.646  1.00  0.00     0.014 C 
HETATM   14  C1  UNL     1      24.410   3.097  53.418  1.00  0.00     0.060 C 
BRANCH  13  15
HETATM   15  C3  UNL     1      24.441   0.672  52.920  1.00  0.00     0.174 C 
BRANCH  15  16
HETATM   16  N1  UNL     1      25.831   0.371  52.810  1.00  0.00    -0.363 N 
HETATM   17  H5  UNL     1      26.269   0.126  51.880  1.00  0.00     0.162 HD
BRANCH  16  18
HETATM   18  C4  UNL     1      26.756   0.356  53.866  1.00  0.00     0.348 C 
HETATM   19  O1  UNL     1      26.636  -0.450  54.823  1.00  0.00    -0.284 OA
ENDBRANCH  16  18
ENDBRANCH  15  16
ENDBRANCH  13  15
ENDBRANCH   1  13
BRANCH   9  20
HETATM   20  O2  UNL     1      20.683   4.760  51.182  1.00  0.00    -0.349 OA
BRANCH  20  21
HETATM   21  C11 UNL     1      21.749   5.683  51.457  1.00  0.00     0.171 C 
HETATM   22  C12 UNL     1      21.773   6.710  50.363  1.00  0.00     0.034 C 
ENDBRANCH  20  21
ENDBRANCH   9  20
TORSDOF 6
ENDMDL
MODEL 9
REMARK VINA RESULT:      -5.4      9.516     12.784
REMARK  6 active torsions:
REMARK  status: ('A' for Active; 'I' for Inactive)
REMARK    1  A    between atoms: C2_2  and  C3_3 
REMARK    2  A    between atoms: C2_2  and  N2_7 
REMARK    3  A    between atoms: C3_3  and  N1_4 
REMARK    4  A    between atoms: N1_4  and  C4_5 
REMARK    5  A    between atoms: C10_15  and  O2_16 
REMARK    6  A    between atoms: O2_16  and  C11_17 
ROOT
HETATM    1  N2  UNL     1      31.746   5.898  47.206  1.00  0.00    -0.305 N 
HETATM    2  C5  UNL     1      32.669   6.612  48.247  1.00  0.00     0.138 C 
HETATM    3  C6  UNL     1      32.156   7.484  49.217  1.00  0.00     0.119 C 
HETATM    4  N3  UNL     1      31.728   8.174  49.987  1.00  0.00    -0.190 NA
HETATM    5  C7  UNL     1      34.093   6.468  48.314  1.00  0.00     0.158 C 
HETATM    6  N4  UNL     1      35.095   5.360  47.934  1.00  0.00    -0.262 NA
HETATM    7  C8  UNL     1      34.632   4.432  46.999  1.00  0.00     0.040 C 
HETATM    8  C9  UNL     1      34.399   4.062  45.427  1.00  0.00     0.066 C 
HETATM    9  C10 UNL     1      33.485   5.080  45.441  1.00  0.00     0.097 C 
HETATM   10  C13 UNL     1      32.467   4.702  46.558  1.00  0.00     0.070 C 
HETATM   11  C14 UNL     1      32.533   3.495  47.251  1.00  0.00     0.012 C 
HETATM   12  C15 UNL     1      33.941   3.325  47.819  1.00  0.00     0.088 C 
ENDROOT
BRANCH   1  13
HETATM   13  C2  UNL     1      30.517   6.575  47.169  1.00  0.00     0.014 C 
HETATM   14  C1  UNL     1      30.379   7.639  46.435  1.00  0.00     0.060 C 
BRANCH  13  15
HETATM   15  C3  UNL     1      29.454   5.963  48.004  1.00  0.00     0.174 C 
BRANCH  15  16
HETATM   16  N1  UNL     1      28.764   6.897  48.833  1.00  0.00    -0.363 N 
HETATM   17  H5  UNL     1      29.233   7.344  49.667  1.00  0.00     0.162 HD
BRANCH  16  18
HETATM   18  C4  UNL     1      27.438   7.325  48.663  1.00  0.00     0.348 C 
HETATM   19  O1  UNL     1      26.693   7.538  49.653  1.00  0.00    -0.284 OA
ENDBRANCH  16  18
ENDBRANCH  15  16
ENDBRANCH  13  15
ENDBRANCH   1  13
BRANCH   9  20
HETATM   20  O2  UNL     1      34.065   5.890  44.347  1.00  0.00    -0.349 OA
BRANCH  20  21
HETATM   21  C11 UNL     1      33.361   7.119  44.107  1.00  0.00     0.171 C 
HETATM   22  C12 UNL     1      33.906   8.161  45.039  1.00  0.00     0.034 C 
ENDBRANCH  20  21
ENDBRANCH   9  20
TORSDOF 6
ENDMDL
