MODEL 1
REMARK VINA RESULT:      -8.5      0.000      0.000
REMARK  3 active torsions:
REMARK  status: ('A' for Active; 'I' for Inactive)
REMARK    1  A    between atoms: C6_9  and  N3_10 
REMARK    2  A    between atoms: N3_10  and  C7_11 
REMARK    3  A    between atoms: C7_11  and  C8_12 
ROOT
HETATM    1  C1  UNL     1      22.417  -1.995  54.950  1.00  0.00     0.039 C 
HETATM    2  C2  UNL     1      21.758  -0.966  54.073  1.00  0.00     0.007 C 
HETATM    3  C3  UNL     1      22.604  -0.234  53.368  1.00  0.00     0.080 C 
HETATM    4  O1  UNL     1      23.957  -0.488  53.511  1.00  0.00    -0.290 OA
HETATM    5  C4  UNL     1      25.042   0.369  53.318  1.00  0.00     0.202 A 
HETATM    6  N1  UNL     1      26.163   0.396  54.051  1.00  0.00    -0.215 NA
HETATM    7  C5  UNL     1      27.074   1.334  53.655  1.00  0.00     0.238 A 
HETATM    8  N2  UNL     1      26.912   2.175  52.638  1.00  0.00    -0.222 NA
HETATM    9  C6  UNL     1      25.762   2.263  51.764  1.00  0.00     0.156 A 
HETATM   10  C14 UNL     1      25.145   1.311  52.372  1.00  0.00     0.128 A 
HETATM   11  N4  UNL     1      24.049   1.623  51.358  1.00  0.00    -0.379 N 
HETATM   12  C15 UNL     1      22.655   1.168  51.168  1.00  0.00     0.160 C 
HETATM   13  C16 UNL     1      22.063   0.800  52.476  1.00  0.00     0.007 C 
HETATM   14  C17 UNL     1      20.955   1.418  52.957  1.00  0.00     0.453 C 
HETATM   15  F1  UNL     1      20.342   1.194  54.102  1.00  0.00    -0.451 F 
HETATM   16  H14 UNL     1      24.175   2.309  50.547  1.00  0.00     0.160 HD
ENDROOT
BRANCH   9  17
HETATM   17  N3  UNL     1      26.415   3.271  51.119  1.00  0.00    -0.369 N 
HETATM   18  H6  UNL     1      26.866   4.140  51.200  1.00  0.00     0.161 HD
BRANCH  17  19
HETATM   19  C7  UNL     1      26.662   3.251  49.685  1.00  0.00     0.160 C 
BRANCH  19  20
HETATM   20  C8  UNL     1      26.797   4.624  49.088  1.00  0.00    -0.041 A 
HETATM   21  C9  UNL     1      25.707   5.489  49.006  1.00  0.00     0.009 A 
HETATM   22  C10 UNL     1      25.707   6.764  48.465  1.00  0.00     0.001 A 
HETATM   23  C11 UNL     1      26.954   7.057  48.013  1.00  0.00     0.000 A 
HETATM   24  C12 UNL     1      28.149   6.378  47.984  1.00  0.00     0.001 A 
HETATM   25  C13 UNL     1      28.001   5.105  48.566  1.00  0.00     0.009 A 
ENDBRANCH  19  20
ENDBRANCH  17  19
ENDBRANCH   9  17
TORSDOF 3
ENDMDL
MODEL 2
REMARK VINA RESULT:      -8.5      2.033      3.454
REMARK  3 active torsions:
REMARK  status: ('A' for Active; 'I' for Inactive)
REMARK    1  A    between atoms: C6_9  and  N3_10 
REMARK    2  A    between atoms: N3_10  and  C7_11 
REMARK    3  A    between atoms: C7_11  and  C8_12 
ROOT
HETATM    1  C1  UNL     1      22.176  -0.927  53.256  1.00  0.00     0.039 C 
HETATM    2  C2  UNL     1      23.597  -0.634  53.649  1.00  0.00     0.007 C 
HETATM    3  C3  UNL     1      24.092   0.468  53.110  1.00  0.00     0.080 C 
HETATM    4  O1  UNL     1      23.273   1.204  52.272  1.00  0.00    -0.290 OA
HETATM    5  C4  UNL     1      23.622   2.063  51.228  1.00  0.00     0.202 A 
HETATM    6  N1  UNL     1      22.960   2.204  50.072  1.00  0.00    -0.215 NA
HETATM    7  C5  UNL     1      23.511   3.113  49.213  1.00  0.00     0.238 A 
HETATM    8  N2  UNL     1      24.609   3.823  49.454  1.00  0.00    -0.222 NA
HETATM    9  C6  UNL     1      25.424   3.776  50.649  1.00  0.00     0.156 A 
HETATM   10  C14 UNL     1      24.676   2.888  51.204  1.00  0.00     0.128 A 
HETATM   11  N4  UNL     1      25.703   2.991  52.326  1.00  0.00    -0.379 N 
HETATM   12  C15 UNL     1      25.945   2.244  53.580  1.00  0.00     0.160 C 
HETATM   13  C16 UNL     1      25.475   0.847  53.432  1.00  0.00     0.007 C 
HETATM   14  C17 UNL     1      26.315  -0.208  53.577  1.00  0.00     0.453 C 
HETATM   15  F1  UNL     1      26.028  -1.489  53.460  1.00  0.00    -0.451 F 
HETATM   16  H14 UNL     1      26.487   3.718  52.343  1.00  0.00     0.160 HD
ENDROOT
BRANCH   9  17
HETATM   17  N3  UNL     1      26.217   4.717  50.062  1.00  0.00    -0.369 N 
HETATM   18  H6  UNL     1      26.491   5.661  50.039  1.00  0.00     0.161 HD
BRANCH  17  19
HETATM   19  C7  UNL     1      27.135   4.400  48.979  1.00  0.00     0.160 C 
BRANCH  19  20
HETATM   20  C8  UNL     1      27.832   5.610  48.421  1.00  0.00    -0.041 A 
HETATM   21  C9  UNL     1      29.211   5.623  48.216  1.00  0.00     0.009 A 
HETATM   22  C10 UNL     1      29.960   6.679  47.725  1.00  0.00     0.001 A 
HETATM   23  C11 UNL     1      29.137   7.729  47.468  1.00  0.00     0.000 A 
HETATM   24  C12 UNL     1      27.785   7.941  47.592  1.00  0.00     0.001 A 
HETATM   25  C13 UNL     1      27.154   6.789  48.097  1.00  0.00     0.009 A 
ENDBRANCH  19  20
ENDBRANCH  17  19
ENDBRANCH   9  17
TORSDOF 3
ENDMDL
MODEL 3
REMARK VINA RESULT:      -8.2      3.392      5.658
REMARK  3 active torsions:
REMARK  status: ('A' for Active; 'I' for Inactive)
REMARK    1  A    between atoms: C6_9  and  N3_10 
REMARK    2  A    between atoms: N3_10  and  C7_11 
REMARK    3  A    between atoms: C7_11  and  C8_12 
ROOT
HETATM    1  C1  UNL     1      19.057   3.359  51.766  1.00  0.00     0.039 C 
HETATM    2  C2  UNL     1      20.471   3.800  51.510  1.00  0.00     0.007 C 
HETATM    3  C3  UNL     1      21.386   2.895  51.815  1.00  0.00     0.080 C 
HETATM    4  O1  UNL     1      20.952   1.680  52.319  1.00  0.00    -0.290 OA
HETATM    5  C4  UNL     1      21.622   0.779  53.148  1.00  0.00     0.202 A 
HETATM    6  N1  UNL     1      21.070   0.053  54.128  1.00  0.00    -0.215 NA
HETATM    7  C5  UNL     1      21.947  -0.755  54.795  1.00  0.00     0.238 A 
HETATM    8  N2  UNL     1      23.247  -0.851  54.535  1.00  0.00    -0.222 NA
HETATM    9  C6  UNL     1      23.979  -0.133  53.514  1.00  0.00     0.156 A 
HETATM   10  C14 UNL     1      22.929   0.489  53.106  1.00  0.00     0.128 A 
HETATM   11  N4  UNL     1      23.916   1.144  52.146  1.00  0.00    -0.379 N 
HETATM   12  C15 UNL     1      23.830   2.250  51.168  1.00  0.00     0.160 C 
HETATM   13  C16 UNL     1      22.801   3.225  51.600  1.00  0.00     0.007 C 
HETATM   14  C17 UNL     1      23.106   4.524  51.844  1.00  0.00     0.453 C 
HETATM   15  F1  UNL     1      22.292   5.482  52.241  1.00  0.00    -0.451 F 
HETATM   16  H14 UNL     1      24.937   0.841  52.053  1.00  0.00     0.160 HD
ENDROOT
BRANCH   9  17
HETATM   17  N3  UNL     1      25.092  -0.791  53.946  1.00  0.00    -0.369 N 
HETATM   18  H6  UNL     1      25.589  -1.144  54.717  1.00  0.00     0.161 HD
BRANCH  17  19
HETATM   19  C7  UNL     1      26.119  -1.272  53.034  1.00  0.00     0.160 C 
BRANCH  19  20
HETATM   20  C8  UNL     1      27.452  -0.608  53.242  1.00  0.00    -0.041 A 
HETATM   21  C9  UNL     1      28.632  -1.350  53.285  1.00  0.00     0.009 A 
HETATM   22  C10 UNL     1      29.909  -0.853  53.487  1.00  0.00     0.001 A 
HETATM   23  C11 UNL     1      29.844   0.495  53.642  1.00  0.00     0.000 A 
HETATM   24  C12 UNL     1      28.822   1.414  53.642  1.00  0.00     0.001 A 
HETATM   25  C13 UNL     1      27.589   0.771  53.425  1.00  0.00     0.009 A 
ENDBRANCH  19  20
ENDBRANCH  17  19
ENDBRANCH   9  17
TORSDOF 3
ENDMDL
MODEL 4
REMARK VINA RESULT:      -7.9      3.198      5.613
REMARK  3 active torsions:
REMARK  status: ('A' for Active; 'I' for Inactive)
REMARK    1  A    between atoms: C6_9  and  N3_10 
REMARK    2  A    between atoms: N3_10  and  C7_11 
REMARK    3  A    between atoms: C7_11  and  C8_12 
ROOT
HETATM    1  C1  UNL     1      18.505   3.922  51.182  1.00  0.00     0.039 C 
HETATM    2  C2  UNL     1      18.621   2.498  51.650  1.00  0.00     0.007 C 
HETATM    3  C3  UNL     1      19.814   2.178  52.124  1.00  0.00     0.080 C 
HETATM    4  O1  UNL     1      20.791   3.158  52.135  1.00  0.00    -0.290 OA
HETATM    5  C4  UNL     1      22.180   3.021  52.096  1.00  0.00     0.202 A 
HETATM    6  N1  UNL     1      23.031   3.826  51.448  1.00  0.00    -0.215 NA
HETATM    7  C5  UNL     1      24.345   3.471  51.566  1.00  0.00     0.238 A 
HETATM    8  N2  UNL     1      24.795   2.424  52.251  1.00  0.00    -0.222 NA
HETATM    9  C6  UNL     1      23.999   1.471  52.995  1.00  0.00     0.156 A 
HETATM   10  C14 UNL     1      22.895   2.060  52.694  1.00  0.00     0.128 A 
HETATM   11  N4  UNL     1      22.283   0.920  53.501  1.00  0.00    -0.379 N 
HETATM   12  C15 UNL     1      20.901   0.460  53.759  1.00  0.00     0.160 C 
HETATM   13  C16 UNL     1      20.031   0.809  52.611  1.00  0.00     0.007 C 
HETATM   14  C17 UNL     1      19.367  -0.139  51.905  1.00  0.00     0.453 C 
HETATM   15  F1  UNL     1      18.578   0.038  50.864  1.00  0.00    -0.451 F 
HETATM   16  H14 UNL     1      22.862   0.212  54.055  1.00  0.00     0.160 HD
ENDROOT
BRANCH   9  17
HETATM   17  N3  UNL     1      25.168   0.848  53.313  1.00  0.00    -0.369 N 
HETATM   18  H6  UNL     1      25.873   0.718  53.987  1.00  0.00     0.161 HD
BRANCH  17  19
HETATM   19  C7  UNL     1      25.836  -0.073  52.405  1.00  0.00     0.160 C 
BRANCH  19  20
HETATM   20  C8  UNL     1      27.228  -0.434  52.846  1.00  0.00    -0.041 A 
HETATM   21  C9  UNL     1      28.096   0.526  53.364  1.00  0.00     0.009 A 
HETATM   22  C10 UNL     1      29.399   0.315  53.785  1.00  0.00     0.001 A 
HETATM   23  C11 UNL     1      29.717  -0.994  53.614  1.00  0.00     0.000 A 
HETATM   24  C12 UNL     1      29.043  -2.091  53.131  1.00  0.00     0.001 A 
HETATM   25  C13 UNL     1      27.739  -1.731  52.745  1.00  0.00     0.009 A 
ENDBRANCH  19  20
ENDBRANCH  17  19
ENDBRANCH   9  17
TORSDOF 3
ENDMDL
MODEL 5
REMARK VINA RESULT:      -7.9      2.343      3.786
REMARK  3 active torsions:
REMARK  status: ('A' for Active; 'I' for Inactive)
REMARK    1  A    between atoms: C6_9  and  N3_10 
REMARK    2  A    between atoms: N3_10  and  C7_11 
REMARK    3  A    between atoms: C7_11  and  C8_12 
ROOT
HETATM    1  C1  UNL     1      22.018  -1.293  54.388  1.00  0.00     0.039 C 
HETATM    2  C2  UNL     1      23.365  -0.698  54.084  1.00  0.00     0.007 C 
HETATM    3  C3  UNL     1      23.315   0.510  53.547  1.00  0.00     0.080 C 
HETATM    4  O1  UNL     1      22.069   1.073  53.333  1.00  0.00    -0.290 OA
HETATM    5  C4  UNL     1      21.684   2.033  52.395  1.00  0.00     0.202 A 
HETATM    6  N1  UNL     1      20.516   2.067  51.740  1.00  0.00    -0.215 NA
HETATM    7  C5  UNL     1      20.387   3.114  50.871  1.00  0.00     0.238 A 
HETATM    8  N2  UNL     1      21.309   4.047  50.656  1.00  0.00    -0.222 NA
HETATM    9  C6  UNL     1      22.609   4.138  51.286  1.00  0.00     0.156 A 
HETATM   10  C14 UNL     1      22.415   3.079  51.990  1.00  0.00     0.128 A 
HETATM   11  N4  UNL     1      23.831   3.367  52.477  1.00  0.00    -0.379 N 
HETATM   12  C15 UNL     1      24.801   2.644  53.328  1.00  0.00     0.160 C 
HETATM   13  C16 UNL     1      24.578   1.183  53.215  1.00  0.00     0.007 C 
HETATM   14  C17 UNL     1      25.549   0.345  52.773  1.00  0.00     0.453 C 
HETATM   15  F1  UNL     1      25.475  -0.961  52.617  1.00  0.00    -0.451 F 
HETATM   16  H14 UNL     1      24.372   4.254  52.224  1.00  0.00     0.160 HD
ENDROOT
BRANCH   9  17
HETATM   17  N3  UNL     1      22.815   5.260  50.540  1.00  0.00    -0.369 N 
HETATM   18  H6  UNL     1      22.784   6.242  50.508  1.00  0.00     0.161 HD
BRANCH  17  19
HETATM   19  C7  UNL     1      23.290   5.209  49.165  1.00  0.00     0.160 C 
BRANCH  19  20
HETATM   20  C8  UNL     1      24.781   5.046  49.060  1.00  0.00    -0.041 A 
HETATM   21  C9  UNL     1      25.405   3.843  49.386  1.00  0.00     0.009 A 
HETATM   22  C10 UNL     1      26.764   3.582  49.344  1.00  0.00     0.001 A 
HETATM   23  C11 UNL     1      27.420   4.698  48.930  1.00  0.00     0.000 A 
HETATM   24  C12 UNL     1      27.026   5.964  48.567  1.00  0.00     0.001 A 
HETATM   25  C13 UNL     1      25.627   6.083  48.655  1.00  0.00     0.009 A 
ENDBRANCH  19  20
ENDBRANCH  17  19
ENDBRANCH   9  17
TORSDOF 3
ENDMDL
MODEL 6
REMARK VINA RESULT:      -7.8      3.002      6.611
REMARK  3 active torsions:
REMARK  status: ('A' for Active; 'I' for Inactive)
REMARK    1  A    between atoms: C6_9  and  N3_10 
REMARK    2  A    between atoms: N3_10  and  C7_11 
REMARK    3  A    between atoms: C7_11  and  C8_12 
ROOT
HETATM    1  C1  UNL     1      21.978   4.139  47.956  1.00  0.00     0.039 C 
HETATM    2  C2  UNL     1      23.290   4.844  48.163  1.00  0.00     0.007 C 
HETATM    3  C3  UNL     1      24.061   4.295  49.087  1.00  0.00     0.080 C 
HETATM    4  O1  UNL     1      23.590   3.168  49.738  1.00  0.00    -0.290 OA
HETATM    5  C4  UNL     1      23.905   2.687  51.010  1.00  0.00     0.202 A 
HETATM    6  N1  UNL     1      23.053   2.104  51.863  1.00  0.00    -0.215 NA
HETATM    7  C5  UNL     1      23.613   1.723  53.050  1.00  0.00     0.238 A 
HETATM    8  N2  UNL     1      24.889   1.895  53.382  1.00  0.00    -0.222 NA
HETATM    9  C6  UNL     1      25.919   2.507  52.569  1.00  0.00     0.156 A 
HETATM   10  C14 UNL     1      25.109   2.731  51.595  1.00  0.00     0.128 A 
HETATM   11  N4  UNL     1      26.342   3.361  50.958  1.00  0.00    -0.379 N 
HETATM   12  C15 UNL     1      26.586   4.144  49.727  1.00  0.00     0.160 C 
HETATM   13  C16 UNL     1      25.368   4.906  49.365  1.00  0.00     0.007 C 
HETATM   14  C17 UNL     1      25.373   6.259  49.274  1.00  0.00     0.453 C 
HETATM   15  F1  UNL     1      24.362   7.050  48.975  1.00  0.00    -0.451 F 
HETATM   16  H14 UNL     1      27.320   3.309  51.388  1.00  0.00     0.160 HD
ENDROOT
BRANCH   9  17
HETATM   17  N3  UNL     1      26.777   2.269  53.601  1.00  0.00    -0.369 N 
HETATM   18  H6  UNL     1      27.547   2.592  54.119  1.00  0.00     0.161 HD
BRANCH  17  19
HETATM   19  C7  UNL     1      26.692   1.076  54.430  1.00  0.00     0.160 C 
BRANCH  19  20
HETATM   20  C8  UNL     1      27.554  -0.052  53.934  1.00  0.00    -0.041 A 
HETATM   21  C9  UNL     1      28.927  -0.076  54.174  1.00  0.00     0.009 A 
HETATM   22  C10 UNL     1      29.819  -1.049  53.755  1.00  0.00     0.001 A 
HETATM   23  C11 UNL     1      29.147  -1.999  53.056  1.00  0.00     0.000 A 
HETATM   24  C12 UNL     1      27.831  -2.179  52.699  1.00  0.00     0.001 A 
HETATM   25  C13 UNL     1      27.044  -1.122  53.192  1.00  0.00     0.009 A 
ENDBRANCH  19  20
ENDBRANCH  17  19
ENDBRANCH   9  17
TORSDOF 3
ENDMDL
MODEL 7
REMARK VINA RESULT:      -7.8      3.703      7.463
REMARK  3 active torsions:
REMARK  status: ('A' for Active; 'I' for Inactive)
REMARK    1  A    between atoms: C6_9  and  N3_10 
REMARK    2  A    between atoms: N3_10  and  C7_11 
REMARK    3  A    between atoms: C7_11  and  C8_12 
ROOT
HETATM    1  C1  UNL     1      23.407   7.444  47.263  1.00  0.00     0.039 C 
HETATM    2  C2  UNL     1      24.880   7.359  47.552  1.00  0.00     0.007 C 
HETATM    3  C3  UNL     1      25.224   6.341  48.323  1.00  0.00     0.080 C 
HETATM    4  O1  UNL     1      24.221   5.494  48.763  1.00  0.00    -0.290 OA
HETATM    5  C4  UNL     1      24.181   4.694  49.907  1.00  0.00     0.202 A 
HETATM    6  N1  UNL     1      23.101   4.460  50.663  1.00  0.00    -0.215 NA
HETATM    7  C5  UNL     1      23.328   3.640  51.733  1.00  0.00     0.238 A 
HETATM    8  N2  UNL     1      24.501   3.096  52.043  1.00  0.00    -0.222 NA
HETATM    9  C6  UNL     1      25.746   3.260  51.325  1.00  0.00     0.156 A 
HETATM   10  C14 UNL     1      25.213   4.030  50.443  1.00  0.00     0.128 A 
HETATM   11  N4  UNL     1      26.633   4.077  49.892  1.00  0.00    -0.379 N 
HETATM   12  C15 UNL     1      27.306   4.850  48.826  1.00  0.00     0.160 C 
HETATM   13  C16 UNL     1      26.642   6.165  48.663  1.00  0.00     0.007 C 
HETATM   14  C17 UNL     1      27.316   7.330  48.833  1.00  0.00     0.453 C 
HETATM   15  F1  UNL     1      26.843   8.556  48.730  1.00  0.00    -0.451 F 
HETATM   16  H14 UNL     1      27.431   3.470  50.267  1.00  0.00     0.160 HD
ENDROOT
BRANCH   9  17
HETATM   17  N3  UNL     1      26.313   2.443  52.258  1.00  0.00    -0.369 N 
HETATM   18  H6  UNL     1      26.856   2.384  53.075  1.00  0.00     0.161 HD
BRANCH  17  19
HETATM   19  C7  UNL     1      26.174   0.995  52.217  1.00  0.00     0.160 C 
BRANCH  19  20
HETATM   20  C8  UNL     1      27.391   0.270  52.721  1.00  0.00    -0.041 A 
HETATM   21  C9  UNL     1      27.452  -1.123  52.732  1.00  0.00     0.009 A 
HETATM   22  C10 UNL     1      28.508  -1.896  53.186  1.00  0.00     0.001 A 
HETATM   23  C11 UNL     1      29.499  -1.082  53.631  1.00  0.00     0.000 A 
HETATM   24  C12 UNL     1      29.655   0.281  53.719  1.00  0.00     0.001 A 
HETATM   25  C13 UNL     1      28.513   0.936  53.223  1.00  0.00     0.009 A 
ENDBRANCH  19  20
ENDBRANCH  17  19
ENDBRANCH   9  17
TORSDOF 3
ENDMDL
MODEL 8
REMARK VINA RESULT:      -7.8      2.568      6.662
REMARK  3 active torsions:
REMARK  status: ('A' for Active; 'I' for Inactive)
REMARK    1  A    between atoms: C6_9  and  N3_10 
REMARK    2  A    between atoms: N3_10  and  C7_11 
REMARK    3  A    between atoms: C7_11  and  C8_12 
ROOT
HETATM    1  C1  UNL     1      27.202   4.723  48.951  1.00  0.00     0.039 C 
HETATM    2  C2  UNL     1      25.726   4.824  49.219  1.00  0.00     0.007 C 
HETATM    3  C3  UNL     1      25.299   4.049  50.202  1.00  0.00     0.080 C 
HETATM    4  O1  UNL     1      26.229   3.258  50.855  1.00  0.00    -0.290 OA
HETATM    5  C4  UNL     1      26.041   2.053  51.534  1.00  0.00     0.202 A 
HETATM    6  N1  UNL     1      26.889   1.017  51.544  1.00  0.00    -0.215 NA
HETATM    7  C5  UNL     1      26.468  -0.049  52.289  1.00  0.00     0.238 A 
HETATM    8  N2  UNL     1      25.324  -0.106  52.964  1.00  0.00    -0.222 NA
HETATM    9  C6  UNL     1      24.316   0.929  53.044  1.00  0.00     0.156 A 
HETATM   10  C14 UNL     1      24.983   1.729  52.288  1.00  0.00     0.128 A 
HETATM   11  N4  UNL     1      23.774   2.635  52.494  1.00  0.00    -0.379 N 
HETATM   12  C15 UNL     1      23.341   3.929  51.923  1.00  0.00     0.160 C 
HETATM   13  C16 UNL     1      23.871   4.074  50.547  1.00  0.00     0.007 C 
HETATM   14  C17 UNL     1      23.050   4.234  49.479  1.00  0.00     0.453 C 
HETATM   15  F1  UNL     1      23.392   4.362  48.212  1.00  0.00    -0.451 F 
HETATM   16  H14 UNL     1      22.978   2.410  53.171  1.00  0.00     0.160 HD
ENDROOT
BRANCH   9  17
HETATM   17  N3  UNL     1      23.609   0.083  53.846  1.00  0.00    -0.369 N 
HETATM   18  H6  UNL     1      23.370  -0.169  54.765  1.00  0.00     0.161 HD
BRANCH  17  19
HETATM   19  C7  UNL     1      22.778  -0.986  53.313  1.00  0.00     0.160 C 
BRANCH  19  20
HETATM   20  C8  UNL     1      21.494  -0.491  52.707  1.00  0.00    -0.041 A 
HETATM   21  C9  UNL     1      21.473   0.129  51.459  1.00  0.00     0.009 A 
HETATM   22  C10 UNL     1      20.359   0.638  50.812  1.00  0.00     0.001 A 
HETATM   23  C11 UNL     1      19.262   0.440  51.589  1.00  0.00     0.000 A 
HETATM   24  C12 UNL     1      19.049  -0.129  52.822  1.00  0.00     0.001 A 
HETATM   25  C13 UNL     1      20.261  -0.602  53.357  1.00  0.00     0.009 A 
ENDBRANCH  19  20
ENDBRANCH  17  19
ENDBRANCH   9  17
TORSDOF 3
ENDMDL
MODEL 9
REMARK VINA RESULT:      -7.6      4.252      8.171
REMARK  3 active torsions:
REMARK  status: ('A' for Active; 'I' for Inactive)
REMARK    1  A    between atoms: C6_9  and  N3_10 
REMARK    2  A    between atoms: N3_10  and  C7_11 
REMARK    3  A    between atoms: C7_11  and  C8_12 
ROOT
HETATM    1  C1  UNL     1      25.141   9.095  47.179  1.00  0.00     0.039 C 
HETATM    2  C2  UNL     1      26.542   8.673  47.525  1.00  0.00     0.007 C 
HETATM    3  C3  UNL     1      26.638   7.437  47.985  1.00  0.00     0.080 C 
HETATM    4  O1  UNL     1      25.476   6.693  48.092  1.00  0.00    -0.290 OA
HETATM    5  C4  UNL     1      25.185   5.628  48.947  1.00  0.00     0.202 A 
HETATM    6  N1  UNL     1      24.004   5.388  49.530  1.00  0.00    -0.215 NA
HETATM    7  C5  UNL     1      23.982   4.277  50.325  1.00  0.00     0.238 A 
HETATM    8  N2  UNL     1      25.016   3.469  50.538  1.00  0.00    -0.222 NA
HETATM    9  C6  UNL     1      26.345   3.602  49.981  1.00  0.00     0.156 A 
HETATM   10  C14 UNL     1      26.038   4.668  49.330  1.00  0.00     0.128 A 
HETATM   11  N4  UNL     1      27.502   4.613  48.911  1.00  0.00    -0.379 N 
HETATM   12  C15 UNL     1      28.400   5.520  48.163  1.00  0.00     0.160 C 
HETATM   13  C16 UNL     1      27.966   6.925  48.350  1.00  0.00     0.007 C 
HETATM   14  C17 UNL     1      28.785   7.857  48.897  1.00  0.00     0.453 C 
HETATM   15  F1  UNL     1      28.518   9.128  49.127  1.00  0.00    -0.451 F 
HETATM   16  H14 UNL     1      28.151   3.795  49.142  1.00  0.00     0.160 HD
ENDROOT
BRANCH   9  17
HETATM   17  N3  UNL     1      26.672   2.471  50.669  1.00  0.00    -0.369 N 
HETATM   18  H6  UNL     1      26.930   1.524  50.617  1.00  0.00     0.161 HD
BRANCH  17  19
HETATM   19  C7  UNL     1      26.725   2.429  52.123  1.00  0.00     0.160 C 
BRANCH  19  20
HETATM   20  C8  UNL     1      27.435   1.215  52.654  1.00  0.00    -0.041 A 
HETATM   21  C9  UNL     1      28.635   1.326  53.356  1.00  0.00     0.009 A 
HETATM   22  C10 UNL     1      29.384   0.283  53.875  1.00  0.00     0.001 A 
HETATM   23  C11 UNL     1      28.766  -0.893  53.594  1.00  0.00     0.000 A 
HETATM   24  C12 UNL     1      27.612  -1.238  52.931  1.00  0.00     0.001 A 
HETATM   25  C13 UNL     1      26.957  -0.084  52.462  1.00  0.00     0.009 A 
ENDBRANCH  19  20
ENDBRANCH  17  19
ENDBRANCH   9  17
TORSDOF 3
ENDMDL
