MODEL 1
REMARK VINA RESULT:      -9.4      0.000      0.000
REMARK  3 active torsions:
REMARK  status: ('A' for Active; 'I' for Inactive)
REMARK    1  A    between atoms: C11_13  and  O1_14 
REMARK    2  A    between atoms: C17_22  and  C18_23 
REMARK    3  A    between atoms: C19_24  and  C20_25 
ROOT
HETATM    1  C1  UNL     1      21.714   1.686  49.045  1.00  0.00     0.033 C 
HETATM    2  C2  UNL     1      22.269   1.182  50.348  1.00  0.00     0.015 C 
HETATM    3  C3  UNL     1      23.051   0.966  51.380  1.00  0.00     0.104 C 
HETATM    4  C4  UNL     1      24.395   1.418  51.826  1.00  0.00    -0.010 C 
HETATM    5  C5  UNL     1      24.308   0.675  52.948  1.00  0.00    -0.043 C 
HETATM    6  C6  UNL     1      23.117  -0.168  53.246  1.00  0.00     0.117 C 
HETATM    7  C7  UNL     1      23.351  -1.060  54.407  1.00  0.00     0.109 C 
HETATM    8  N1  UNL     1      22.235  -1.597  54.846  1.00  0.00    -0.228 NA
HETATM    9  C8  UNL     1      21.002  -1.266  54.177  1.00  0.00     0.235 C 
HETATM   10  N2  UNL     1      20.137  -0.357  53.995  1.00  0.00    -0.241 NA
HETATM   11  C9  UNL     1      18.991  -0.525  53.168  1.00  0.00     0.068 A 
HETATM   12  C10 UNL     1      17.891  -1.305  53.456  1.00  0.00     0.068 A 
HETATM   13  C11 UNL     1      16.818  -1.428  52.614  1.00  0.00     0.068 A 
HETATM   14  C12 UNL     1      16.807  -0.753  51.411  1.00  0.00     0.037 A 
HETATM   15  C13 UNL     1      17.910   0.013  51.149  1.00  0.00     0.014 A 
HETATM   16  C14 UNL     1      19.028   0.170  51.978  1.00  0.00    -0.012 A 
HETATM   17  C15 UNL     1      20.128   1.041  51.537  1.00  0.00     0.155 C 
HETATM   18  N3  UNL     1      21.164   0.370  50.784  1.00  0.00    -0.412 N 
HETATM   19  N4  UNL     1      24.636  -1.286  54.931  1.00  0.00    -0.353 N 
HETATM   20  C16 UNL     1      25.636  -0.331  54.639  1.00  0.00     0.101 C 
HETATM   21  C17 UNL     1      25.409   0.731  53.918  1.00  0.00    -0.015 C 
HETATM   22  H15 UNL     1      21.203  -0.637  50.514  1.00  0.00     0.153 HD
HETATM   23  H16 UNL     1      24.654  -2.167  55.483  1.00  0.00     0.166 HD
ENDROOT
BRANCH  21  24
HETATM   24  C18 UNL     1      26.148   1.971  53.998  1.00  0.00     0.010 C 
HETATM   25  C19 UNL     1      27.340   2.461  53.749  1.00  0.00    -0.015 C 
BRANCH  25  26
HETATM   26  C20 UNL     1      28.623   1.969  53.226  1.00  0.00     0.112 C 
HETATM   27 BR1  UNL     1      29.160   0.285  54.037  1.00  0.00    -0.092 Br
ENDBRANCH  25  26
ENDBRANCH  21  24
BRANCH  13  28
HETATM   28  O1  UNL     1      15.740  -2.221  52.949  1.00  0.00    -0.361 OA
HETATM   29  H10 UNL     1      15.744  -3.223  52.864  1.00  0.00     0.217 HD
ENDBRANCH  13  28
TORSDOF 3
ENDMDL
MODEL 2
REMARK VINA RESULT:      -9.1      4.010      7.560
REMARK  3 active torsions:
REMARK  status: ('A' for Active; 'I' for Inactive)
REMARK    1  A    between atoms: C11_13  and  O1_14 
REMARK    2  A    between atoms: C17_22  and  C18_23 
REMARK    3  A    between atoms: C19_24  and  C20_25 
ROOT
HETATM    1  C1  UNL     1      22.444   4.334  51.342  1.00  0.00     0.033 C 
HETATM    2  C2  UNL     1      21.767   3.061  51.769  1.00  0.00     0.015 C 
HETATM    3  C3  UNL     1      20.895   2.092  51.916  1.00  0.00     0.104 C 
HETATM    4  C4  UNL     1      19.531   1.784  51.411  1.00  0.00    -0.010 C 
HETATM    5  C5  UNL     1      19.501   0.626  52.101  1.00  0.00    -0.043 C 
HETATM    6  C6  UNL     1      20.640   0.188  52.956  1.00  0.00     0.117 C 
HETATM    7  C7  UNL     1      20.283  -0.989  53.785  1.00  0.00     0.109 C 
HETATM    8  N1  UNL     1      21.342  -1.547  54.326  1.00  0.00    -0.228 NA
HETATM    9  C8  UNL     1      22.637  -0.972  54.057  1.00  0.00     0.235 C 
HETATM   10  N2  UNL     1      23.539  -0.824  53.178  1.00  0.00    -0.241 NA
HETATM   11  C9  UNL     1      24.746  -0.107  53.413  1.00  0.00     0.068 A 
HETATM   12  C10 UNL     1      25.795  -0.524  54.204  1.00  0.00     0.068 A 
HETATM   13  C11 UNL     1      26.932   0.216  54.393  1.00  0.00     0.068 A 
HETATM   14  C12 UNL     1      27.064   1.443  53.777  1.00  0.00     0.037 A 
HETATM   15  C13 UNL     1      26.009   1.834  53.000  1.00  0.00     0.014 A 
HETATM   16  C14 UNL     1      24.829   1.113  52.776  1.00  0.00    -0.012 A 
HETATM   17  C15 UNL     1      23.794   1.687  51.903  1.00  0.00     0.155 C 
HETATM   18  N3  UNL     1      22.808   2.495  52.584  1.00  0.00    -0.412 N 
HETATM   19  N4  UNL     1      18.953  -1.410  53.955  1.00  0.00    -0.353 N 
HETATM   20  C16 UNL     1      18.008  -0.990  52.992  1.00  0.00     0.101 C 
HETATM   21  C17 UNL     1      18.324  -0.242  51.973  1.00  0.00    -0.015 C 
HETATM   22  H15 UNL     1      22.765   2.720  53.603  1.00  0.00     0.153 HD
HETATM   23  H16 UNL     1      18.863  -1.999  54.807  1.00  0.00     0.166 HD
ENDROOT
BRANCH  21  24
HETATM   24  C18 UNL     1      17.616  -0.201  50.713  1.00  0.00     0.010 C 
HETATM   25  C19 UNL     1      16.414   0.015  50.230  1.00  0.00    -0.015 C 
BRANCH  25  26
HETATM   26  C20 UNL     1      15.082   0.346  50.756  1.00  0.00     0.112 C 
HETATM   27 BR1  UNL     1      15.140   1.756  52.094  1.00  0.00    -0.092 Br
ENDBRANCH  25  26
ENDBRANCH  21  24
BRANCH  13  28
HETATM   28  O1  UNL     1      27.956  -0.248  55.194  1.00  0.00    -0.361 OA
HETATM   29  H10 UNL     1      28.265  -1.204  55.197  1.00  0.00     0.217 HD
ENDBRANCH  13  28
TORSDOF 3
ENDMDL
MODEL 3
REMARK VINA RESULT:      -8.8      3.725      5.067
REMARK  3 active torsions:
REMARK  status: ('A' for Active; 'I' for Inactive)
REMARK    1  A    between atoms: C11_13  and  O1_14 
REMARK    2  A    between atoms: C17_22  and  C18_23 
REMARK    3  A    between atoms: C19_24  and  C20_25 
ROOT
HETATM    1  C1  UNL     1      27.014   4.265  49.161  1.00  0.00     0.033 C 
HETATM    2  C2  UNL     1      26.417   3.373  50.214  1.00  0.00     0.015 C 
HETATM    3  C3  UNL     1      26.271   2.517  51.197  1.00  0.00     0.104 C 
HETATM    4  C4  UNL     1      27.168   1.708  52.065  1.00  0.00    -0.010 C 
HETATM    5  C5  UNL     1      26.113   1.184  52.722  1.00  0.00    -0.043 C 
HETATM    6  C6  UNL     1      24.710   1.546  52.379  1.00  0.00     0.117 C 
HETATM    7  C7  UNL     1      23.732   0.676  53.076  1.00  0.00     0.109 C 
HETATM    8  N1  UNL     1      22.510   1.155  53.001  1.00  0.00    -0.228 NA
HETATM    9  C8  UNL     1      22.297   2.391  52.291  1.00  0.00     0.235 C 
HETATM   10  N2  UNL     1      22.461   3.648  52.333  1.00  0.00    -0.241 NA
HETATM   11  C9  UNL     1      22.043   4.523  51.291  1.00  0.00     0.068 A 
HETATM   12  C10 UNL     1      20.741   4.855  50.985  1.00  0.00     0.068 A 
HETATM   13  C11 UNL     1      20.404   5.704  49.964  1.00  0.00     0.068 A 
HETATM   14  C12 UNL     1      21.392   6.270  49.185  1.00  0.00     0.037 A 
HETATM   15  C13 UNL     1      22.675   5.924  49.510  1.00  0.00     0.014 A 
HETATM   16  C14 UNL     1      23.068   5.063  50.542  1.00  0.00    -0.012 A 
HETATM   17  C15 UNL     1      24.500   4.805  50.753  1.00  0.00     0.155 C 
HETATM   18  N3  UNL     1      25.023   3.672  50.023  1.00  0.00    -0.412 N 
HETATM   19  N4  UNL     1      24.112  -0.517  53.713  1.00  0.00    -0.353 N 
HETATM   20  C16 UNL     1      25.471  -0.662  54.069  1.00  0.00     0.101 C 
HETATM   21  C17 UNL     1      26.365   0.257  53.833  1.00  0.00    -0.015 C 
HETATM   22  H15 UNL     1      24.506   3.045  49.368  1.00  0.00     0.153 HD
HETATM   23  H16 UNL     1      23.290  -1.144  53.832  1.00  0.00     0.166 HD
ENDROOT
BRANCH  21  24
HETATM   24  C18 UNL     1      27.585   0.450  54.582  1.00  0.00     0.010 C 
HETATM   25  C19 UNL     1      28.861   0.142  54.544  1.00  0.00    -0.015 C 
BRANCH  25  26
HETATM   26  C20 UNL     1      29.764  -0.610  53.659  1.00  0.00     0.112 C 
HETATM   27 BR1  UNL     1      29.001  -2.303  53.082  1.00  0.00    -0.092 Br
ENDBRANCH  25  26
ENDBRANCH  21  24
BRANCH  13  28
HETATM   28  O1  UNL     1      19.083   6.005  49.698  1.00  0.00    -0.361 OA
HETATM   29  H10 UNL     1      18.792   6.848  49.234  1.00  0.00     0.217 HD
ENDBRANCH  13  28
TORSDOF 3
ENDMDL
MODEL 4
REMARK VINA RESULT:      -8.8      4.245      5.730
REMARK  3 active torsions:
REMARK  status: ('A' for Active; 'I' for Inactive)
REMARK    1  A    between atoms: C11_13  and  O1_14 
REMARK    2  A    between atoms: C17_22  and  C18_23 
REMARK    3  A    between atoms: C19_24  and  C20_25 
ROOT
HETATM    1  C1  UNL     1      20.207   1.635  48.977  1.00  0.00     0.033 C 
HETATM    2  C2  UNL     1      21.569   2.181  49.305  1.00  0.00     0.015 C 
HETATM    3  C3  UNL     1      22.658   2.912  49.315  1.00  0.00     0.104 C 
HETATM    4  C4  UNL     1      23.160   4.108  48.588  1.00  0.00    -0.010 C 
HETATM    5  C5  UNL     1      24.318   4.082  49.280  1.00  0.00    -0.043 C 
HETATM    6  C6  UNL     1      24.598   3.045  50.311  1.00  0.00     0.117 C 
HETATM    7  C7  UNL     1      26.011   3.085  50.762  1.00  0.00     0.109 C 
HETATM    8  N1  UNL     1      26.198   2.375  51.851  1.00  0.00    -0.228 NA
HETATM    9  C8  UNL     1      25.069   1.689  52.429  1.00  0.00     0.235 C 
HETATM   10  N2  UNL     1      23.990   1.839  53.078  1.00  0.00    -0.241 NA
HETATM   11  C9  UNL     1      23.141   0.756  53.441  1.00  0.00     0.068 A 
HETATM   12  C10 UNL     1      23.409  -0.196  54.400  1.00  0.00     0.068 A 
HETATM   13  C11 UNL     1      22.550  -1.219  54.702  1.00  0.00     0.068 A 
HETATM   14  C12 UNL     1      21.350  -1.330  54.030  1.00  0.00     0.037 A 
HETATM   15  C13 UNL     1      21.109  -0.373  53.083  1.00  0.00     0.014 A 
HETATM   16  C14 UNL     1      21.955   0.689  52.741  1.00  0.00    -0.012 A 
HETATM   17  C15 UNL     1      21.532   1.633  51.695  1.00  0.00     0.155 C 
HETATM   18  N3  UNL     1      21.946   1.275  50.357  1.00  0.00    -0.412 N 
HETATM   19  N4  UNL     1      26.999   3.801  50.065  1.00  0.00    -0.353 N 
HETATM   20  C16 UNL     1      26.569   4.830  49.198  1.00  0.00     0.101 C 
HETATM   21  C17 UNL     1      25.313   5.133  49.029  1.00  0.00    -0.015 C 
HETATM   22  H15 UNL     1      22.486   0.432  50.062  1.00  0.00     0.153 HD
HETATM   23  H16 UNL     1      27.945   3.445  50.308  1.00  0.00     0.166 HD
ENDROOT
BRANCH  21  24
HETATM   24  C18 UNL     1      24.810   6.426  48.624  1.00  0.00     0.010 C 
HETATM   25  C19 UNL     1      24.168   7.464  49.108  1.00  0.00    -0.015 C 
BRANCH  25  26
HETATM   26  C20 UNL     1      23.592   7.871  50.398  1.00  0.00     0.112 C 
HETATM   27 BR1  UNL     1      21.759   7.261  50.621  1.00  0.00    -0.092 Br
ENDBRANCH  25  26
ENDBRANCH  21  24
BRANCH  13  28
HETATM   28  O1  UNL     1      22.864  -2.148  55.673  1.00  0.00    -0.361 OA
HETATM   29  H10 UNL     1      22.173  -2.621  56.229  1.00  0.00     0.217 HD
ENDBRANCH  13  28
TORSDOF 3
ENDMDL
MODEL 5
REMARK VINA RESULT:      -8.5      9.583     12.321
REMARK  3 active torsions:
REMARK  status: ('A' for Active; 'I' for Inactive)
REMARK    1  A    between atoms: C11_13  and  O1_14 
REMARK    2  A    between atoms: C17_22  and  C18_23 
REMARK    3  A    between atoms: C19_24  and  C20_25 
ROOT
HETATM    1  C1  UNL     1      31.966   5.181  48.651  1.00  0.00     0.033 C 
HETATM    2  C2  UNL     1      31.415   6.580  48.663  1.00  0.00     0.015 C 
HETATM    3  C3  UNL     1      31.291   7.881  48.546  1.00  0.00     0.104 C 
HETATM    4  C4  UNL     1      32.157   9.012  48.121  1.00  0.00    -0.010 C 
HETATM    5  C5  UNL     1      31.165   9.898  48.344  1.00  0.00    -0.043 C 
HETATM    6  C6  UNL     1      29.829   9.475  48.850  1.00  0.00     0.117 C 
HETATM    7  C7  UNL     1      28.993  10.640  49.232  1.00  0.00     0.109 C 
HETATM    8  N1  UNL     1      27.736  10.302  49.413  1.00  0.00    -0.228 NA
HETATM    9  C8  UNL     1      27.359   8.923  49.226  1.00  0.00     0.235 C 
HETATM   10  N2  UNL     1      27.163   8.013  48.365  1.00  0.00    -0.241 NA
HETATM   11  C9  UNL     1      26.767   6.689  48.706  1.00  0.00     0.068 A 
HETATM   12  C10 UNL     1      25.526   6.309  49.169  1.00  0.00     0.068 A 
HETATM   13  C11 UNL     1      25.207   5.015  49.484  1.00  0.00     0.068 A 
HETATM   14  C12 UNL     1      26.152   4.020  49.343  1.00  0.00     0.037 A 
HETATM   15  C13 UNL     1      27.375   4.424  48.883  1.00  0.00     0.014 A 
HETATM   16  C14 UNL     1      27.747   5.732  48.548  1.00  0.00    -0.012 A 
HETATM   17  C15 UNL     1      29.112   5.986  48.063  1.00  0.00     0.155 C 
HETATM   18  N3  UNL     1      30.070   6.306  49.096  1.00  0.00    -0.412 N 
HETATM   19  N4  UNL     1      29.530  11.929  49.386  1.00  0.00    -0.353 N 
HETATM   20  C16 UNL     1      30.764  12.201  48.753  1.00  0.00     0.101 C 
HETATM   21  C17 UNL     1      31.404  11.315  48.044  1.00  0.00    -0.015 C 
HETATM   22  H15 UNL     1      29.902   6.358  50.125  1.00  0.00     0.153 HD
HETATM   23  H16 UNL     1      28.904  12.516  49.973  1.00  0.00     0.166 HD
ENDROOT
BRANCH  21  24
HETATM   24  C18 UNL     1      32.329  11.609  46.972  1.00  0.00     0.010 C 
HETATM   25  C19 UNL     1      32.392  11.626  45.661  1.00  0.00    -0.015 C 
BRANCH  25  26
HETATM   26  C20 UNL     1      31.494  11.334  44.533  1.00  0.00     0.112 C 
HETATM   27 BR1  UNL     1      30.999   9.456  44.442  1.00  0.00    -0.092 Br
ENDBRANCH  25  26
ENDBRANCH  21  24
BRANCH  13  28
HETATM   28  O1  UNL     1      23.948   4.686  49.943  1.00  0.00    -0.361 OA
HETATM   29  H10 UNL     1      23.151   5.291  49.852  1.00  0.00     0.217 HD
ENDBRANCH  13  28
TORSDOF 3
ENDMDL
MODEL 6
REMARK VINA RESULT:      -8.3      4.146      5.259
REMARK  3 active torsions:
REMARK  status: ('A' for Active; 'I' for Inactive)
REMARK    1  A    between atoms: C11_13  and  O1_14 
REMARK    2  A    between atoms: C17_22  and  C18_23 
REMARK    3  A    between atoms: C19_24  and  C20_25 
ROOT
HETATM    1  C1  UNL     1      19.898   2.658  48.382  1.00  0.00     0.033 C 
HETATM    2  C2  UNL     1      21.301   2.912  48.859  1.00  0.00     0.015 C 
HETATM    3  C3  UNL     1      22.505   3.412  49.005  1.00  0.00     0.104 C 
HETATM    4  C4  UNL     1      23.299   4.508  48.390  1.00  0.00    -0.010 C 
HETATM    5  C5  UNL     1      24.355   4.232  49.181  1.00  0.00    -0.043 C 
HETATM    6  C6  UNL     1      24.325   3.126  50.179  1.00  0.00     0.117 C 
HETATM    7  C7  UNL     1      25.667   2.871  50.757  1.00  0.00     0.109 C 
HETATM    8  N1  UNL     1      25.604   2.102  51.821  1.00  0.00    -0.228 NA
HETATM    9  C8  UNL     1      24.312   1.635  52.258  1.00  0.00     0.235 C 
HETATM   10  N2  UNL     1      23.224   1.975  52.813  1.00  0.00    -0.241 NA
HETATM   11  C9  UNL     1      22.150   1.069  53.042  1.00  0.00     0.068 A 
HETATM   12  C10 UNL     1      22.132   0.052  53.971  1.00  0.00     0.068 A 
HETATM   13  C11 UNL     1      21.065  -0.790  54.140  1.00  0.00     0.068 A 
HETATM   14  C12 UNL     1      19.939  -0.639  53.357  1.00  0.00     0.037 A 
HETATM   15  C13 UNL     1      19.983   0.377  52.443  1.00  0.00     0.014 A 
HETATM   16  C14 UNL     1      21.048   1.261  52.234  1.00  0.00    -0.012 A 
HETATM   17  C15 UNL     1      20.922   2.304  51.205  1.00  0.00     0.155 C 
HETATM   18  N3  UNL     1      21.389   1.916  49.893  1.00  0.00    -0.412 N 
HETATM   19  N4  UNL     1      26.840   3.399  50.190  1.00  0.00    -0.353 N 
HETATM   20  C16 UNL     1      26.706   4.521  49.342  1.00  0.00     0.101 C 
HETATM   21  C17 UNL     1      25.555   5.072  49.076  1.00  0.00    -0.015 C 
HETATM   22  H15 UNL     1      21.782   0.992  49.605  1.00  0.00     0.153 HD
HETATM   23  H16 UNL     1      27.670   2.855  50.499  1.00  0.00     0.166 HD
ENDROOT
BRANCH  21  24
HETATM   24  C18 UNL     1      25.355   6.452  48.694  1.00  0.00     0.010 C 
HETATM   25  C19 UNL     1      26.015   7.581  48.582  1.00  0.00    -0.015 C 
BRANCH  25  26
HETATM   26  C20 UNL     1      27.390   8.054  48.803  1.00  0.00     0.112 C 
HETATM   27 BR1  UNL     1      28.631   7.390  47.461  1.00  0.00    -0.092 Br
ENDBRANCH  25  26
ENDBRANCH  21  24
BRANCH  13  28
HETATM   28  O1  UNL     1      21.095  -1.794  55.086  1.00  0.00    -0.361 OA
HETATM   29  H10 UNL     1      20.528  -2.622  55.032  1.00  0.00     0.217 HD
ENDBRANCH  13  28
TORSDOF 3
ENDMDL
MODEL 7
REMARK VINA RESULT:      -8.2      5.453      8.260
REMARK  3 active torsions:
REMARK  status: ('A' for Active; 'I' for Inactive)
REMARK    1  A    between atoms: C11_13  and  O1_14 
REMARK    2  A    between atoms: C17_22  and  C18_23 
REMARK    3  A    between atoms: C19_24  and  C20_25 
ROOT
HETATM    1  C1  UNL     1      27.906   4.865  48.600  1.00  0.00     0.033 C 
HETATM    2  C2  UNL     1      26.524   5.270  49.034  1.00  0.00     0.015 C 
HETATM    3  C3  UNL     1      25.353   5.856  49.106  1.00  0.00     0.104 C 
HETATM    4  C4  UNL     1      24.616   6.889  48.331  1.00  0.00    -0.010 C 
HETATM    5  C5  UNL     1      23.556   6.802  49.160  1.00  0.00    -0.043 C 
HETATM    6  C6  UNL     1      23.542   5.877  50.327  1.00  0.00     0.117 C 
HETATM    7  C7  UNL     1      22.377   6.126  51.212  1.00  0.00     0.109 C 
HETATM    8  N1  UNL     1      22.203   5.154  52.078  1.00  0.00    -0.228 NA
HETATM    9  C8  UNL     1      23.116   4.038  52.054  1.00  0.00     0.235 C 
HETATM   10  N2  UNL     1      23.461   2.998  51.415  1.00  0.00    -0.241 NA
HETATM   11  C9  UNL     1      24.520   2.144  51.831  1.00  0.00     0.068 A 
HETATM   12  C10 UNL     1      24.494   1.289  52.912  1.00  0.00     0.068 A 
HETATM   13  C11 UNL     1      25.552   0.492  53.263  1.00  0.00     0.068 A 
HETATM   14  C12 UNL     1      26.714   0.524  52.520  1.00  0.00     0.037 A 
HETATM   15  C13 UNL     1      26.713   1.381  51.454  1.00  0.00     0.014 A 
HETATM   16  C14 UNL     1      25.659   2.213  51.057  1.00  0.00    -0.012 A 
HETATM   17  C15 UNL     1      25.831   3.073  49.876  1.00  0.00     0.155 C 
HETATM   18  N3  UNL     1      26.357   4.389  50.160  1.00  0.00    -0.412 N 
HETATM   19  N4  UNL     1      21.593   7.288  51.107  1.00  0.00    -0.353 N 
HETATM   20  C16 UNL     1      21.640   7.999  49.887  1.00  0.00     0.101 C 
HETATM   21  C17 UNL     1      22.369   7.619  48.876  1.00  0.00    -0.015 C 
HETATM   22  H15 UNL     1      26.634   4.777  51.088  1.00  0.00     0.153 HD
HETATM   23  H16 UNL     1      21.069   7.453  51.990  1.00  0.00     0.166 HD
ENDROOT
BRANCH  21  24
HETATM   24  C18 UNL     1      22.104   7.927  47.489  1.00  0.00     0.010 C 
HETATM   25  C19 UNL     1      21.554   7.401  46.419  1.00  0.00    -0.015 C 
BRANCH  25  26
HETATM   26  C20 UNL     1      20.882   6.144  46.057  1.00  0.00     0.112 C 
HETATM   27 BR1  UNL     1      21.940   4.577  46.510  1.00  0.00    -0.092 Br
ENDBRANCH  25  26
ENDBRANCH  21  24
BRANCH  13  28
HETATM   28  O1  UNL     1      25.476  -0.349  54.354  1.00  0.00    -0.361 OA
HETATM   29  H10 UNL     1      24.706  -0.347  55.001  1.00  0.00     0.217 HD
ENDBRANCH  13  28
TORSDOF 3
ENDMDL
MODEL 8
REMARK VINA RESULT:      -8.2      4.070      8.186
REMARK  3 active torsions:
REMARK  status: ('A' for Active; 'I' for Inactive)
REMARK    1  A    between atoms: C11_13  and  O1_14 
REMARK    2  A    between atoms: C17_22  and  C18_23 
REMARK    3  A    between atoms: C19_24  and  C20_25 
ROOT
HETATM    1  C1  UNL     1      22.095  -1.822  54.861  1.00  0.00     0.033 C 
HETATM    2  C2  UNL     1      21.276  -1.147  53.795  1.00  0.00     0.015 C 
HETATM    3  C3  UNL     1      20.273  -0.733  53.057  1.00  0.00     0.104 C 
HETATM    4  C4  UNL     1      18.797  -0.906  53.051  1.00  0.00    -0.010 C 
HETATM    5  C5  UNL     1      18.677  -0.128  51.956  1.00  0.00    -0.043 C 
HETATM    6  C6  UNL     1      19.861   0.483  51.290  1.00  0.00     0.117 C 
HETATM    7  C7  UNL     1      19.504   1.096  49.987  1.00  0.00     0.109 C 
HETATM    8  N1  UNL     1      20.464   1.868  49.529  1.00  0.00    -0.228 NA
HETATM    9  C8  UNL     1      21.667   2.008  50.310  1.00  0.00     0.235 C 
HETATM   10  N2  UNL     1      22.167   2.523  51.356  1.00  0.00    -0.241 NA
HETATM   11  C9  UNL     1      23.529   2.357  51.732  1.00  0.00     0.068 A 
HETATM   12  C10 UNL     1      24.617   2.932  51.111  1.00  0.00     0.068 A 
HETATM   13  C11 UNL     1      25.908   2.729  51.521  1.00  0.00     0.068 A 
HETATM   14  C12 UNL     1      26.166   1.914  52.604  1.00  0.00     0.037 A 
HETATM   15  C13 UNL     1      25.070   1.356  53.202  1.00  0.00     0.014 A 
HETATM   16  C14 UNL     1      23.734   1.534  52.820  1.00  0.00    -0.012 A 
HETATM   17  C15 UNL     1      22.675   0.856  53.582  1.00  0.00     0.155 C 
HETATM   18  N3  UNL     1      22.321  -0.456  53.089  1.00  0.00    -0.412 N 
HETATM   19  N4  UNL     1      18.278   0.838  49.350  1.00  0.00    -0.353 N 
HETATM   20  C16 UNL     1      17.217   0.356  50.148  1.00  0.00     0.101 C 
HETATM   21  C17 UNL     1      17.335   0.149  51.429  1.00  0.00    -0.015 C 
HETATM   22  H15 UNL     1      22.738  -0.964  52.278  1.00  0.00     0.153 HD
HETATM   23  H16 UNL     1      18.343   1.055  48.335  1.00  0.00     0.166 HD
ENDROOT
BRANCH  21  24
HETATM   24  C18 UNL     1      16.251   0.179  52.386  1.00  0.00     0.010 C 
HETATM   25  C19 UNL     1      15.184   0.879  52.690  1.00  0.00    -0.015 C 
BRANCH  25  26
HETATM   26  C20 UNL     1      14.495   2.075  52.180  1.00  0.00     0.112 C 
HETATM   27 BR1  UNL     1      15.685   3.603  52.008  1.00  0.00    -0.092 Br
ENDBRANCH  25  26
ENDBRANCH  21  24
BRANCH  13  28
HETATM   28  O1  UNL     1      26.964   3.329  50.865  1.00  0.00    -0.361 OA
HETATM   29  H10 UNL     1      27.246   4.280  51.027  1.00  0.00     0.217 HD
ENDBRANCH  13  28
TORSDOF 3
ENDMDL
MODEL 9
REMARK VINA RESULT:      -8.0      4.282      8.119
REMARK  3 active torsions:
REMARK  status: ('A' for Active; 'I' for Inactive)
REMARK    1  A    between atoms: C11_13  and  O1_14 
REMARK    2  A    between atoms: C17_22  and  C18_23 
REMARK    3  A    between atoms: C19_24  and  C20_25 
ROOT
HETATM    1  C1  UNL     1      22.543  -1.639  54.792  1.00  0.00     0.033 C 
HETATM    2  C2  UNL     1      22.498  -0.564  53.741  1.00  0.00     0.015 C 
HETATM    3  C3  UNL     1      22.078   0.343  52.892  1.00  0.00     0.104 C 
HETATM    4  C4  UNL     1      20.766   0.903  52.474  1.00  0.00    -0.010 C 
HETATM    5  C5  UNL     1      21.363   1.734  51.595  1.00  0.00    -0.043 C 
HETATM    6  C6  UNL     1      22.840   1.756  51.410  1.00  0.00     0.117 C 
HETATM    7  C7  UNL     1      23.235   2.575  50.238  1.00  0.00     0.109 C 
HETATM    8  N1  UNL     1      24.524   2.828  50.228  1.00  0.00    -0.228 NA
HETATM    9  C8  UNL     1      25.337   2.303  51.297  1.00  0.00     0.235 C 
HETATM   10  N2  UNL     1      25.631   2.422  52.525  1.00  0.00    -0.241 NA
HETATM   11  C9  UNL     1      26.580   1.589  53.183  1.00  0.00     0.068 A 
HETATM   12  C10 UNL     1      27.947   1.622  53.007  1.00  0.00     0.068 A 
HETATM   13  C11 UNL     1      28.808   0.789  53.670  1.00  0.00     0.068 A 
HETATM   14  C12 UNL     1      28.316  -0.140  54.564  1.00  0.00     0.037 A 
HETATM   15  C13 UNL     1      26.957  -0.152  54.719  1.00  0.00     0.014 A 
HETATM   16  C14 UNL     1      26.038   0.679  54.065  1.00  0.00    -0.012 A 
HETATM   17  C15 UNL     1      24.605   0.530  54.358  1.00  0.00     0.155 C 
HETATM   18  N3  UNL     1      23.907  -0.402  53.501  1.00  0.00    -0.412 N 
HETATM   19  N4  UNL     1      22.305   2.995  49.271  1.00  0.00    -0.353 N 
HETATM   20  C16 UNL     1      20.942   3.015  49.642  1.00  0.00     0.101 C 
HETATM   21  C17 UNL     1      20.528   2.666  50.827  1.00  0.00    -0.015 C 
HETATM   22  H15 UNL     1      24.308  -0.975  52.727  1.00  0.00     0.153 HD
HETATM   23  H16 UNL     1      22.789   3.241  48.384  1.00  0.00     0.166 HD
ENDROOT
BRANCH  21  24
HETATM   24  C18 UNL     1      19.314   3.130  51.460  1.00  0.00     0.010 C 
HETATM   25  C19 UNL     1      18.012   2.978  51.393  1.00  0.00    -0.015 C 
BRANCH  25  26
HETATM   26  C20 UNL     1      17.054   2.207  50.586  1.00  0.00     0.112 C 
HETATM   27 BR1  UNL     1      17.573   0.343  50.396  1.00  0.00    -0.092 Br
ENDBRANCH  25  26
ENDBRANCH  21  24
BRANCH  13  28
HETATM   28  O1  UNL     1      30.170   0.862  53.459  1.00  0.00    -0.361 OA
HETATM   29  H10 UNL     1      30.799   1.350  54.073  1.00  0.00     0.217 HD
ENDBRANCH  13  28
TORSDOF 3
ENDMDL
