MODEL 1
REMARK VINA RESULT:      -8.1      0.000      0.000
REMARK  4 active torsions:
REMARK  status: ('A' for Active; 'I' for Inactive)
REMARK    1  A    between atoms: O1_2  and  N1_3 
REMARK    2  A    between atoms: N1_3  and  C2_4 
REMARK    3  A    between atoms: C3_5  and  O2_6 
REMARK    4  A    between atoms: C12_18  and  N3_19 
ROOT
HETATM    1  C2  UNL     1      21.692   2.354  51.253  1.00  0.00     0.057 C 
HETATM    2  C3  UNL     1      22.450   3.021  50.327  1.00  0.00     0.170 A 
HETATM    3  C5  UNL     1      23.154   3.016  49.047  1.00  0.00     0.009 A 
HETATM    4  O3  UNL     1      22.474   1.833  49.207  1.00  0.00     0.000 OA
HETATM    5  C6  UNL     1      21.862   1.327  48.015  1.00  0.00     0.000 C 
HETATM    6  C7  UNL     1      23.784   4.206  48.987  1.00  0.00    -0.002 C 
HETATM    7  P1  UNL     1      25.232   4.175  49.901  1.00  0.00    -0.028 P 
HETATM    8  C8  UNL     1      25.119   3.413  51.453  1.00  0.00     0.166 C 
HETATM    9  N2  UNL     1      26.081   2.700  52.279  1.00  0.00    -0.381 N 
HETATM   10  C9  UNL     1      27.394   2.201  52.471  1.00  0.00     0.087 C 
HETATM   11  C10 UNL     1      27.365   1.100  53.239  1.00  0.00     0.028 C 
HETATM   12  C11 UNL     1      25.915   0.821  53.455  1.00  0.00    -0.012 C 
HETATM   13  C12 UNL     1      25.242  -0.274  53.604  1.00  0.00     0.044 C 
HETATM   14  C13 UNL     1      23.848  -0.360  53.733  1.00  0.00    -0.009 A 
HETATM   15  C14 UNL     1      23.180  -0.972  54.772  1.00  0.00     0.014 A 
HETATM   16  C15 UNL     1      21.801  -0.944  54.760  1.00  0.00     0.001 A 
HETATM   17  C16 UNL     1      21.044  -0.345  53.777  1.00  0.00     0.007 A 
HETATM   18  C17 UNL     1      21.609   0.291  52.698  1.00  0.00    -0.052 A 
HETATM   19  C18 UNL     1      23.041   0.240  52.745  1.00  0.00     0.021 A 
HETATM   20  C19 UNL     1      21.143   1.031  51.517  1.00  0.00     0.096 C 
HETATM   21  C20 UNL     1      25.390   2.225  53.514  1.00  0.00     0.163 C 
ENDROOT
BRANCH   1  22
HETATM   22  N1  UNL     1      21.328   3.141  52.381  1.00  0.00    -0.272 N 
HETATM   23  H4  UNL     1      21.435   3.860  53.173  1.00  0.00     0.193 HD
BRANCH  22  24
HETATM   24  O1  UNL     1      20.053   2.853  52.719  1.00  0.00    -0.285 OA
HETATM   25  C1  UNL     1      19.133   3.503  51.915  1.00  0.00     0.237 C 
ENDBRANCH  22  24
ENDBRANCH   1  22
BRANCH   2  26
HETATM   26  O2  UNL     1      22.252   3.997  51.292  1.00  0.00    -0.370 OA
HETATM   27  C4  UNL     1      21.932   5.337  51.027  1.00  0.00     0.203 C 
ENDBRANCH   2  26
BRANCH  13  28
HETATM   28  N3  UNL     1      25.828  -1.555  53.597  1.00  0.00    -0.398 N 
HETATM   29  H15 UNL     1      25.467  -2.295  54.247  1.00  0.00     0.156 HD
HETATM   30  H16 UNL     1      26.608  -1.568  52.874  1.00  0.00     0.156 HD
ENDBRANCH  13  28
TORSDOF 4
ENDMDL
MODEL 2
REMARK VINA RESULT:      -7.0      2.044      4.730
REMARK  4 active torsions:
REMARK  status: ('A' for Active; 'I' for Inactive)
REMARK    1  A    between atoms: O1_2  and  N1_3 
REMARK    2  A    between atoms: N1_3  and  C2_4 
REMARK    3  A    between atoms: C3_5  and  O2_6 
REMARK    4  A    between atoms: C12_18  and  N3_19 
ROOT
HETATM    1  C2  UNL     1      24.441   3.103  51.628  1.00  0.00     0.057 C 
HETATM    2  C3  UNL     1      23.224   3.730  51.661  1.00  0.00     0.170 A 
HETATM    3  C5  UNL     1      22.268   4.573  52.375  1.00  0.00     0.009 A 
HETATM    4  O3  UNL     1      23.445   4.502  53.083  1.00  0.00     0.000 OA
HETATM    5  C6  UNL     1      23.844   5.727  53.707  1.00  0.00     0.000 C 
HETATM    6  C7  UNL     1      21.160   4.578  51.608  1.00  0.00    -0.002 C 
HETATM    7  P1  UNL     1      20.244   3.153  51.854  1.00  0.00    -0.028 P 
HETATM    8  C8  UNL     1      21.155   1.682  51.924  1.00  0.00     0.166 C 
HETATM    9  N2  UNL     1      20.940   0.415  52.606  1.00  0.00    -0.381 N 
HETATM   10  C9  UNL     1      20.148  -0.397  53.456  1.00  0.00     0.087 C 
HETATM   11  C10 UNL     1      20.923  -1.267  54.123  1.00  0.00     0.028 C 
HETATM   12  C11 UNL     1      22.320  -0.903  53.747  1.00  0.00    -0.012 C 
HETATM   13  C12 UNL     1      23.444  -0.952  54.386  1.00  0.00     0.044 C 
HETATM   14  C13 UNL     1      24.678  -0.499  53.895  1.00  0.00    -0.009 A 
HETATM   15  C14 UNL     1      25.828  -1.254  53.809  1.00  0.00     0.014 A 
HETATM   16  C15 UNL     1      26.952  -0.661  53.275  1.00  0.00     0.001 A 
HETATM   17  C16 UNL     1      27.006   0.639  52.823  1.00  0.00     0.007 A 
HETATM   18  C17 UNL     1      25.918   1.478  52.864  1.00  0.00    -0.052 A 
HETATM   19  C18 UNL     1      24.771   0.828  53.424  1.00  0.00     0.021 A 
HETATM   20  C19 UNL     1      25.606   2.858  52.468  1.00  0.00     0.096 C 
HETATM   21  C20 UNL     1      22.101  -0.481  52.324  1.00  0.00     0.163 C 
ENDROOT
BRANCH   1  22
HETATM   22  N1  UNL     1      24.696   2.393  50.421  1.00  0.00    -0.272 N 
HETATM   23  H4  UNL     1      24.488   1.803  49.547  1.00  0.00     0.193 HD
BRANCH  22  24
HETATM   24  O1  UNL     1      26.012   2.482  50.134  1.00  0.00    -0.285 OA
HETATM   25  C1  UNL     1      26.307   3.573  49.333  1.00  0.00     0.237 C 
ENDBRANCH  22  24
ENDBRANCH   1  22
BRANCH   2  26
HETATM   26  O2  UNL     1      23.203   3.131  50.411  1.00  0.00    -0.370 OA
HETATM   27  C4  UNL     1      22.797   3.760  49.224  1.00  0.00     0.203 C 
ENDBRANCH   2  26
BRANCH  13  28
HETATM   28  N3  UNL     1      23.569  -1.423  55.708  1.00  0.00    -0.398 N 
HETATM   29  H15 UNL     1      23.564  -2.455  55.893  1.00  0.00     0.156 HD
HETATM   30  H16 UNL     1      23.655  -0.587  56.359  1.00  0.00     0.156 HD
ENDBRANCH  13  28
TORSDOF 4
ENDMDL
MODEL 3
REMARK VINA RESULT:      -6.9      2.164      4.992
REMARK  4 active torsions:
REMARK  status: ('A' for Active; 'I' for Inactive)
REMARK    1  A    between atoms: O1_2  and  N1_3 
REMARK    2  A    between atoms: N1_3  and  C2_4 
REMARK    3  A    between atoms: C3_5  and  O2_6 
REMARK    4  A    between atoms: C12_18  and  N3_19 
ROOT
HETATM    1  C2  UNL     1      24.613   2.608  52.074  1.00  0.00     0.057 C 
HETATM    2  C3  UNL     1      24.436   3.735  51.316  1.00  0.00     0.170 A 
HETATM    3  C5  UNL     1      23.913   5.095  51.196  1.00  0.00     0.009 A 
HETATM    4  O3  UNL     1      23.747   4.645  52.484  1.00  0.00     0.000 OA
HETATM    5  C6  UNL     1      23.976   5.630  53.498  1.00  0.00     0.000 C 
HETATM    6  C7  UNL     1      24.121   5.440  49.910  1.00  0.00    -0.002 C 
HETATM    7  P1  UNL     1      22.910   4.775  48.899  1.00  0.00    -0.028 P 
HETATM    8  C8  UNL     1      22.492   3.125  49.220  1.00  0.00     0.166 C 
HETATM    9  N2  UNL     1      21.266   2.361  49.044  1.00  0.00    -0.381 N 
HETATM   10  C9  UNL     1      19.909   2.304  48.638  1.00  0.00     0.087 C 
HETATM   11  C10 UNL     1      19.248   1.379  49.352  1.00  0.00     0.028 C 
HETATM   12  C11 UNL     1      20.236   0.894  50.359  1.00  0.00    -0.012 C 
HETATM   13  C12 UNL     1      20.116   0.470  51.575  1.00  0.00     0.044 C 
HETATM   14  C13 UNL     1      21.178   0.108  52.418  1.00  0.00    -0.009 A 
HETATM   15  C14 UNL     1      21.311  -1.106  53.056  1.00  0.00     0.014 A 
HETATM   16  C15 UNL     1      22.434  -1.310  53.831  1.00  0.00     0.001 A 
HETATM   17  C16 UNL     1      23.432  -0.378  54.014  1.00  0.00     0.007 A 
HETATM   18  C17 UNL     1      23.397   0.863  53.425  1.00  0.00    -0.052 A 
HETATM   19  C18 UNL     1      22.218   1.037  52.630  1.00  0.00     0.021 A 
HETATM   20  C19 UNL     1      24.254   2.056  53.373  1.00  0.00     0.096 C 
HETATM   21  C20 UNL     1      21.493   0.973  49.544  1.00  0.00     0.163 C 
ENDROOT
BRANCH   1  22
HETATM   22  N1  UNL     1      25.335   1.574  51.415  1.00  0.00    -0.272 N 
HETATM   23  H4  UNL     1      25.617   0.899  50.627  1.00  0.00     0.193 HD
BRANCH  22  24
HETATM   24  O1  UNL     1      26.280   1.101  52.255  1.00  0.00    -0.285 OA
HETATM   25  C1  UNL     1      26.697  -0.175  51.917  1.00  0.00     0.237 C 
ENDBRANCH  22  24
ENDBRANCH   1  22
BRANCH   2  26
HETATM   26  O2  UNL     1      25.143   2.917  50.450  1.00  0.00    -0.370 OA
HETATM   27  C4  UNL     1      26.278   3.306  49.721  1.00  0.00     0.203 C 
ENDBRANCH   2  26
BRANCH  13  28
HETATM   28  N3  UNL     1      18.882   0.370  52.247  1.00  0.00    -0.398 N 
HETATM   29  H15 UNL     1      18.857   0.408  53.295  1.00  0.00     0.156 HD
HETATM   30  H16 UNL     1      18.109   0.262  51.525  1.00  0.00     0.156 HD
ENDBRANCH  13  28
TORSDOF 4
ENDMDL
MODEL 4
REMARK VINA RESULT:      -6.9      8.190     10.421
REMARK  4 active torsions:
REMARK  status: ('A' for Active; 'I' for Inactive)
REMARK    1  A    between atoms: O1_2  and  N1_3 
REMARK    2  A    between atoms: N1_3  and  C2_4 
REMARK    3  A    between atoms: C3_5  and  O2_6 
REMARK    4  A    between atoms: C12_18  and  N3_19 
ROOT
HETATM    1  C2  UNL     1      28.415   9.885  47.271  1.00  0.00     0.057 C 
HETATM    2  C3  UNL     1      29.430  10.689  46.823  1.00  0.00     0.170 A 
HETATM    3  C5  UNL     1      30.292  11.125  45.727  1.00  0.00     0.009 A 
HETATM    4  O3  UNL     1      29.344  10.250  45.252  1.00  0.00     0.000 OA
HETATM    5  C6  UNL     1      28.812  10.583  43.965  1.00  0.00     0.000 C 
HETATM    6  C7  UNL     1      31.179  11.970  46.289  1.00  0.00    -0.002 C 
HETATM    7  P1  UNL     1      32.434  11.104  47.069  1.00  0.00    -0.028 P 
HETATM    8  C8  UNL     1      31.928   9.741  48.010  1.00  0.00     0.166 C 
HETATM    9  N2  UNL     1      32.574   8.485  48.360  1.00  0.00    -0.381 N 
HETATM   10  C9  UNL     1      33.696   7.623  48.279  1.00  0.00     0.087 C 
HETATM   11  C10 UNL     1      33.307   6.342  48.373  1.00  0.00     0.028 C 
HETATM   12  C11 UNL     1      31.817   6.395  48.406  1.00  0.00    -0.012 C 
HETATM   13  C12 UNL     1      30.898   5.597  47.967  1.00  0.00     0.044 C 
HETATM   14  C13 UNL     1      29.517   5.837  48.024  1.00  0.00    -0.009 A 
HETATM   15  C14 UNL     1      28.584   5.000  48.598  1.00  0.00     0.014 A 
HETATM   16  C15 UNL     1      27.265   5.400  48.592  1.00  0.00     0.001 A 
HETATM   17  C16 UNL     1      26.814   6.583  48.050  1.00  0.00     0.007 A 
HETATM   18  C17 UNL     1      27.658   7.489  47.453  1.00  0.00    -0.052 A 
HETATM   19  C18 UNL     1      29.018   7.038  47.478  1.00  0.00     0.021 A 
HETATM   20  C19 UNL     1      27.547   8.808  46.815  1.00  0.00     0.096 C 
HETATM   21  C20 UNL     1      31.622   7.670  49.172  1.00  0.00     0.163 C 
ENDROOT
BRANCH   1  22
HETATM   22  N1  UNL     1      28.082  10.080  48.640  1.00  0.00    -0.272 N 
HETATM   23  H4  UNL     1      28.236  10.236  49.692  1.00  0.00     0.193 HD
BRANCH  22  24
HETATM   24  O1  UNL     1      26.738  10.084  48.764  1.00  0.00    -0.285 OA
HETATM   25  C1  UNL     1      26.320   9.651  50.011  1.00  0.00     0.237 C 
ENDBRANCH  22  24
ENDBRANCH   1  22
BRANCH   2  26
HETATM   26  O2  UNL     1      29.324  11.075  48.150  1.00  0.00    -0.370 OA
HETATM   27  C4  UNL     1      29.241  12.403  48.597  1.00  0.00     0.203 C 
ENDBRANCH   2  26
BRANCH  13  28
HETATM   28  N3  UNL     1      31.171   4.382  47.308  1.00  0.00    -0.398 N 
HETATM   29  H15 UNL     1      31.236   3.494  47.863  1.00  0.00     0.156 HD
HETATM   30  H16 UNL     1      31.276   4.575  46.269  1.00  0.00     0.156 HD
ENDBRANCH  13  28
TORSDOF 4
ENDMDL
MODEL 5
REMARK VINA RESULT:      -6.9      9.805     12.916
REMARK  4 active torsions:
REMARK  status: ('A' for Active; 'I' for Inactive)
REMARK    1  A    between atoms: O1_2  and  N1_3 
REMARK    2  A    between atoms: N1_3  and  C2_4 
REMARK    3  A    between atoms: C3_5  and  O2_6 
REMARK    4  A    between atoms: C12_18  and  N3_19 
ROOT
HETATM    1  C2  UNL     1      32.259   5.769  47.996  1.00  0.00     0.057 C 
HETATM    2  C3  UNL     1      33.214   5.061  47.314  1.00  0.00     0.170 A 
HETATM    3  C5  UNL     1      34.625   4.761  47.084  1.00  0.00     0.009 A 
HETATM    4  O3  UNL     1      34.500   5.615  48.154  1.00  0.00     0.000 OA
HETATM    5  C6  UNL     1      35.398   5.353  49.239  1.00  0.00     0.000 C 
HETATM    6  C7  UNL     1      34.641   3.927  46.026  1.00  0.00    -0.002 C 
HETATM    7  P1  UNL     1      34.483   4.800  44.561  1.00  0.00    -0.028 P 
HETATM    8  C8  UNL     1      33.289   6.055  44.566  1.00  0.00     0.166 C 
HETATM    9  N2  UNL     1      33.174   7.315  43.847  1.00  0.00    -0.381 N 
HETATM   10  C9  UNL     1      33.702   8.243  42.915  1.00  0.00     0.087 C 
HETATM   11  C10 UNL     1      33.310   9.489  43.225  1.00  0.00     0.028 C 
HETATM   12  C11 UNL     1      32.571   9.348  44.513  1.00  0.00    -0.012 C 
HETATM   13  C12 UNL     1      32.435  10.125  45.540  1.00  0.00     0.044 C 
HETATM   14  C13 UNL     1      31.745   9.802  46.718  1.00  0.00    -0.009 A 
HETATM   15  C14 UNL     1      30.717  10.538  47.267  1.00  0.00     0.014 A 
HETATM   16  C15 UNL     1      30.127  10.065  48.419  1.00  0.00     0.001 A 
HETATM   17  C16 UNL     1      30.495   8.903  49.062  1.00  0.00     0.007 A 
HETATM   18  C17 UNL     1      31.507   8.096  48.600  1.00  0.00    -0.052 A 
HETATM   19  C18 UNL     1      32.097   8.621  47.403  1.00  0.00     0.021 A 
HETATM   20  C19 UNL     1      32.136   6.827  48.989  1.00  0.00     0.096 C 
HETATM   21  C20 UNL     1      31.931   8.009  44.297  1.00  0.00     0.163 C 
ENDROOT
BRANCH   1  22
HETATM   22  N1  UNL     1      30.924   5.450  47.622  1.00  0.00    -0.272 N 
HETATM   23  H4  UNL     1      30.098   5.206  46.978  1.00  0.00     0.193 HD
BRANCH  22  24
HETATM   24  O1  UNL     1      30.160   5.406  48.734  1.00  0.00    -0.285 OA
HETATM   25  C1  UNL     1      28.806   5.392  48.447  1.00  0.00     0.237 C 
ENDBRANCH  22  24
ENDBRANCH   1  22
BRANCH   2  26
HETATM   26  O2  UNL     1      32.043   4.567  46.760  1.00  0.00    -0.370 OA
HETATM   27  C4  UNL     1      31.753   3.208  46.570  1.00  0.00     0.203 C 
ENDBRANCH   2  26
BRANCH  13  28
HETATM   28  N3  UNL     1      33.025  11.401  45.634  1.00  0.00    -0.398 N 
HETATM   29  H15 UNL     1      33.456  11.707  46.540  1.00  0.00     0.156 HD
HETATM   30  H16 UNL     1      32.932  11.889  44.695  1.00  0.00     0.156 HD
ENDBRANCH  13  28
TORSDOF 4
ENDMDL
MODEL 6
REMARK VINA RESULT:      -6.8      3.140      6.961
REMARK  4 active torsions:
REMARK  status: ('A' for Active; 'I' for Inactive)
REMARK    1  A    between atoms: O1_2  and  N1_3 
REMARK    2  A    between atoms: N1_3  and  C2_4 
REMARK    3  A    between atoms: C3_5  and  O2_6 
REMARK    4  A    between atoms: C12_18  and  N3_19 
ROOT
HETATM    1  C2  UNL     1      24.263   3.185  50.249  1.00  0.00     0.057 C 
HETATM    2  C3  UNL     1      22.919   3.007  50.445  1.00  0.00     0.170 A 
HETATM    3  C5  UNL     1      21.601   2.707  49.890  1.00  0.00     0.009 A 
HETATM    4  O3  UNL     1      22.559   2.563  48.915  1.00  0.00     0.000 OA
HETATM    5  C6  UNL     1      22.352   1.457  48.029  1.00  0.00     0.000 C 
HETATM    6  C7  UNL     1      20.740   2.877  50.913  1.00  0.00    -0.002 C 
HETATM    7  P1  UNL     1      20.382   4.536  51.137  1.00  0.00    -0.028 P 
HETATM    8  C8  UNL     1      21.738   5.611  51.053  1.00  0.00     0.166 C 
HETATM    9  N2  UNL     1      21.875   7.003  50.652  1.00  0.00    -0.381 N 
HETATM   10  C9  UNL     1      21.287   8.201  50.175  1.00  0.00     0.087 C 
HETATM   11  C10 UNL     1      22.182   8.909  49.467  1.00  0.00     0.028 C 
HETATM   12  C11 UNL     1      23.392   8.039  49.400  1.00  0.00    -0.012 C 
HETATM   13  C12 UNL     1      24.308   7.874  48.502  1.00  0.00     0.044 C 
HETATM   14  C13 UNL     1      25.360   6.947  48.574  1.00  0.00    -0.009 A 
HETATM   15  C14 UNL     1      26.700   7.252  48.466  1.00  0.00     0.014 A 
HETATM   16  C15 UNL     1      27.609   6.222  48.586  1.00  0.00     0.001 A 
HETATM   17  C16 UNL     1      27.268   4.906  48.806  1.00  0.00     0.007 A 
HETATM   18  C17 UNL     1      25.962   4.493  48.927  1.00  0.00    -0.052 A 
HETATM   19  C18 UNL     1      25.048   5.590  48.796  1.00  0.00     0.021 A 
HETATM   20  C19 UNL     1      25.248   3.234  49.178  1.00  0.00     0.096 C 
HETATM   21  C20 UNL     1      23.314   7.387  50.749  1.00  0.00     0.163 C 
ENDROOT
BRANCH   1  22
HETATM   22  N1  UNL     1      24.989   3.471  51.439  1.00  0.00    -0.272 N 
HETATM   23  H4  UNL     1      25.188   3.876  52.414  1.00  0.00     0.193 HD
BRANCH  22  24
HETATM   24  O1  UNL     1      26.205   2.890  51.355  1.00  0.00    -0.285 OA
HETATM   25  C1  UNL     1      26.553   2.219  52.515  1.00  0.00     0.237 C 
ENDBRANCH  22  24
ENDBRANCH   1  22
BRANCH   2  26
HETATM   26  O2  UNL     1      23.363   3.269  51.732  1.00  0.00    -0.370 OA
HETATM   27  C4  UNL     1      23.065   2.491  52.860  1.00  0.00     0.203 C 
ENDBRANCH   2  26
BRANCH  13  28
HETATM   28  N3  UNL     1      24.338   8.576  47.281  1.00  0.00    -0.398 N 
HETATM   29  H15 UNL     1      23.888   8.158  46.430  1.00  0.00     0.156 HD
HETATM   30  H16 UNL     1      24.854   9.493  47.429  1.00  0.00     0.156 HD
ENDBRANCH  13  28
TORSDOF 4
ENDMDL
MODEL 7
REMARK VINA RESULT:      -6.7      9.645     12.682
REMARK  4 active torsions:
REMARK  status: ('A' for Active; 'I' for Inactive)
REMARK    1  A    between atoms: O1_2  and  N1_3 
REMARK    2  A    between atoms: N1_3  and  C2_4 
REMARK    3  A    between atoms: C3_5  and  O2_6 
REMARK    4  A    between atoms: C12_18  and  N3_19 
ROOT
HETATM    1  C2  UNL     1      31.956   6.074  48.059  1.00  0.00     0.057 C 
HETATM    2  C3  UNL     1      30.930   6.979  48.129  1.00  0.00     0.170 A 
HETATM    3  C5  UNL     1      29.511   7.279  47.953  1.00  0.00     0.009 A 
HETATM    4  O3  UNL     1      29.732   5.938  47.743  1.00  0.00     0.000 OA
HETATM    5  C6  UNL     1      28.712   5.074  48.257  1.00  0.00     0.000 C 
HETATM    6  C7  UNL     1      29.399   8.603  48.177  1.00  0.00    -0.002 C 
HETATM    7  P1  UNL     1      29.866   9.495  46.792  1.00  0.00    -0.028 P 
HETATM    8  C8  UNL     1      31.301   8.942  45.996  1.00  0.00     0.166 C 
HETATM    9  N2  UNL     1      31.748   8.993  44.612  1.00  0.00    -0.381 N 
HETATM   10  C9  UNL     1      31.516   9.368  43.265  1.00  0.00     0.087 C 
HETATM   11  C10 UNL     1      32.144   8.524  42.431  1.00  0.00     0.028 C 
HETATM   12  C11 UNL     1      32.726   7.474  43.317  1.00  0.00    -0.012 C 
HETATM   13  C12 UNL     1      32.943   6.208  43.155  1.00  0.00     0.044 C 
HETATM   14  C13 UNL     1      33.446   5.338  44.134  1.00  0.00    -0.009 A 
HETATM   15  C14 UNL     1      34.561   4.541  43.994  1.00  0.00     0.014 A 
HETATM   16  C15 UNL     1      34.937   3.760  45.068  1.00  0.00     0.001 A 
HETATM   17  C16 UNL     1      34.271   3.723  46.273  1.00  0.00     0.007 A 
HETATM   18  C17 UNL     1      33.148   4.477  46.517  1.00  0.00    -0.052 A 
HETATM   19  C18 UNL     1      32.789   5.273  45.380  1.00  0.00     0.021 A 
HETATM   20  C19 UNL     1      32.226   4.706  47.638  1.00  0.00     0.096 C 
HETATM   21  C20 UNL     1      33.072   8.309  44.513  1.00  0.00     0.163 C 
ENDROOT
BRANCH   1  22
HETATM   22  N1  UNL     1      33.216   6.593  48.470  1.00  0.00    -0.272 N 
HETATM   23  H4  UNL     1      34.008   7.309  48.594  1.00  0.00     0.193 HD
BRANCH  22  24
HETATM   24  O1  UNL     1      33.887   5.629  49.135  1.00  0.00    -0.285 OA
HETATM   25  C1  UNL     1      35.252   5.859  49.165  1.00  0.00     0.237 C 
ENDBRANCH  22  24
ENDBRANCH   1  22
BRANCH   2  26
HETATM   26  O2  UNL     1      32.006   7.733  48.570  1.00  0.00    -0.370 OA
HETATM   27  C4  UNL     1      32.034   8.475  49.760  1.00  0.00     0.203 C 
ENDBRANCH   2  26
BRANCH  13  28
HETATM   28  N3  UNL     1      32.641   5.512  41.968  1.00  0.00    -0.398 N 
HETATM   29  H15 UNL     1      32.164   4.579  42.021  1.00  0.00     0.156 HD
HETATM   30  H16 UNL     1      32.973   6.091  41.141  1.00  0.00     0.156 HD
ENDBRANCH  13  28
TORSDOF 4
ENDMDL
MODEL 8
REMARK VINA RESULT:      -6.7      2.587      5.125
REMARK  4 active torsions:
REMARK  status: ('A' for Active; 'I' for Inactive)
REMARK    1  A    between atoms: O1_2  and  N1_3 
REMARK    2  A    between atoms: N1_3  and  C2_4 
REMARK    3  A    between atoms: C3_5  and  O2_6 
REMARK    4  A    between atoms: C12_18  and  N3_19 
ROOT
HETATM    1  C2  UNL     1      23.106   4.403  50.162  1.00  0.00     0.057 C 
HETATM    2  C3  UNL     1      21.979   4.853  49.528  1.00  0.00     0.170 A 
HETATM    3  C5  UNL     1      20.753   5.647  49.566  1.00  0.00     0.009 A 
HETATM    4  O3  UNL     1      21.466   5.839  50.725  1.00  0.00     0.000 OA
HETATM    5  C6  UNL     1      21.456   7.183  51.219  1.00  0.00     0.000 C 
HETATM    6  C7  UNL     1      20.130   5.391  48.398  1.00  0.00    -0.002 C 
HETATM    7  P1  UNL     1      19.291   3.901  48.470  1.00  0.00    -0.028 P 
HETATM    8  C8  UNL     1      20.150   2.594  49.215  1.00  0.00     0.166 C 
HETATM    9  N2  UNL     1      19.718   1.417  49.953  1.00  0.00    -0.381 N 
HETATM   10  C9  UNL     1      18.671   0.630  50.494  1.00  0.00     0.087 C 
HETATM   11  C10 UNL     1      19.096  -0.023  51.588  1.00  0.00     0.028 C 
HETATM   12  C11 UNL     1      20.483   0.476  51.816  1.00  0.00    -0.012 C 
HETATM   13  C12 UNL     1      21.182   0.674  52.887  1.00  0.00     0.044 C 
HETATM   14  C13 UNL     1      22.473   1.221  52.926  1.00  0.00    -0.009 A 
HETATM   15  C14 UNL     1      23.573   0.629  53.508  1.00  0.00     0.014 A 
HETATM   16  C15 UNL     1      24.780   1.292  53.434  1.00  0.00     0.001 A 
HETATM   17  C16 UNL     1      24.961   2.511  52.818  1.00  0.00     0.007 A 
HETATM   18  C17 UNL     1      23.932   3.188  52.209  1.00  0.00    -0.052 A 
HETATM   19  C18 UNL     1      22.696   2.469  52.307  1.00  0.00     0.021 A 
HETATM   20  C19 UNL     1      23.758   4.443  51.464  1.00  0.00     0.096 C 
HETATM   21  C20 UNL     1      20.927   0.661  50.396  1.00  0.00     0.163 C 
ENDROOT
BRANCH   1  22
HETATM   22  N1  UNL     1      23.935   3.575  49.355  1.00  0.00    -0.272 N 
HETATM   23  H4  UNL     1      24.206   2.755  48.714  1.00  0.00     0.193 HD
BRANCH  22  24
HETATM   24  O1  UNL     1      25.181   4.093  49.335  1.00  0.00    -0.285 OA
HETATM   25  C1  UNL     1      26.162   3.118  49.392  1.00  0.00     0.237 C 
ENDBRANCH  22  24
ENDBRANCH   1  22
BRANCH   2  26
HETATM   26  O2  UNL     1      22.578   4.089  48.538  1.00  0.00    -0.370 OA
HETATM   27  C4  UNL     1      22.602   4.415  47.174  1.00  0.00     0.203 C 
ENDBRANCH   2  26
BRANCH  13  28
HETATM   28  N3  UNL     1      20.705   0.414  54.188  1.00  0.00    -0.398 N 
HETATM   29  H15 UNL     1      19.812   0.860  54.511  1.00  0.00     0.156 HD
HETATM   30  H16 UNL     1      21.382  -0.247  54.672  1.00  0.00     0.156 HD
ENDBRANCH  13  28
TORSDOF 4
ENDMDL
MODEL 9
REMARK VINA RESULT:      -6.6      3.764      5.667
REMARK  4 active torsions:
REMARK  status: ('A' for Active; 'I' for Inactive)
REMARK    1  A    between atoms: O1_2  and  N1_3 
REMARK    2  A    between atoms: N1_3  and  C2_4 
REMARK    3  A    between atoms: C3_5  and  O2_6 
REMARK    4  A    between atoms: C12_18  and  N3_19 
ROOT
HETATM    1  C2  UNL     1      21.985   4.729  48.453  1.00  0.00     0.057 C 
HETATM    2  C3  UNL     1      21.717   5.657  47.482  1.00  0.00     0.170 A 
HETATM    3  C5  UNL     1      21.701   6.021  46.067  1.00  0.00     0.009 A 
HETATM    4  O3  UNL     1      22.053   4.699  46.203  1.00  0.00     0.000 OA
HETATM    5  C6  UNL     1      21.503   3.827  45.209  1.00  0.00     0.000 C 
HETATM    6  C7  UNL     1      21.350   7.322  46.041  1.00  0.00    -0.002 C 
HETATM    7  P1  UNL     1      22.694   8.322  46.390  1.00  0.00    -0.028 P 
HETATM    8  C8  UNL     1      23.697   7.796  47.701  1.00  0.00     0.166 C 
HETATM    9  N2  UNL     1      25.113   7.961  47.993  1.00  0.00    -0.381 N 
HETATM   10  C9  UNL     1      26.385   8.468  47.629  1.00  0.00     0.087 C 
HETATM   11  C10 UNL     1      27.357   7.683  48.122  1.00  0.00     0.028 C 
HETATM   12  C11 UNL     1      26.642   6.536  48.751  1.00  0.00    -0.012 C 
HETATM   13  C12 UNL     1      26.939   5.284  48.892  1.00  0.00     0.044 C 
HETATM   14  C13 UNL     1      26.105   4.310  49.461  1.00  0.00    -0.009 A 
HETATM   15  C14 UNL     1      26.442   3.490  50.517  1.00  0.00     0.014 A 
HETATM   16  C15 UNL     1      25.492   2.601  50.974  1.00  0.00     0.001 A 
HETATM   17  C16 UNL     1      24.227   2.475  50.446  1.00  0.00     0.007 A 
HETATM   18  C17 UNL     1      23.789   3.241  49.392  1.00  0.00    -0.052 A 
HETATM   19  C18 UNL     1      24.802   4.151  48.945  1.00  0.00     0.021 A 
HETATM   20  C19 UNL     1      22.554   3.397  48.612  1.00  0.00     0.096 C 
HETATM   21  C20 UNL     1      25.423   7.244  49.266  1.00  0.00     0.163 C 
ENDROOT
BRANCH   1  22
HETATM   22  N1  UNL     1      21.677   5.163  49.772  1.00  0.00    -0.272 N 
HETATM   23  H4  UNL     1      21.628   5.821  50.621  1.00  0.00     0.193 HD
BRANCH  22  24
HETATM   24  O1  UNL     1      21.037   4.167  50.420  1.00  0.00    -0.285 OA
HETATM   25  C1  UNL     1      21.076   4.319  51.796  1.00  0.00     0.237 C 
ENDBRANCH  22  24
ENDBRANCH   1  22
BRANCH   2  26
HETATM   26  O2  UNL     1      21.338   6.330  48.634  1.00  0.00    -0.370 OA
HETATM   27  C4  UNL     1      20.118   6.999  48.809  1.00  0.00     0.203 C 
ENDBRANCH   2  26
BRANCH  13  28
HETATM   28  N3  UNL     1      28.140   4.712  48.429  1.00  0.00    -0.398 N 
HETATM   29  H15 UNL     1      28.178   3.685  48.218  1.00  0.00     0.156 HD
HETATM   30  H16 UNL     1      28.876   5.475  48.362  1.00  0.00     0.156 HD
ENDBRANCH  13  28
TORSDOF 4
ENDMDL
