MODEL 1
REMARK VINA RESULT:      -8.6      0.000      0.000
REMARK  2 active torsions:
REMARK  status: ('A' for Active; 'I' for Inactive)
REMARK    1  A    between atoms: N1_1  and  C1_2 
REMARK    2  A    between atoms: C13_16  and  C14_17 
ROOT
HETATM    1  C1  UNL     1      22.257   1.945  51.391  1.00  0.00     0.038 A 
HETATM    2  C2  UNL     1      23.229   2.708  50.777  1.00  0.00     0.032 A 
HETATM    3  C3  UNL     1      24.570   2.508  51.001  1.00  0.00     0.033 A 
HETATM    4  C4  UNL     1      24.938   1.489  51.885  1.00  0.00     0.045 A 
HETATM    5  C5  UNL     1      23.996   0.673  52.546  1.00  0.00     0.034 A 
HETATM    6  C6  UNL     1      22.647   0.959  52.247  1.00  0.00     0.027 A 
HETATM    7  C7  UNL     1      21.316   0.424  52.638  1.00  0.00     0.047 C 
HETATM    8 CL1  UNL     1      19.994   0.640  51.554  1.00  0.00    -0.083 Cl
HETATM    9  C8  UNL     1      20.951  -0.246  53.748  1.00  0.00     0.026 C 
HETATM   10  C9  UNL     1      21.612  -0.725  54.983  1.00  0.00     0.014 C 
HETATM   11  C10 UNL     1      22.786  -1.103  55.286  1.00  0.00    -0.024 C 
HETATM   12  C11 UNL     1      23.844  -1.212  54.569  1.00  0.00     0.044 C 
HETATM   13  C12 UNL     1      24.459  -0.393  53.491  1.00  0.00     0.072 C 
HETATM   14  N2  UNL     1      25.613  -0.942  53.660  1.00  0.00    -0.243 NA
HETATM   15  C13 UNL     1      26.826  -0.683  52.969  1.00  0.00     0.121 C 
HETATM   16  C15 UNL     1      27.201   0.337  52.221  1.00  0.00     0.124 C 
HETATM   17  N5  UNL     1      26.386   1.494  51.924  1.00  0.00    -0.363 N 
HETATM   18  H10 UNL     1      26.928   2.363  51.731  1.00  0.00     0.165 HD
ENDROOT
BRANCH  15  19
HETATM   19  C14 UNL     1      27.843  -1.721  53.108  1.00  0.00     0.194 A 
HETATM   20  N3  UNL     1      29.093  -1.998  53.405  1.00  0.00    -0.151 NA
HETATM   21  N4  UNL     1      28.314  -3.082  53.060  1.00  0.00    -0.256 N 
HETATM   22  H8  UNL     1      27.948  -4.047  52.841  1.00  0.00     0.191 HD
ENDBRANCH  15  19
BRANCH   1  23
HETATM   23  N1  UNL     1      20.948   2.372  50.991  1.00  0.00    -0.398 N 
HETATM   24  H1  UNL     1      20.732   2.771  51.977  1.00  0.00     0.156 HD
HETATM   25  H2  UNL     1      20.813   2.117  49.943  1.00  0.00     0.156 HD
ENDBRANCH   1  23
TORSDOF 2
ENDMDL
MODEL 2
REMARK VINA RESULT:      -8.5      1.857      3.876
REMARK  2 active torsions:
REMARK  status: ('A' for Active; 'I' for Inactive)
REMARK    1  A    between atoms: N1_1  and  C1_2 
REMARK    2  A    between atoms: C13_16  and  C14_17 
ROOT
HETATM    1  C1  UNL     1      21.510  -0.358  53.942  1.00  0.00     0.038 A 
HETATM    2  C2  UNL     1      22.087  -1.231  54.841  1.00  0.00     0.032 A 
HETATM    3  C3  UNL     1      23.448  -1.319  55.008  1.00  0.00     0.033 A 
HETATM    4  C4  UNL     1      24.256  -0.485  54.230  1.00  0.00     0.045 A 
HETATM    5  C5  UNL     1      23.732   0.430  53.293  1.00  0.00     0.034 A 
HETATM    6  C6  UNL     1      22.324   0.443  53.198  1.00  0.00     0.027 A 
HETATM    7  C7  UNL     1      21.300   1.186  52.417  1.00  0.00     0.047 C 
HETATM    8 CL1  UNL     1      19.716   1.341  53.077  1.00  0.00    -0.083 Cl
HETATM    9  C8  UNL     1      21.408   1.800  51.223  1.00  0.00     0.026 C 
HETATM   10  C9  UNL     1      22.472   2.016  50.216  1.00  0.00     0.014 C 
HETATM   11  C10 UNL     1      23.736   2.126  50.252  1.00  0.00    -0.024 C 
HETATM   12  C11 UNL     1      24.553   2.097  51.240  1.00  0.00     0.044 C 
HETATM   13  C12 UNL     1      24.656   1.285  52.481  1.00  0.00     0.072 C 
HETATM   14  N2  UNL     1      25.901   1.578  52.634  1.00  0.00    -0.243 NA
HETATM   15  C13 UNL     1      26.791   1.157  53.656  1.00  0.00     0.121 C 
HETATM   16  C15 UNL     1      26.716   0.164  54.521  1.00  0.00     0.124 C 
HETATM   17  N5  UNL     1      25.622  -0.777  54.613  1.00  0.00    -0.363 N 
HETATM   18  H10 UNL     1      25.889  -1.712  54.989  1.00  0.00     0.165 HD
ENDROOT
BRANCH  15  19
HETATM   19  C14 UNL     1      28.006   1.959  53.778  1.00  0.00     0.194 A 
HETATM   20  N3  UNL     1      29.039   2.276  54.528  1.00  0.00    -0.151 NA
HETATM   21  N4  UNL     1      28.973   2.919  53.309  1.00  0.00    -0.256 N 
HETATM   22  H8  UNL     1      29.152   3.525  52.465  1.00  0.00     0.191 HD
ENDBRANCH  15  19
BRANCH   1  23
HETATM   23  N1  UNL     1      20.082  -0.479  53.961  1.00  0.00    -0.398 N 
HETATM   24  H1  UNL     1      19.958   0.382  53.312  1.00  0.00     0.156 HD
HETATM   25  H2  UNL     1      19.822  -1.339  54.572  1.00  0.00     0.156 HD
ENDBRANCH   1  23
TORSDOF 2
ENDMDL
MODEL 3
REMARK VINA RESULT:      -8.3      1.656      3.890
REMARK  2 active torsions:
REMARK  status: ('A' for Active; 'I' for Inactive)
REMARK    1  A    between atoms: N1_1  and  C1_2 
REMARK    2  A    between atoms: C13_16  and  C14_17 
ROOT
HETATM    1  C1  UNL     1      22.081   1.793  52.540  1.00  0.00     0.038 A 
HETATM    2  C2  UNL     1      21.946   0.621  53.256  1.00  0.00     0.032 A 
HETATM    3  C3  UNL     1      23.009  -0.214  53.504  1.00  0.00     0.033 A 
HETATM    4  C4  UNL     1      24.261   0.158  53.004  1.00  0.00     0.045 A 
HETATM    5  C5  UNL     1      24.468   1.342  52.266  1.00  0.00     0.034 A 
HETATM    6  C6  UNL     1      23.314   2.129  52.067  1.00  0.00     0.027 A 
HETATM    7  C7  UNL     1      22.986   3.418  51.402  1.00  0.00     0.047 C 
HETATM    8 CL1  UNL     1      21.614   4.301  51.955  1.00  0.00    -0.083 Cl
HETATM    9  C8  UNL     1      23.618   4.050  50.394  1.00  0.00     0.026 C 
HETATM   10  C9  UNL     1      24.809   3.808  49.550  1.00  0.00     0.014 C 
HETATM   11  C10 UNL     1      25.918   3.209  49.709  1.00  0.00    -0.024 C 
HETATM   12  C11 UNL     1      26.400   2.591  50.724  1.00  0.00     0.044 C 
HETATM   13  C12 UNL     1      25.835   1.674  51.748  1.00  0.00     0.072 C 
HETATM   14  N2  UNL     1      26.999   1.219  52.061  1.00  0.00    -0.243 NA
HETATM   15  C13 UNL     1      27.335   0.232  53.025  1.00  0.00     0.121 C 
HETATM   16  C15 UNL     1      26.599  -0.681  53.628  1.00  0.00     0.124 C 
HETATM   17  N5  UNL     1      25.183  -0.881  53.415  1.00  0.00    -0.363 N 
HETATM   18  H10 UNL     1      24.856  -1.856  53.584  1.00  0.00     0.165 HD
ENDROOT
BRANCH  15  19
HETATM   19  C14 UNL     1      28.740   0.219  53.423  1.00  0.00     0.194 A 
HETATM   20  N3  UNL     1      29.719  -0.471  53.965  1.00  0.00    -0.151 NA
HETATM   21  N4  UNL     1      30.049   0.806  53.561  1.00  0.00    -0.256 N 
HETATM   22  H8  UNL     1      30.545   1.712  53.347  1.00  0.00     0.191 HD
ENDBRANCH  15  19
BRANCH   1  23
HETATM   23  N1  UNL     1      20.820   2.462  52.420  1.00  0.00    -0.398 N 
HETATM   24  H1  UNL     1      20.269   1.543  52.595  1.00  0.00     0.156 HD
HETATM   25  H2  UNL     1      21.010   3.516  52.235  1.00  0.00     0.156 HD
ENDBRANCH   1  23
TORSDOF 2
ENDMDL
MODEL 4
REMARK VINA RESULT:      -8.2      2.207      4.748
REMARK  2 active torsions:
REMARK  status: ('A' for Active; 'I' for Inactive)
REMARK    1  A    between atoms: N1_1  and  C1_2 
REMARK    2  A    between atoms: C13_16  and  C14_17 
ROOT
HETATM    1  C1  UNL     1      23.690  -0.570  54.208  1.00  0.00     0.038 A 
HETATM    2  C2  UNL     1      25.041  -0.693  54.465  1.00  0.00     0.032 A 
HETATM    3  C3  UNL     1      25.994  -0.067  53.697  1.00  0.00     0.033 A 
HETATM    4  C4  UNL     1      25.556   0.718  52.626  1.00  0.00     0.045 A 
HETATM    5  C5  UNL     1      24.192   0.886  52.309  1.00  0.00     0.034 A 
HETATM    6  C6  UNL     1      23.295   0.202  53.157  1.00  0.00     0.027 A 
HETATM    7  C7  UNL     1      21.820   0.052  53.275  1.00  0.00     0.047 C 
HETATM    8 CL1  UNL     1      21.155  -0.336  54.817  1.00  0.00    -0.083 Cl
HETATM    9  C8  UNL     1      20.865   0.185  52.335  1.00  0.00     0.026 C 
HETATM   10  C9  UNL     1      20.812   0.508  50.892  1.00  0.00     0.014 C 
HETATM   11  C10 UNL     1      21.519   1.203  50.099  1.00  0.00    -0.024 C 
HETATM   12  C11 UNL     1      22.570   1.908  50.310  1.00  0.00     0.044 C 
HETATM   13  C12 UNL     1      23.792   1.731  51.138  1.00  0.00     0.072 C 
HETATM   14  N2  UNL     1      24.446   2.607  50.456  1.00  0.00    -0.243 NA
HETATM   15  C13 UNL     1      25.787   3.040  50.624  1.00  0.00     0.121 C 
HETATM   16  C15 UNL     1      26.801   2.501  51.274  1.00  0.00     0.124 C 
HETATM   17  N5  UNL     1      26.750   1.257  52.008  1.00  0.00    -0.363 N 
HETATM   18  H10 UNL     1      27.662   0.755  52.068  1.00  0.00     0.165 HD
ENDROOT
BRANCH  15  19
HETATM   19  C14 UNL     1      26.109   4.303  49.966  1.00  0.00     0.194 A 
HETATM   20  N3  UNL     1      26.763   4.895  48.990  1.00  0.00    -0.151 NA
HETATM   21  N4  UNL     1      26.034   5.733  49.808  1.00  0.00    -0.256 N 
HETATM   22  H8  UNL     1      25.575   6.565  50.267  1.00  0.00     0.191 HD
ENDBRANCH  15  19
BRANCH   1  23
HETATM   23  N1  UNL     1      22.923  -1.332  55.149  1.00  0.00    -0.398 N 
HETATM   24  H1  UNL     1      22.966  -2.220  54.526  1.00  0.00     0.156 HD
HETATM   25  H2  UNL     1      22.692  -0.692  55.996  1.00  0.00     0.156 HD
ENDBRANCH   1  23
TORSDOF 2
ENDMDL
MODEL 5
REMARK VINA RESULT:      -8.2      2.494      6.583
REMARK  2 active torsions:
REMARK  status: ('A' for Active; 'I' for Inactive)
REMARK    1  A    between atoms: N1_1  and  C1_2 
REMARK    2  A    between atoms: C13_16  and  C14_17 
ROOT
HETATM    1  C1  UNL     1      24.860  -0.680  54.348  1.00  0.00     0.038 A 
HETATM    2  C2  UNL     1      24.084  -1.261  55.330  1.00  0.00     0.032 A 
HETATM    3  C3  UNL     1      22.712  -1.187  55.321  1.00  0.00     0.033 A 
HETATM    4  C4  UNL     1      22.103  -0.495  54.270  1.00  0.00     0.045 A 
HETATM    5  C5  UNL     1      22.836   0.122  53.235  1.00  0.00     0.034 A 
HETATM    6  C6  UNL     1      24.237  -0.012  53.337  1.00  0.00     0.027 A 
HETATM    7  C7  UNL     1      25.424   0.413  52.548  1.00  0.00     0.047 C 
HETATM    8 CL1  UNL     1      26.874  -0.507  52.686  1.00  0.00    -0.083 Cl
HETATM    9  C8  UNL     1      25.562   1.444  51.692  1.00  0.00     0.026 C 
HETATM   10  C9  UNL     1      24.706   2.533  51.170  1.00  0.00     0.014 C 
HETATM   11  C10 UNL     1      23.464   2.673  50.950  1.00  0.00    -0.024 C 
HETATM   12  C11 UNL     1      22.486   1.858  51.106  1.00  0.00     0.044 C 
HETATM   13  C12 UNL     1      22.120   0.859  52.144  1.00  0.00     0.072 C 
HETATM   14  N2  UNL     1      20.887   0.844  51.772  1.00  0.00    -0.243 NA
HETATM   15  C13 UNL     1      19.808   0.094  52.310  1.00  0.00     0.121 C 
HETATM   16  C15 UNL     1      19.672  -0.530  53.464  1.00  0.00     0.124 C 
HETATM   17  N5  UNL     1      20.676  -0.584  54.503  1.00  0.00    -0.363 N 
HETATM   18  H10 UNL     1      20.293  -0.696  55.466  1.00  0.00     0.165 HD
ENDROOT
BRANCH  15  19
HETATM   19  C14 UNL     1      18.641  -0.009  51.439  1.00  0.00     0.194 A 
HETATM   20  N3  UNL     1      17.425  -0.487  51.288  1.00  0.00    -0.151 NA
HETATM   21  N4  UNL     1      17.906   0.251  50.227  1.00  0.00    -0.256 N 
HETATM   22  H8  UNL     1      18.031   0.757  49.310  1.00  0.00     0.191 HD
ENDBRANCH  15  19
BRANCH   1  23
HETATM   23  N1  UNL     1      26.253  -0.897  54.607  1.00  0.00    -0.398 N 
HETATM   24  H1  UNL     1      26.162  -0.536  55.627  1.00  0.00     0.156 HD
HETATM   25  H2  UNL     1      26.705  -1.310  53.709  1.00  0.00     0.156 HD
ENDBRANCH   1  23
TORSDOF 2
ENDMDL
MODEL 6
REMARK VINA RESULT:      -8.0      2.439      5.605
REMARK  2 active torsions:
REMARK  status: ('A' for Active; 'I' for Inactive)
REMARK    1  A    between atoms: N1_1  and  C1_2 
REMARK    2  A    between atoms: C13_16  and  C14_17 
ROOT
HETATM    1  C1  UNL     1      25.837  -0.083  53.114  1.00  0.00     0.038 A 
HETATM    2  C2  UNL     1      26.865   0.451  52.364  1.00  0.00     0.032 A 
HETATM    3  C3  UNL     1      26.692   1.553  51.560  1.00  0.00     0.033 A 
HETATM    4  C4  UNL     1      25.422   2.136  51.519  1.00  0.00     0.045 A 
HETATM    5  C5  UNL     1      24.329   1.641  52.260  1.00  0.00     0.034 A 
HETATM    6  C6  UNL     1      24.611   0.508  53.052  1.00  0.00     0.027 A 
HETATM    7  C7  UNL     1      23.863  -0.368  53.992  1.00  0.00     0.047 C 
HETATM    8 CL1  UNL     1      24.746  -1.213  55.207  1.00  0.00    -0.083 Cl
HETATM    9  C8  UNL     1      22.541  -0.618  54.066  1.00  0.00     0.026 C 
HETATM   10  C9  UNL     1      21.323  -0.197  53.339  1.00  0.00     0.014 C 
HETATM   11  C10 UNL     1      20.968   0.846  52.707  1.00  0.00    -0.024 C 
HETATM   12  C11 UNL     1      21.587   1.949  52.492  1.00  0.00     0.044 C 
HETATM   13  C12 UNL     1      22.990   2.307  52.158  1.00  0.00     0.072 C 
HETATM   14  N2  UNL     1      22.645   3.464  51.711  1.00  0.00    -0.243 NA
HETATM   15  C13 UNL     1      23.468   4.483  51.163  1.00  0.00     0.121 C 
HETATM   16  C15 UNL     1      24.697   4.447  50.686  1.00  0.00     0.124 C 
HETATM   17  N5  UNL     1      25.527   3.265  50.617  1.00  0.00    -0.363 N 
HETATM   18  H10 UNL     1      26.234   3.280  49.851  1.00  0.00     0.165 HD
ENDROOT
BRANCH  15  19
HETATM   19  C14 UNL     1      22.853   5.807  51.116  1.00  0.00     0.194 A 
HETATM   20  N3  UNL     1      22.969   7.056  50.721  1.00  0.00    -0.151 NA
HETATM   21  N4  UNL     1      21.802   6.753  51.391  1.00  0.00    -0.256 N 
HETATM   22  H8  UNL     1      20.857   6.784  51.859  1.00  0.00     0.191 HD
ENDBRANCH  15  19
BRANCH   1  23
HETATM   23  N1  UNL     1      26.287  -1.230  53.846  1.00  0.00    -0.398 N 
HETATM   24  H1  UNL     1      26.868  -0.618  54.529  1.00  0.00     0.156 HD
HETATM   25  H2  UNL     1      25.842  -2.115  53.398  1.00  0.00     0.156 HD
ENDBRANCH   1  23
TORSDOF 2
ENDMDL
MODEL 7
REMARK VINA RESULT:      -8.0      2.882      5.119
REMARK  2 active torsions:
REMARK  status: ('A' for Active; 'I' for Inactive)
REMARK    1  A    between atoms: N1_1  and  C1_2 
REMARK    2  A    between atoms: C13_16  and  C14_17 
ROOT
HETATM    1  C1  UNL     1      22.488   5.480  51.379  1.00  0.00     0.038 A 
HETATM    2  C2  UNL     1      21.416   4.798  51.916  1.00  0.00     0.032 A 
HETATM    3  C3  UNL     1      21.489   3.470  52.261  1.00  0.00     0.033 A 
HETATM    4  C4  UNL     1      22.703   2.808  52.052  1.00  0.00     0.045 A 
HETATM    5  C5  UNL     1      23.837   3.446  51.508  1.00  0.00     0.034 A 
HETATM    6  C6  UNL     1      23.658   4.808  51.188  1.00  0.00     0.027 A 
HETATM    7  C7  UNL     1      24.490   5.906  50.626  1.00  0.00     0.047 C 
HETATM    8 CL1  UNL     1      24.071   7.532  51.010  1.00  0.00    -0.083 Cl
HETATM    9  C8  UNL     1      25.578   5.840  49.836  1.00  0.00     0.026 C 
HETATM   10  C9  UNL     1      26.391   4.774  49.209  1.00  0.00     0.014 C 
HETATM   11  C10 UNL     1      26.681   3.573  49.503  1.00  0.00    -0.024 C 
HETATM   12  C11 UNL     1      26.352   2.853  50.512  1.00  0.00     0.044 C 
HETATM   13  C12 UNL     1      25.104   2.673  51.299  1.00  0.00     0.072 C 
HETATM   14  N2  UNL     1      25.501   1.542  51.770  1.00  0.00    -0.243 NA
HETATM   15  C13 UNL     1      24.824   0.666  52.659  1.00  0.00     0.121 C 
HETATM   16  C15 UNL     1      23.553   0.587  53.003  1.00  0.00     0.124 C 
HETATM   17  N5  UNL     1      22.502   1.447  52.506  1.00  0.00    -0.363 N 
HETATM   18  H10 UNL     1      21.556   1.009  52.497  1.00  0.00     0.165 HD
ENDROOT
BRANCH  15  19
HETATM   19  C14 UNL     1      25.677  -0.324  53.310  1.00  0.00     0.194 A 
HETATM   20  N3  UNL     1      25.915  -1.016  54.403  1.00  0.00    -0.151 NA
HETATM   21  N4  UNL     1      26.784  -1.245  53.356  1.00  0.00    -0.256 N 
HETATM   22  H8  UNL     1      27.561  -1.592  52.733  1.00  0.00     0.191 HD
ENDBRANCH  15  19
BRANCH   1  23
HETATM   23  N1  UNL     1      22.136   6.842  51.102  1.00  0.00    -0.398 N 
HETATM   24  H1  UNL     1      21.996   6.634  50.045  1.00  0.00     0.156 HD
HETATM   25  H2  UNL     1      22.163   7.397  52.035  1.00  0.00     0.156 HD
ENDBRANCH   1  23
TORSDOF 2
ENDMDL
MODEL 8
REMARK VINA RESULT:      -7.4      9.392     12.231
REMARK  2 active torsions:
REMARK  status: ('A' for Active; 'I' for Inactive)
REMARK    1  A    between atoms: N1_1  and  C1_2 
REMARK    2  A    between atoms: C13_16  and  C14_17 
ROOT
HETATM    1  C1  UNL     1      34.599   7.648  48.185  1.00  0.00     0.038 A 
HETATM    2  C2  UNL     1      33.943   8.847  47.992  1.00  0.00     0.032 A 
HETATM    3  C3  UNL     1      32.590   8.915  47.757  1.00  0.00     0.033 A 
HETATM    4  C4  UNL     1      31.875   7.714  47.718  1.00  0.00     0.045 A 
HETATM    5  C5  UNL     1      32.483   6.455  47.907  1.00  0.00     0.034 A 
HETATM    6  C6  UNL     1      33.873   6.495  48.141  1.00  0.00     0.027 A 
HETATM    7  C7  UNL     1      34.955   5.509  48.404  1.00  0.00     0.047 C 
HETATM    8 CL1  UNL     1      36.354   6.033  49.261  1.00  0.00    -0.083 Cl
HETATM    9  C8  UNL     1      35.025   4.204  48.078  1.00  0.00     0.026 C 
HETATM   10  C9  UNL     1      34.165   3.220  47.382  1.00  0.00     0.014 C 
HETATM   11  C10 UNL     1      32.914   3.067  47.230  1.00  0.00    -0.024 C 
HETATM   12  C11 UNL     1      31.925   3.753  47.672  1.00  0.00     0.044 C 
HETATM   13  C12 UNL     1      31.658   5.206  47.839  1.00  0.00     0.072 C 
HETATM   14  N2  UNL     1      30.385   5.020  47.901  1.00  0.00    -0.243 NA
HETATM   15  C13 UNL     1      29.356   5.984  48.060  1.00  0.00     0.121 C 
HETATM   16  C15 UNL     1      29.355   7.292  47.887  1.00  0.00     0.124 C 
HETATM   17  N5  UNL     1      30.495   8.076  47.468  1.00  0.00    -0.363 N 
HETATM   18  H10 UNL     1      30.251   8.952  46.958  1.00  0.00     0.165 HD
ENDROOT
BRANCH  15  19
HETATM   19  C14 UNL     1      28.069   5.442  48.487  1.00  0.00     0.194 A 
HETATM   20  N3  UNL     1      26.768   5.621  48.540  1.00  0.00    -0.151 NA
HETATM   21  N4  UNL     1      27.227   4.448  49.102  1.00  0.00    -0.256 N 
HETATM   22  H8  UNL     1      27.314   3.512  49.581  1.00  0.00     0.191 HD
ENDBRANCH  15  19
BRANCH   1  23
HETATM   23  N1  UNL     1      36.000   7.865  48.396  1.00  0.00    -0.398 N 
HETATM   24  H1  UNL     1      35.857   8.933  48.527  1.00  0.00     0.156 HD
HETATM   25  H2  UNL     1      36.504   6.904  48.342  1.00  0.00     0.156 HD
ENDBRANCH   1  23
TORSDOF 2
ENDMDL
MODEL 9
REMARK VINA RESULT:      -7.3      3.368      6.592
REMARK  2 active torsions:
REMARK  status: ('A' for Active; 'I' for Inactive)
REMARK    1  A    between atoms: N1_1  and  C1_2 
REMARK    2  A    between atoms: C13_16  and  C14_17 
ROOT
HETATM    1  C1  UNL     1      22.837   1.883  50.702  1.00  0.00     0.038 A 
HETATM    2  C2  UNL     1      22.174   2.128  49.516  1.00  0.00     0.032 A 
HETATM    3  C3  UNL     1      20.897   1.675  49.282  1.00  0.00     0.033 A 
HETATM    4  C4  UNL     1      20.269   0.944  50.294  1.00  0.00     0.045 A 
HETATM    5  C5  UNL     1      20.889   0.658  51.529  1.00  0.00     0.034 A 
HETATM    6  C6  UNL     1      22.197   1.168  51.669  1.00  0.00     0.027 A 
HETATM    7  C7  UNL     1      23.250   1.169  52.719  1.00  0.00     0.047 C 
HETATM    8 CL1  UNL     1      24.413   2.440  52.715  1.00  0.00    -0.083 Cl
HETATM    9  C8  UNL     1      23.454   0.304  53.732  1.00  0.00     0.026 C 
HETATM   10  C9  UNL     1      22.809  -0.926  54.245  1.00  0.00     0.014 C 
HETATM   11  C10 UNL     1      21.626  -1.386  54.249  1.00  0.00    -0.024 C 
HETATM   12  C11 UNL     1      20.533  -0.896  53.793  1.00  0.00     0.044 C 
HETATM   13  C12 UNL     1      20.162  -0.142  52.566  1.00  0.00     0.072 C 
HETATM   14  N2  UNL     1      18.915  -0.437  52.697  1.00  0.00    -0.243 NA
HETATM   15  C13 UNL     1      17.826  -0.073  51.861  1.00  0.00     0.121 C 
HETATM   16  C15 UNL     1      17.793   0.375  50.621  1.00  0.00     0.124 C 
HETATM   17  N5  UNL     1      18.953   0.607  49.790  1.00  0.00    -0.363 N 
HETATM   18  H10 UNL     1      18.775   0.516  48.767  1.00  0.00     0.165 HD
ENDROOT
BRANCH  15  19
HETATM   19  C14 UNL     1      16.509  -0.218  52.475  1.00  0.00     0.194 A 
HETATM   20  N3  UNL     1      15.408   0.388  52.862  1.00  0.00    -0.151 NA
HETATM   21  N4  UNL     1      15.443  -0.973  53.082  1.00  0.00    -0.256 N 
HETATM   22  H8  UNL     1      15.224  -1.969  53.353  1.00  0.00     0.191 HD
ENDBRANCH  15  19
BRANCH   1  23
HETATM   23  N1  UNL     1      24.150   2.455  50.676  1.00  0.00    -0.398 N 
HETATM   24  H1  UNL     1      24.514   1.759  51.425  1.00  0.00     0.156 HD
HETATM   25  H2  UNL     1      24.156   3.261  49.947  1.00  0.00     0.156 HD
ENDBRANCH   1  23
TORSDOF 2
ENDMDL
