MODEL 1
REMARK VINA RESULT:      -8.3      0.000      0.000
REMARK  7 active torsions:
REMARK  status: ('A' for Active; 'I' for Inactive)
REMARK    1  A    between atoms: C1_2  and  C2_3 
REMARK       I    between atoms: C1_2  and  N2_11 
REMARK    2  A    between atoms: C2_3  and  C3_4 
REMARK    3  A    between atoms: C3_4  and  N1_5 
REMARK    4  A    between atoms: N2_11  and  C8_12 
REMARK    5  A    between atoms: C8_12  and  C9_13 
REMARK    6  A    between atoms: C14_19  and  N4_20 
REMARK    7  A    between atoms: N4_20  and  C15_21 
ROOT
HETATM    1  C9  UNL     1      27.308   2.668  51.776  1.00  0.00     0.004 C 
HETATM    2  C10 UNL     1      27.600   1.874  52.788  1.00  0.00    -0.014 A 
HETATM    3  C11 UNL     1      28.652   2.322  53.751  1.00  0.00     0.189 A 
HETATM    4  N3  UNL     1      28.865   1.370  54.785  1.00  0.00    -0.297 NA
HETATM    5  C12 UNL     1      28.245   0.258  54.909  1.00  0.00     0.113 A 
HETATM    6  C13 UNL     1      27.205  -0.220  53.994  1.00  0.00     0.049 A 
HETATM    7  C14 UNL     1      26.933   0.598  52.991  1.00  0.00     0.041 A 
ENDROOT
BRANCH   1   8
HETATM    8  C8  UNL     1      26.462   2.812  50.591  1.00  0.00     0.150 C 
BRANCH   8   9
HETATM    9  N2  UNL     1      26.133   4.194  50.279  1.00  0.00    -0.358 N 
HETATM   10  C1  UNL     1      26.812   4.888  49.238  1.00  0.00     0.219 C 
HETATM   11  O1  UNL     1      27.686   4.172  48.660  1.00  0.00    -0.274 OA
HETATM   12  H13 UNL     1      25.372   4.587  50.887  1.00  0.00     0.162 HD
BRANCH  10  13
HETATM   13  C2  UNL     1      26.314   6.282  49.103  1.00  0.00     0.133 C 
BRANCH  13  14
HETATM   14  C3  UNL     1      27.118   7.062  48.106  1.00  0.00     0.282 C 
BRANCH  14  15
HETATM   15  N1  UNL     1      28.328   7.614  48.680  1.00  0.00     0.093 N 
HETATM   16  C4  UNL     1      29.518   7.151  47.999  1.00  0.00     0.298 C 
HETATM   17  C5  UNL     1      30.712   7.685  48.758  1.00  0.00     0.198 C 
HETATM   18  O2  UNL     1      30.692   9.057  48.929  1.00  0.00    -0.388 OA
HETATM   19  C6  UNL     1      29.501   9.542  49.422  1.00  0.00     0.198 C 
HETATM   20  C7  UNL     1      28.359   9.066  48.550  1.00  0.00     0.298 C 
ENDBRANCH  14  15
ENDBRANCH  13  14
ENDBRANCH  10  13
ENDBRANCH   8   9
ENDBRANCH   1   8
BRANCH   7  21
HETATM   21  N4  UNL     1      25.916   0.121  52.120  1.00  0.00    -0.356 N 
HETATM   22  H21 UNL     1      25.973  -0.323  51.160  1.00  0.00     0.166 HD
BRANCH  21  23
HETATM   23  C15 UNL     1      24.582   0.269  52.647  1.00  0.00     0.034 A 
HETATM   24  C16 UNL     1      23.884   1.458  52.466  1.00  0.00     0.032 A 
HETATM   25  C17 UNL     1      22.588   1.632  52.962  1.00  0.00     0.046 A 
HETATM   26  C18 UNL     1      21.979   0.600  53.651  1.00  0.00     0.138 A 
HETATM   27  F1  UNL     1      20.711   0.881  54.089  1.00  0.00    -0.204 F 
HETATM   28  C19 UNL     1      22.660  -0.582  53.836  1.00  0.00     0.074 A 
HETATM   29 CL1  UNL     1      21.831  -1.845  54.715  1.00  0.00    -0.081 Cl
HETATM   30  C20 UNL     1      23.936  -0.733  53.340  1.00  0.00     0.056 A 
ENDBRANCH  21  23
ENDBRANCH   7  21
TORSDOF 7
ENDMDL
MODEL 2
REMARK VINA RESULT:      -8.3      2.247      3.478
REMARK  7 active torsions:
REMARK  status: ('A' for Active; 'I' for Inactive)
REMARK    1  A    between atoms: C1_2  and  C2_3 
REMARK       I    between atoms: C1_2  and  N2_11 
REMARK    2  A    between atoms: C2_3  and  C3_4 
REMARK    3  A    between atoms: C3_4  and  N1_5 
REMARK    4  A    between atoms: N2_11  and  C8_12 
REMARK    5  A    between atoms: C8_12  and  C9_13 
REMARK    6  A    between atoms: C14_19  and  N4_20 
REMARK    7  A    between atoms: N4_20  and  C15_21 
ROOT
HETATM    1  C9  UNL     1      27.301   2.671  51.708  1.00  0.00     0.004 C 
HETATM    2  C10 UNL     1      27.603   1.912  52.744  1.00  0.00    -0.014 A 
HETATM    3  C11 UNL     1      28.647   2.403  53.694  1.00  0.00     0.189 A 
HETATM    4  N3  UNL     1      28.871   1.487  54.757  1.00  0.00    -0.297 NA
HETATM    5  C12 UNL     1      28.267   0.370  54.915  1.00  0.00     0.113 A 
HETATM    6  C13 UNL     1      27.234  -0.150  54.013  1.00  0.00     0.049 A 
HETATM    7  C14 UNL     1      26.953   0.634  52.985  1.00  0.00     0.041 A 
ENDROOT
BRANCH   1   8
HETATM    8  C8  UNL     1      26.454   2.768  50.519  1.00  0.00     0.150 C 
BRANCH   8   9
HETATM    9  N2  UNL     1      26.038   4.127  50.214  1.00  0.00    -0.358 N 
HETATM   10  C1  UNL     1      26.727   4.898  49.234  1.00  0.00     0.219 C 
HETATM   11  O1  UNL     1      27.690   4.266  48.702  1.00  0.00    -0.274 OA
HETATM   12  H13 UNL     1      25.211   4.445  50.777  1.00  0.00     0.162 HD
BRANCH  10  13
HETATM   13  C2  UNL     1      26.130   6.252  49.094  1.00  0.00     0.133 C 
BRANCH  13  14
HETATM   14  C3  UNL     1      25.412   6.671  50.342  1.00  0.00     0.282 C 
BRANCH  14  15
HETATM   15  N1  UNL     1      23.991   6.852  50.130  1.00  0.00     0.093 N 
HETATM   16  C4  UNL     1      23.199   6.221  51.165  1.00  0.00     0.298 C 
HETATM   17  C5  UNL     1      21.745   6.365  50.773  1.00  0.00     0.198 C 
HETATM   18  O2  UNL     1      21.363   7.670  50.527  1.00  0.00    -0.388 OA
HETATM   19  C6  UNL     1      22.203   8.346  49.670  1.00  0.00     0.198 C 
HETATM   20  C7  UNL     1      23.624   8.262  50.181  1.00  0.00     0.298 C 
ENDBRANCH  14  15
ENDBRANCH  13  14
ENDBRANCH  10  13
ENDBRANCH   8   9
ENDBRANCH   1   8
BRANCH   7  21
HETATM   21  N4  UNL     1      25.943   0.117  52.129  1.00  0.00    -0.356 N 
HETATM   22  H21 UNL     1      26.008  -0.357  51.184  1.00  0.00     0.166 HD
BRANCH  21  23
HETATM   23  C15 UNL     1      24.606   0.267  52.648  1.00  0.00     0.034 A 
HETATM   24  C16 UNL     1      23.915   1.461  52.470  1.00  0.00     0.032 A 
HETATM   25  C17 UNL     1      22.616   1.637  52.958  1.00  0.00     0.046 A 
HETATM   26  C18 UNL     1      21.998   0.602  53.637  1.00  0.00     0.138 A 
HETATM   27  F1  UNL     1      20.728   0.885  54.068  1.00  0.00    -0.204 F 
HETATM   28  C19 UNL     1      22.673  -0.583  53.818  1.00  0.00     0.074 A 
HETATM   29 CL1  UNL     1      21.832  -1.850  54.683  1.00  0.00    -0.081 Cl
HETATM   30  C20 UNL     1      23.951  -0.737  53.329  1.00  0.00     0.056 A 
ENDBRANCH  21  23
ENDBRANCH   7  21
TORSDOF 7
ENDMDL
MODEL 3
REMARK VINA RESULT:      -8.2      2.646      4.217
REMARK  7 active torsions:
REMARK  status: ('A' for Active; 'I' for Inactive)
REMARK    1  A    between atoms: C1_2  and  C2_3 
REMARK       I    between atoms: C1_2  and  N2_11 
REMARK    2  A    between atoms: C2_3  and  C3_4 
REMARK    3  A    between atoms: C3_4  and  N1_5 
REMARK    4  A    between atoms: N2_11  and  C8_12 
REMARK    5  A    between atoms: C8_12  and  C9_13 
REMARK    6  A    between atoms: C14_19  and  N4_20 
REMARK    7  A    between atoms: N4_20  and  C15_21 
ROOT
HETATM    1  C9  UNL     1      25.387   3.207  49.796  1.00  0.00     0.004 C 
HETATM    2  C10 UNL     1      24.604   2.699  50.728  1.00  0.00    -0.014 A 
HETATM    3  C11 UNL     1      23.213   2.314  50.344  1.00  0.00     0.189 A 
HETATM    4  N3  UNL     1      22.484   1.787  51.445  1.00  0.00    -0.297 NA
HETATM    5  C12 UNL     1      22.937   1.642  52.634  1.00  0.00     0.113 A 
HETATM    6  C13 UNL     1      24.294   2.000  53.055  1.00  0.00     0.049 A 
HETATM    7  C14 UNL     1      25.055   2.504  52.097  1.00  0.00     0.041 A 
ENDROOT
BRANCH   1   8
HETATM    8  C8  UNL     1      26.725   3.737  49.533  1.00  0.00     0.150 C 
BRANCH   8   9
HETATM    9  N2  UNL     1      26.721   5.115  49.069  1.00  0.00    -0.358 N 
HETATM   10  C1  UNL     1      27.866   5.673  48.431  1.00  0.00     0.219 C 
HETATM   11  O1  UNL     1      28.823   4.846  48.332  1.00  0.00    -0.274 OA
HETATM   12  H13 UNL     1      25.816   5.613  49.255  1.00  0.00     0.162 HD
BRANCH  10  13
HETATM   13  C2  UNL     1      27.634   7.091  48.048  1.00  0.00     0.133 C 
BRANCH  13  14
HETATM   14  C3  UNL     1      27.323   7.942  49.243  1.00  0.00     0.282 C 
BRANCH  14  15
HETATM   15  N1  UNL     1      28.172   9.113  49.325  1.00  0.00     0.093 N 
HETATM   16  C4  UNL     1      29.571   8.787  49.146  1.00  0.00     0.298 C 
HETATM   17  C5  UNL     1      30.364  10.055  49.377  1.00  0.00     0.198 C 
HETATM   18  O2  UNL     1      29.956  11.115  48.590  1.00  0.00    -0.388 OA
HETATM   19  C6  UNL     1      28.597  11.339  48.614  1.00  0.00     0.198 C 
HETATM   20  C7  UNL     1      27.866  10.062  48.261  1.00  0.00     0.298 C 
ENDBRANCH  14  15
ENDBRANCH  13  14
ENDBRANCH  10  13
ENDBRANCH   8   9
ENDBRANCH   1   8
BRANCH   7  21
HETATM   21  N4  UNL     1      26.369   2.837  52.523  1.00  0.00    -0.356 N 
HETATM   22  H21 UNL     1      26.843   3.776  52.651  1.00  0.00     0.166 HD
BRANCH  21  23
HETATM   23  C15 UNL     1      27.187   1.692  52.836  1.00  0.00     0.034 A 
HETATM   24  C16 UNL     1      28.414   1.859  53.470  1.00  0.00     0.032 A 
HETATM   25  C17 UNL     1      29.230   0.769  53.790  1.00  0.00     0.046 A 
HETATM   26  C18 UNL     1      28.812  -0.510  53.471  1.00  0.00     0.138 A 
HETATM   27  F1  UNL     1      29.689  -1.500  53.833  1.00  0.00    -0.204 F 
HETATM   28  C19 UNL     1      27.600  -0.688  52.845  1.00  0.00     0.074 A 
HETATM   29 CL1  UNL     1      27.132  -2.331  52.472  1.00  0.00    -0.081 Cl
HETATM   30  C20 UNL     1      26.811   0.399  52.538  1.00  0.00     0.056 A 
ENDBRANCH  21  23
ENDBRANCH   7  21
TORSDOF 7
ENDMDL
MODEL 4
REMARK VINA RESULT:      -8.1      4.798      7.366
REMARK  7 active torsions:
REMARK  status: ('A' for Active; 'I' for Inactive)
REMARK    1  A    between atoms: C1_2  and  C2_3 
REMARK       I    between atoms: C1_2  and  N2_11 
REMARK    2  A    between atoms: C2_3  and  C3_4 
REMARK    3  A    between atoms: C3_4  and  N1_5 
REMARK    4  A    between atoms: N2_11  and  C8_12 
REMARK    5  A    between atoms: C8_12  and  C9_13 
REMARK    6  A    between atoms: C14_19  and  N4_20 
REMARK    7  A    between atoms: N4_20  and  C15_21 
ROOT
HETATM    1  C9  UNL     1      25.629  -0.579  54.163  1.00  0.00     0.004 C 
HETATM    2  C10 UNL     1      26.591   0.306  53.985  1.00  0.00    -0.014 A 
HETATM    3  C11 UNL     1      27.683   0.372  55.003  1.00  0.00     0.189 A 
HETATM    4  N3  UNL     1      28.645   1.368  54.686  1.00  0.00    -0.297 NA
HETATM    5  C12 UNL     1      28.615   2.130  53.658  1.00  0.00     0.113 A 
HETATM    6  C13 UNL     1      27.568   2.098  52.632  1.00  0.00     0.049 A 
HETATM    7  C14 UNL     1      26.619   1.200  52.838  1.00  0.00     0.041 A 
ENDROOT
BRANCH   1   8
HETATM    8  C8  UNL     1      24.388  -1.109  53.598  1.00  0.00     0.150 C 
BRANCH   8   9
HETATM    9  N2  UNL     1      23.238  -0.246  53.814  1.00  0.00    -0.358 N 
HETATM   10  C1  UNL     1      22.109  -0.707  54.551  1.00  0.00     0.219 C 
HETATM   11  O1  UNL     1      22.246  -1.898  54.963  1.00  0.00    -0.274 OA
HETATM   12  H13 UNL     1      23.345   0.705  53.382  1.00  0.00     0.162 HD
BRANCH  10  13
HETATM   13  C2  UNL     1      21.059   0.342  54.640  1.00  0.00     0.133 C 
BRANCH  13  14
HETATM   14  C3  UNL     1      20.179   0.348  53.425  1.00  0.00     0.282 C 
BRANCH  14  15
HETATM   15  N1  UNL     1      20.593   1.334  52.448  1.00  0.00     0.093 N 
HETATM   16  C4  UNL     1      20.957   0.731  51.183  1.00  0.00     0.298 C 
HETATM   17  C5  UNL     1      21.487   1.833  50.292  1.00  0.00     0.198 C 
HETATM   18  O2  UNL     1      20.617   2.897  50.148  1.00  0.00    -0.388 OA
HETATM   19  C6  UNL     1      20.124   3.382  51.339  1.00  0.00     0.198 C 
HETATM   20  C7  UNL     1      19.504   2.251  52.130  1.00  0.00     0.298 C 
ENDBRANCH  14  15
ENDBRANCH  13  14
ENDBRANCH  10  13
ENDBRANCH   8   9
ENDBRANCH   1   8
BRANCH   7  21
HETATM   21  N4  UNL     1      25.620   1.178  51.828  1.00  0.00    -0.356 N 
HETATM   22  H21 UNL     1      25.300   0.402  51.182  1.00  0.00     0.166 HD
BRANCH  21  23
HETATM   23  C15 UNL     1      24.926   2.432  51.668  1.00  0.00     0.034 A 
HETATM   24  C16 UNL     1      24.193   2.966  52.722  1.00  0.00     0.032 A 
HETATM   25  C17 UNL     1      23.511   4.181  52.601  1.00  0.00     0.046 A 
HETATM   26  C18 UNL     1      23.562   4.873  51.405  1.00  0.00     0.138 A 
HETATM   27  F1  UNL     1      22.859   6.050  51.401  1.00  0.00    -0.204 F 
HETATM   28  C19 UNL     1      24.285   4.354  50.355  1.00  0.00     0.074 A 
HETATM   29 CL1  UNL     1      24.308   5.281  48.873  1.00  0.00    -0.081 Cl
HETATM   30  C20 UNL     1      24.949   3.156  50.495  1.00  0.00     0.056 A 
ENDBRANCH  21  23
ENDBRANCH   7  21
TORSDOF 7
ENDMDL
MODEL 5
REMARK VINA RESULT:      -8.1      4.402      8.037
REMARK  7 active torsions:
REMARK  status: ('A' for Active; 'I' for Inactive)
REMARK    1  A    between atoms: C1_2  and  C2_3 
REMARK       I    between atoms: C1_2  and  N2_11 
REMARK    2  A    between atoms: C2_3  and  C3_4 
REMARK    3  A    between atoms: C3_4  and  N1_5 
REMARK    4  A    between atoms: N2_11  and  C8_12 
REMARK    5  A    between atoms: C8_12  and  C9_13 
REMARK    6  A    between atoms: C14_19  and  N4_20 
REMARK    7  A    between atoms: N4_20  and  C15_21 
ROOT
HETATM    1  C9  UNL     1      21.171   1.932  50.987  1.00  0.00     0.004 C 
HETATM    2  C10 UNL     1      21.241   2.508  49.802  1.00  0.00    -0.014 A 
HETATM    3  C11 UNL     1      20.290   2.053  48.743  1.00  0.00     0.189 A 
HETATM    4  N3  UNL     1      20.480   2.755  47.522  1.00  0.00    -0.297 NA
HETATM    5  C12 UNL     1      21.348   3.674  47.320  1.00  0.00     0.113 A 
HETATM    6  C13 UNL     1      22.296   4.155  48.329  1.00  0.00     0.049 A 
HETATM    7  C14 UNL     1      22.200   3.560  49.506  1.00  0.00     0.041 A 
ENDROOT
BRANCH   1   8
HETATM    8  C8  UNL     1      21.753   1.912  52.329  1.00  0.00     0.150 C 
BRANCH   8   9
HETATM    9  N2  UNL     1      22.838   0.956  52.476  1.00  0.00    -0.358 N 
HETATM   10  C1  UNL     1      24.136   1.382  52.879  1.00  0.00     0.219 C 
HETATM   11  O1  UNL     1      24.201   2.633  53.079  1.00  0.00    -0.274 OA
HETATM   12  H13 UNL     1      22.553  -0.032  52.259  1.00  0.00     0.162 HD
BRANCH  10  13
HETATM   13  C2  UNL     1      25.081   0.236  52.958  1.00  0.00     0.133 C 
BRANCH  13  14
HETATM   14  C3  UNL     1      26.293   0.460  52.105  1.00  0.00     0.282 C 
BRANCH  14  15
HETATM   15  N1  UNL     1      27.478   0.742  52.889  1.00  0.00     0.093 N 
HETATM   16  C4  UNL     1      27.697   2.163  53.059  1.00  0.00     0.298 C 
HETATM   17  C5  UNL     1      29.017   2.335  53.778  1.00  0.00     0.198 C 
HETATM   18  O2  UNL     1      29.097   1.634  54.966  1.00  0.00    -0.388 OA
HETATM   19  C6  UNL     1      28.730   0.311  54.861  1.00  0.00     0.198 C 
HETATM   20  C7  UNL     1      27.353   0.214  54.243  1.00  0.00     0.298 C 
ENDBRANCH  14  15
ENDBRANCH  13  14
ENDBRANCH  10  13
ENDBRANCH   8   9
ENDBRANCH   1   8
BRANCH   7  21
HETATM   21  N4  UNL     1      23.122   4.047  50.472  1.00  0.00    -0.356 N 
HETATM   22  H21 UNL     1      22.997   4.277  51.499  1.00  0.00     0.166 HD
BRANCH  21  23
HETATM   23  C15 UNL     1      24.452   4.256  49.956  1.00  0.00     0.034 A 
HETATM   24  C16 UNL     1      25.339   3.190  49.855  1.00  0.00     0.032 A 
HETATM   25  C17 UNL     1      26.635   3.358  49.355  1.00  0.00     0.046 A 
HETATM   26  C18 UNL     1      27.050   4.613  48.950  1.00  0.00     0.138 A 
HETATM   27  F1  UNL     1      28.336   4.660  48.477  1.00  0.00    -0.204 F 
HETATM   28  C19 UNL     1      26.180   5.675  49.045  1.00  0.00     0.074 A 
HETATM   29 CL1  UNL     1      26.770   7.233  48.515  1.00  0.00    -0.081 Cl
HETATM   30  C20 UNL     1      24.909   5.488  49.540  1.00  0.00     0.056 A 
ENDBRANCH  21  23
ENDBRANCH   7  21
TORSDOF 7
ENDMDL
MODEL 6
REMARK VINA RESULT:      -7.9      1.610      1.943
REMARK  7 active torsions:
REMARK  status: ('A' for Active; 'I' for Inactive)
REMARK    1  A    between atoms: C1_2  and  C2_3 
REMARK       I    between atoms: C1_2  and  N2_11 
REMARK    2  A    between atoms: C2_3  and  C3_4 
REMARK    3  A    between atoms: C3_4  and  N1_5 
REMARK    4  A    between atoms: N2_11  and  C8_12 
REMARK    5  A    between atoms: C8_12  and  C9_13 
REMARK    6  A    between atoms: C14_19  and  N4_20 
REMARK    7  A    between atoms: N4_20  and  C15_21 
ROOT
HETATM    1  C9  UNL     1      27.189   2.669  51.857  1.00  0.00     0.004 C 
HETATM    2  C10 UNL     1      27.600   1.885  52.834  1.00  0.00    -0.014 A 
HETATM    3  C11 UNL     1      28.668   2.397  53.744  1.00  0.00     0.189 A 
HETATM    4  N3  UNL     1      29.014   1.449  54.745  1.00  0.00    -0.297 NA
HETATM    5  C12 UNL     1      28.490   0.290  54.882  1.00  0.00     0.113 A 
HETATM    6  C13 UNL     1      27.438  -0.253  54.017  1.00  0.00     0.049 A 
HETATM    7  C14 UNL     1      27.046   0.557  53.048  1.00  0.00     0.041 A 
ENDROOT
BRANCH   1   8
HETATM    8  C8  UNL     1      26.266   2.766  50.725  1.00  0.00     0.150 C 
BRANCH   8   9
HETATM    9  N2  UNL     1      26.124   4.117  50.208  1.00  0.00    -0.358 N 
HETATM   10  C1  UNL     1      25.024   4.466  49.372  1.00  0.00     0.219 C 
HETATM   11  O1  UNL     1      24.240   3.492  49.162  1.00  0.00    -0.274 OA
HETATM   12  H13 UNL     1      26.893   4.763  50.515  1.00  0.00     0.162 HD
BRANCH  10  13
HETATM   13  C2  UNL     1      25.089   5.895  48.963  1.00  0.00     0.133 C 
BRANCH  13  14
HETATM   14  C3  UNL     1      25.762   6.738  50.005  1.00  0.00     0.282 C 
BRANCH  14  15
HETATM   15  N1  UNL     1      26.821   7.559  49.454  1.00  0.00     0.093 N 
HETATM   16  C4  UNL     1      26.622   7.836  48.047  1.00  0.00     0.298 C 
HETATM   17  C5  UNL     1      27.841   8.585  47.556  1.00  0.00     0.198 C 
HETATM   18  O2  UNL     1      28.128   9.720  48.291  1.00  0.00    -0.388 OA
HETATM   19  C6  UNL     1      28.156   9.512  49.652  1.00  0.00     0.198 C 
HETATM   20  C7  UNL     1      26.861   8.868  50.095  1.00  0.00     0.298 C 
ENDBRANCH  14  15
ENDBRANCH  13  14
ENDBRANCH  10  13
ENDBRANCH   8   9
ENDBRANCH   1   8
BRANCH   7  21
HETATM   21  N4  UNL     1      26.019   0.017  52.228  1.00  0.00    -0.356 N 
HETATM   22  H21 UNL     1      26.060  -0.441  51.273  1.00  0.00     0.166 HD
BRANCH  21  23
HETATM   23  C15 UNL     1      24.702   0.108  52.807  1.00  0.00     0.034 A 
HETATM   24  C16 UNL     1      24.317  -0.769  53.815  1.00  0.00     0.032 A 
HETATM   25  C17 UNL     1      23.048  -0.705  54.399  1.00  0.00     0.046 A 
HETATM   26  C18 UNL     1      22.148   0.252  53.968  1.00  0.00     0.138 A 
HETATM   27  F1  UNL     1      20.938   0.224  54.611  1.00  0.00    -0.204 F 
HETATM   28  C19 UNL     1      22.518   1.126  52.971  1.00  0.00     0.074 A 
HETATM   29 CL1  UNL     1      21.333   2.311  52.474  1.00  0.00    -0.081 Cl
HETATM   30  C20 UNL     1      23.773   1.046  52.408  1.00  0.00     0.056 A 
ENDBRANCH  21  23
ENDBRANCH   7  21
TORSDOF 7
ENDMDL
MODEL 7
REMARK VINA RESULT:      -7.9      2.836      4.442
REMARK  7 active torsions:
REMARK  status: ('A' for Active; 'I' for Inactive)
REMARK    1  A    between atoms: C1_2  and  C2_3 
REMARK       I    between atoms: C1_2  and  N2_11 
REMARK    2  A    between atoms: C2_3  and  C3_4 
REMARK    3  A    between atoms: C3_4  and  N1_5 
REMARK    4  A    between atoms: N2_11  and  C8_12 
REMARK    5  A    between atoms: C8_12  and  C9_13 
REMARK    6  A    between atoms: C14_19  and  N4_20 
REMARK    7  A    between atoms: N4_20  and  C15_21 
ROOT
HETATM    1  C9  UNL     1      24.024   3.901  49.119  1.00  0.00     0.004 C 
HETATM    2  C10 UNL     1      23.183   2.888  49.191  1.00  0.00    -0.014 A 
HETATM    3  C11 UNL     1      22.519   2.436  47.931  1.00  0.00     0.189 A 
HETATM    4  N3  UNL     1      21.639   1.343  48.156  1.00  0.00    -0.297 NA
HETATM    5  C12 UNL     1      21.422   0.785  49.288  1.00  0.00     0.113 A 
HETATM    6  C13 UNL     1      22.053   1.191  50.547  1.00  0.00     0.049 A 
HETATM    7  C14 UNL     1      22.893   2.208  50.443  1.00  0.00     0.041 A 
ENDROOT
BRANCH   1   8
HETATM    8  C8  UNL     1      24.920   4.754  49.901  1.00  0.00     0.150 C 
BRANCH   8   9
HETATM    9  N2  UNL     1      26.321   4.607  49.540  1.00  0.00    -0.358 N 
HETATM   10  C1  UNL     1      26.952   5.546  48.675  1.00  0.00     0.219 C 
HETATM   11  O1  UNL     1      26.167   6.466  48.293  1.00  0.00    -0.274 OA
HETATM   12  H13 UNL     1      26.777   3.769  49.977  1.00  0.00     0.162 HD
BRANCH  10  13
HETATM   13  C2  UNL     1      28.379   5.194  48.445  1.00  0.00     0.133 C 
BRANCH  13  14
HETATM   14  C3  UNL     1      29.144   6.343  47.858  1.00  0.00     0.282 C 
BRANCH  14  15
HETATM   15  N1  UNL     1      30.395   6.584  48.547  1.00  0.00     0.093 N 
HETATM   16  C4  UNL     1      31.525   6.012  47.844  1.00  0.00     0.298 C 
HETATM   17  C5  UNL     1      32.747   6.214  48.712  1.00  0.00     0.198 C 
HETATM   18  O2  UNL     1      32.955   7.530  49.080  1.00  0.00    -0.388 OA
HETATM   19  C6  UNL     1      31.839   8.148  49.600  1.00  0.00     0.198 C 
HETATM   20  C7  UNL     1      30.685   8.010  48.631  1.00  0.00     0.298 C 
ENDBRANCH  14  15
ENDBRANCH  13  14
ENDBRANCH  10  13
ENDBRANCH   8   9
ENDBRANCH   1   8
BRANCH   7  21
HETATM   21  N4  UNL     1      23.500   2.580  51.672  1.00  0.00    -0.356 N 
HETATM   22  H21 UNL     1      23.375   3.439  52.279  1.00  0.00     0.166 HD
BRANCH  21  23
HETATM   23  C15 UNL     1      24.444   1.611  52.172  1.00  0.00     0.034 A 
HETATM   24  C16 UNL     1      25.667   1.429  51.534  1.00  0.00     0.032 A 
HETATM   25  C17 UNL     1      26.605   0.500  51.995  1.00  0.00     0.046 A 
HETATM   26  C18 UNL     1      26.316  -0.261  53.113  1.00  0.00     0.138 A 
HETATM   27  F1  UNL     1      27.307  -1.135  53.474  1.00  0.00    -0.204 F 
HETATM   28  C19 UNL     1      25.110  -0.089  53.753  1.00  0.00     0.074 A 
HETATM   29 CL1  UNL     1      24.811  -1.082  55.160  1.00  0.00    -0.081 Cl
HETATM   30  C20 UNL     1      24.200   0.831  53.282  1.00  0.00     0.056 A 
ENDBRANCH  21  23
ENDBRANCH   7  21
TORSDOF 7
ENDMDL
MODEL 8
REMARK VINA RESULT:      -7.8      2.677      4.437
REMARK  7 active torsions:
REMARK  status: ('A' for Active; 'I' for Inactive)
REMARK    1  A    between atoms: C1_2  and  C2_3 
REMARK       I    between atoms: C1_2  and  N2_11 
REMARK    2  A    between atoms: C2_3  and  C3_4 
REMARK    3  A    between atoms: C3_4  and  N1_5 
REMARK    4  A    between atoms: N2_11  and  C8_12 
REMARK    5  A    between atoms: C8_12  and  C9_13 
REMARK    6  A    between atoms: C14_19  and  N4_20 
REMARK    7  A    between atoms: N4_20  and  C15_21 
ROOT
HETATM    1  C9  UNL     1      27.319   2.663  51.797  1.00  0.00     0.004 C 
HETATM    2  C10 UNL     1      27.584   1.847  52.800  1.00  0.00    -0.014 A 
HETATM    3  C11 UNL     1      28.640   2.253  53.775  1.00  0.00     0.189 A 
HETATM    4  N3  UNL     1      28.821   1.281  54.797  1.00  0.00    -0.297 NA
HETATM    5  C12 UNL     1      28.172   0.183  54.901  1.00  0.00     0.113 A 
HETATM    6  C13 UNL     1      27.126  -0.253  53.972  1.00  0.00     0.049 A 
HETATM    7  C14 UNL     1      26.882   0.586  52.979  1.00  0.00     0.041 A 
ENDROOT
BRANCH   1   8
HETATM    8  C8  UNL     1      26.485   2.847  50.609  1.00  0.00     0.150 C 
BRANCH   8   9
HETATM    9  N2  UNL     1      25.517   3.923  50.742  1.00  0.00    -0.358 N 
HETATM   10  C1  UNL     1      25.513   5.017  49.830  1.00  0.00     0.219 C 
HETATM   11  O1  UNL     1      26.415   4.919  48.944  1.00  0.00    -0.274 OA
HETATM   12  H13 UNL     1      24.860   3.794  51.552  1.00  0.00     0.162 HD
BRANCH  10  13
HETATM   13  C2  UNL     1      24.443   5.994  50.162  1.00  0.00     0.133 C 
BRANCH  13  14
HETATM   14  C3  UNL     1      23.402   6.061  49.085  1.00  0.00     0.282 C 
BRANCH  14  15
HETATM   15  N1  UNL     1      22.202   5.325  49.428  1.00  0.00     0.093 N 
HETATM   16  C4  UNL     1      22.220   3.975  48.907  1.00  0.00     0.298 C 
HETATM   17  C5  UNL     1      20.876   3.352  49.215  1.00  0.00     0.198 C 
HETATM   18  O2  UNL     1      20.533   3.406  50.552  1.00  0.00    -0.388 OA
HETATM   19  C6  UNL     1      20.670   4.655  51.115  1.00  0.00     0.198 C 
HETATM   20  C7  UNL     1      22.072   5.171  50.872  1.00  0.00     0.298 C 
ENDBRANCH  14  15
ENDBRANCH  13  14
ENDBRANCH  10  13
ENDBRANCH   8   9
ENDBRANCH   1   8
BRANCH   7  21
HETATM   21  N4  UNL     1      25.859   0.149  52.095  1.00  0.00    -0.356 N 
HETATM   22  H21 UNL     1      25.909  -0.262  51.120  1.00  0.00     0.166 HD
BRANCH  21  23
HETATM   23  C15 UNL     1      24.527   0.289  52.631  1.00  0.00     0.034 A 
HETATM   24  C16 UNL     1      23.822   1.475  52.456  1.00  0.00     0.032 A 
HETATM   25  C17 UNL     1      22.528   1.642  52.961  1.00  0.00     0.046 A 
HETATM   26  C18 UNL     1      21.929   0.606  53.652  1.00  0.00     0.138 A 
HETATM   27  F1  UNL     1      20.663   0.879  54.099  1.00  0.00    -0.204 F 
HETATM   28  C19 UNL     1      22.617  -0.573  53.831  1.00  0.00     0.074 A 
HETATM   29 CL1  UNL     1      21.800  -1.842  54.714  1.00  0.00    -0.081 Cl
HETATM   30  C20 UNL     1      23.890  -0.717  53.327  1.00  0.00     0.056 A 
ENDBRANCH  21  23
ENDBRANCH   7  21
TORSDOF 7
ENDMDL
MODEL 9
REMARK VINA RESULT:      -7.3      5.203      9.958
REMARK  7 active torsions:
REMARK  status: ('A' for Active; 'I' for Inactive)
REMARK    1  A    between atoms: C1_2  and  C2_3 
REMARK       I    between atoms: C1_2  and  N2_11 
REMARK    2  A    between atoms: C2_3  and  C3_4 
REMARK    3  A    between atoms: C3_4  and  N1_5 
REMARK    4  A    between atoms: N2_11  and  C8_12 
REMARK    5  A    between atoms: C8_12  and  C9_13 
REMARK    6  A    between atoms: C14_19  and  N4_20 
REMARK    7  A    between atoms: N4_20  and  C15_21 
ROOT
HETATM    1  C9  UNL     1      29.448   5.292  48.117  1.00  0.00     0.004 C 
HETATM    2  C10 UNL     1      30.727   5.610  48.168  1.00  0.00    -0.014 A 
HETATM    3  C11 UNL     1      31.705   4.696  47.503  1.00  0.00     0.189 A 
HETATM    4  N3  UNL     1      33.042   5.159  47.640  1.00  0.00    -0.297 NA
HETATM    5  C12 UNL     1      33.400   6.227  48.248  1.00  0.00     0.113 A 
HETATM    6  C13 UNL     1      32.477   7.154  48.909  1.00  0.00     0.049 A 
HETATM    7  C14 UNL     1      31.202   6.809  48.839  1.00  0.00     0.041 A 
ENDROOT
BRANCH   1   8
HETATM    8  C8  UNL     1      28.107   5.712  48.522  1.00  0.00     0.150 C 
BRANCH   8   9
HETATM    9  N2  UNL     1      27.214   4.602  48.810  1.00  0.00    -0.358 N 
HETATM   10  C1  UNL     1      25.978   4.816  49.484  1.00  0.00     0.219 C 
HETATM   11  O1  UNL     1      25.783   6.035  49.776  1.00  0.00    -0.274 OA
HETATM   12  H13 UNL     1      27.579   3.677  48.473  1.00  0.00     0.162 HD
BRANCH  10  13
HETATM   13  C2  UNL     1      25.236   3.540  49.671  1.00  0.00     0.133 C 
BRANCH  13  14
HETATM   14  C3  UNL     1      24.817   3.349  51.098  1.00  0.00     0.282 C 
BRANCH  14  15
HETATM   15  N1  UNL     1      25.067   2.004  51.574  1.00  0.00     0.093 N 
HETATM   16  C4  UNL     1      26.470   1.653  51.507  1.00  0.00     0.298 C 
HETATM   17  C5  UNL     1      26.592   0.199  51.904  1.00  0.00     0.198 C 
HETATM   18  O2  UNL     1      26.025  -0.091  53.131  1.00  0.00    -0.388 OA
HETATM   19  C6  UNL     1      24.741   0.384  53.280  1.00  0.00     0.198 C 
HETATM   20  C7  UNL     1      24.710   1.867  52.981  1.00  0.00     0.298 C 
ENDBRANCH  14  15
ENDBRANCH  13  14
ENDBRANCH  10  13
ENDBRANCH   8   9
ENDBRANCH   1   8
BRANCH   7  21
HETATM   21  N4  UNL     1      30.323   7.725  49.478  1.00  0.00    -0.356 N 
HETATM   22  H21 UNL     1      29.772   7.648  50.379  1.00  0.00     0.166 HD
BRANCH  21  23
HETATM   23  C15 UNL     1      30.167   8.972  48.770  1.00  0.00     0.034 A 
HETATM   24  C16 UNL     1      29.708   8.981  47.457  1.00  0.00     0.032 A 
HETATM   25  C17 UNL     1      29.543  10.173  46.745  1.00  0.00     0.046 A 
HETATM   26  C18 UNL     1      29.842  11.377  47.355  1.00  0.00     0.138 A 
HETATM   27  F1  UNL     1      29.641  12.478  46.565  1.00  0.00    -0.204 F 
HETATM   28  C19 UNL     1      30.296  11.381  48.654  1.00  0.00     0.074 A 
HETATM   29 CL1  UNL     1      30.654  12.937  49.365  1.00  0.00    -0.081 Cl
HETATM   30  C20 UNL     1      30.452  10.196  49.338  1.00  0.00     0.056 A 
ENDBRANCH  21  23
ENDBRANCH   7  21
TORSDOF 7
ENDMDL
