MODEL 1
REMARK VINA RESULT:      -7.9      0.000      0.000
REMARK  8 active torsions:
REMARK  status: ('A' for Active; 'I' for Inactive)
REMARK    1  A    between atoms: C7_7  and  N1_8 
REMARK    2  A    between atoms: N1_8  and  C8_9 
REMARK    3  A    between atoms: C12_15  and  O1_16 
REMARK    4  A    between atoms: O1_16  and  C13_17 
REMARK    5  A    between atoms: C13_17  and  C14_18 
REMARK    6  A    between atoms: C14_18  and  O2_19 
REMARK    7  A    between atoms: C15_20  and  C16_21 
REMARK    8  A    between atoms: C16_21  and  O3_22 
ROOT
HETATM    1  C1  UNL     1      30.493  -1.729  53.991  1.00  0.00     0.018 C 
HETATM    2  C2  UNL     1      29.650  -0.896  53.756  1.00  0.00    -0.078 C 
HETATM    3  C3  UNL     1      28.649   0.069  53.499  1.00  0.00     0.019 A 
HETATM    4  C4  UNL     1      28.951   1.409  53.537  1.00  0.00     0.021 A 
HETATM    5  C5  UNL     1      27.954   2.320  53.282  1.00  0.00     0.004 A 
HETATM    6  C6  UNL     1      26.688   1.857  52.998  1.00  0.00     0.029 A 
HETATM    7  C7  UNL     1      26.313   0.535  52.942  1.00  0.00     0.035 A 
HETATM    8  C20 UNL     1      27.364  -0.311  53.209  1.00  0.00     0.050 A 
ENDROOT
BRANCH   7   9
HETATM    9  N1  UNL     1      24.998   0.111  52.636  1.00  0.00    -0.340 N 
HETATM   10  H5  UNL     1      24.845   0.186  51.626  1.00  0.00     0.167 HD
BRANCH   9  11
HETATM   11  C8  UNL     1      23.998  -0.351  53.523  1.00  0.00     0.142 A 
HETATM   12  N2  UNL     1      24.235  -0.899  54.715  1.00  0.00    -0.224 NA
HETATM   13  C9  UNL     1      23.329  -1.351  55.587  1.00  0.00     0.236 A 
HETATM   14  N3  UNL     1      22.050  -1.228  55.192  1.00  0.00    -0.241 NA
HETATM   15  C10 UNL     1      21.711  -0.690  54.010  1.00  0.00     0.074 A 
HETATM   16  C11 UNL     1      20.374  -0.624  53.727  1.00  0.00     0.070 A 
HETATM   17  C19 UNL     1      22.682  -0.238  53.145  1.00  0.00     0.039 A 
HETATM   18  C12 UNL     1      19.896  -0.097  52.553  1.00  0.00     0.079 A 
HETATM   19  C15 UNL     1      20.877   0.365  51.666  1.00  0.00    -0.000 A 
HETATM   20  C18 UNL     1      22.231   0.294  51.959  1.00  0.00     0.029 A 
BRANCH  18  21
HETATM   21  O1  UNL     1      18.641   0.061  52.080  1.00  0.00    -0.348 OA
BRANCH  21  22
HETATM   22  C13 UNL     1      17.603  -0.800  51.843  1.00  0.00     0.201 C 
BRANCH  22  23
HETATM   23  C14 UNL     1      16.899  -1.393  53.016  1.00  0.00     0.190 C 
BRANCH  23  24
HETATM   24  O2  UNL     1      15.853  -0.502  53.370  1.00  0.00    -0.399 OA
HETATM   25  H12 UNL     1      15.356  -0.826  54.161  1.00  0.00     0.209 HD
ENDBRANCH  23  24
ENDBRANCH  22  23
ENDBRANCH  21  22
ENDBRANCH  18  21
BRANCH  19  26
HETATM   26  C16 UNL     1      20.527   0.972  50.333  1.00  0.00     0.208 C 
BRANCH  26  27
HETATM   27  O3  UNL     1      21.603   0.855  49.488  1.00  0.00    -0.391 OA
HETATM   28  C17 UNL     1      21.587   1.784  48.451  1.00  0.00     0.201 C 
ENDBRANCH  26  27
ENDBRANCH  19  26
ENDBRANCH   9  11
ENDBRANCH   7   9
TORSDOF 8
ENDMDL
MODEL 2
REMARK VINA RESULT:      -7.8      4.037      5.462
REMARK  8 active torsions:
REMARK  status: ('A' for Active; 'I' for Inactive)
REMARK    1  A    between atoms: C7_7  and  N1_8 
REMARK    2  A    between atoms: N1_8  and  C8_9 
REMARK    3  A    between atoms: C12_15  and  O1_16 
REMARK    4  A    between atoms: O1_16  and  C13_17 
REMARK    5  A    between atoms: C13_17  and  C14_18 
REMARK    6  A    between atoms: C14_18  and  O2_19 
REMARK    7  A    between atoms: C15_20  and  C16_21 
REMARK    8  A    between atoms: C16_21  and  O3_22 
ROOT
HETATM    1  C1  UNL     1      30.992   5.884  47.567  1.00  0.00     0.018 C 
HETATM    2  C2  UNL     1      29.823   5.873  47.873  1.00  0.00    -0.078 C 
HETATM    3  C3  UNL     1      28.462   5.853  48.254  1.00  0.00     0.019 A 
HETATM    4  C4  UNL     1      27.706   6.998  48.191  1.00  0.00     0.021 A 
HETATM    5  C5  UNL     1      26.386   6.941  48.570  1.00  0.00     0.004 A 
HETATM    6  C6  UNL     1      25.868   5.739  48.998  1.00  0.00     0.029 A 
HETATM    7  C7  UNL     1      26.563   4.555  49.087  1.00  0.00     0.035 A 
HETATM    8  C20 UNL     1      27.873   4.695  48.693  1.00  0.00     0.050 A 
ENDROOT
BRANCH   7   9
HETATM    9  N1  UNL     1      25.980   3.342  49.526  1.00  0.00    -0.340 N 
HETATM   10  H5  UNL     1      25.418   2.943  48.768  1.00  0.00     0.167 HD
BRANCH   9  11
HETATM   11  C8  UNL     1      26.102   2.718  50.789  1.00  0.00     0.142 A 
HETATM   12  N2  UNL     1      27.230   2.656  51.499  1.00  0.00    -0.224 NA
HETATM   13  C9  UNL     1      27.399   2.080  52.692  1.00  0.00     0.236 A 
HETATM   14  N3  UNL     1      26.296   1.508  53.208  1.00  0.00    -0.241 NA
HETATM   15  C10 UNL     1      25.115   1.518  52.569  1.00  0.00     0.074 A 
HETATM   16  C11 UNL     1      24.071   0.899  53.201  1.00  0.00     0.070 A 
HETATM   17  C19 UNL     1      24.992   2.125  51.340  1.00  0.00     0.039 A 
HETATM   18  C12 UNL     1      22.814   0.840  52.655  1.00  0.00     0.079 A 
HETATM   19  C15 UNL     1      22.678   1.455  51.403  1.00  0.00    -0.000 A 
HETATM   20  C18 UNL     1      23.741   2.079  50.768  1.00  0.00     0.029 A 
BRANCH  18  21
HETATM   21  O1  UNL     1      21.663   0.289  53.099  1.00  0.00    -0.348 OA
BRANCH  21  22
HETATM   22  C13 UNL     1      21.240  -0.169  54.318  1.00  0.00     0.201 C 
BRANCH  22  23
HETATM   23  C14 UNL     1      21.405  -1.619  54.620  1.00  0.00     0.190 C 
BRANCH  23  24
HETATM   24  O2  UNL     1      22.524  -1.741  55.484  1.00  0.00    -0.399 OA
HETATM   25  H12 UNL     1      22.299  -2.261  56.294  1.00  0.00     0.209 HD
ENDBRANCH  23  24
ENDBRANCH  22  23
ENDBRANCH  21  22
ENDBRANCH  18  21
BRANCH  19  26
HETATM   26  C16 UNL     1      21.367   1.481  50.663  1.00  0.00     0.208 C 
BRANCH  26  27
HETATM   27  O3  UNL     1      21.381   2.515  49.759  1.00  0.00    -0.391 OA
HETATM   28  C17 UNL     1      20.667   2.233  48.597  1.00  0.00     0.201 C 
ENDBRANCH  26  27
ENDBRANCH  19  26
ENDBRANCH   9  11
ENDBRANCH   7   9
TORSDOF 8
ENDMDL
MODEL 3
REMARK VINA RESULT:      -7.7      3.903      5.764
REMARK  8 active torsions:
REMARK  status: ('A' for Active; 'I' for Inactive)
REMARK    1  A    between atoms: C7_7  and  N1_8 
REMARK    2  A    between atoms: N1_8  and  C8_9 
REMARK    3  A    between atoms: C12_15  and  O1_16 
REMARK    4  A    between atoms: O1_16  and  C13_17 
REMARK    5  A    between atoms: C13_17  and  C14_18 
REMARK    6  A    between atoms: C14_18  and  O2_19 
REMARK    7  A    between atoms: C15_20  and  C16_21 
REMARK    8  A    between atoms: C16_21  and  O3_22 
ROOT
HETATM    1  C1  UNL     1      23.740   8.244  49.986  1.00  0.00     0.018 C 
HETATM    2  C2  UNL     1      24.637   7.494  49.684  1.00  0.00    -0.078 C 
HETATM    3  C3  UNL     1      25.671   6.601  49.320  1.00  0.00     0.019 A 
HETATM    4  C4  UNL     1      26.737   7.041  48.574  1.00  0.00     0.021 A 
HETATM    5  C5  UNL     1      27.724   6.146  48.237  1.00  0.00     0.004 A 
HETATM    6  C6  UNL     1      27.610   4.839  48.660  1.00  0.00     0.029 A 
HETATM    7  C7  UNL     1      26.574   4.329  49.408  1.00  0.00     0.035 A 
HETATM    8  C20 UNL     1      25.630   5.285  49.702  1.00  0.00     0.050 A 
ENDROOT
BRANCH   7   9
HETATM    9  N1  UNL     1      26.508   2.978  49.825  1.00  0.00    -0.340 N 
HETATM   10  H5  UNL     1      26.491   2.370  49.000  1.00  0.00     0.167 HD
BRANCH   9  11
HETATM   11  C8  UNL     1      26.467   2.469  51.144  1.00  0.00     0.142 A 
HETATM   12  N2  UNL     1      27.509   2.430  51.975  1.00  0.00    -0.224 NA
HETATM   13  C9  UNL     1      27.524   1.961  53.226  1.00  0.00     0.236 A 
HETATM   14  N3  UNL     1      26.348   1.481  53.666  1.00  0.00    -0.241 NA
HETATM   15  C10 UNL     1      25.242   1.476  52.903  1.00  0.00     0.074 A 
HETATM   16  C11 UNL     1      24.109   0.958  53.469  1.00  0.00     0.070 A 
HETATM   17  C19 UNL     1      25.278   1.972  51.620  1.00  0.00     0.039 A 
HETATM   18  C12 UNL     1      22.915   0.896  52.796  1.00  0.00     0.079 A 
HETATM   19  C15 UNL     1      22.942   1.398  51.489  1.00  0.00    -0.000 A 
HETATM   20  C18 UNL     1      24.094   1.920  50.921  1.00  0.00     0.029 A 
BRANCH  18  21
HETATM   21  O1  UNL     1      21.699   0.432  53.159  1.00  0.00    -0.348 OA
BRANCH  21  22
HETATM   22  C13 UNL     1      21.196  -0.108  54.312  1.00  0.00     0.201 C 
BRANCH  22  23
HETATM   23  C14 UNL     1      21.453  -1.550  54.584  1.00  0.00     0.190 C 
BRANCH  23  24
HETATM   24  O2  UNL     1      22.566  -1.618  55.461  1.00  0.00    -0.399 OA
HETATM   25  H12 UNL     1      22.361  -1.207  56.336  1.00  0.00     0.209 HD
ENDBRANCH  23  24
ENDBRANCH  22  23
ENDBRANCH  21  22
ENDBRANCH  18  21
BRANCH  19  26
HETATM   26  C16 UNL     1      21.719   1.405  50.610  1.00  0.00     0.208 C 
BRANCH  26  27
HETATM   27  O3  UNL     1      21.548   2.662  50.085  1.00  0.00    -0.391 OA
HETATM   28  C17 UNL     1      20.306   3.216  50.389  1.00  0.00     0.201 C 
ENDBRANCH  26  27
ENDBRANCH  19  26
ENDBRANCH   9  11
ENDBRANCH   7   9
TORSDOF 8
ENDMDL
MODEL 4
REMARK VINA RESULT:      -7.4      6.469      9.982
REMARK  8 active torsions:
REMARK  status: ('A' for Active; 'I' for Inactive)
REMARK    1  A    between atoms: C7_7  and  N1_8 
REMARK    2  A    between atoms: N1_8  and  C8_9 
REMARK    3  A    between atoms: C12_15  and  O1_16 
REMARK    4  A    between atoms: O1_16  and  C13_17 
REMARK    5  A    between atoms: C13_17  and  C14_18 
REMARK    6  A    between atoms: C14_18  and  O2_19 
REMARK    7  A    between atoms: C15_20  and  C16_21 
REMARK    8  A    between atoms: C16_21  and  O3_22 
ROOT
HETATM    1  C1  UNL     1      29.225   1.530  54.321  1.00  0.00     0.018 C 
HETATM    2  C2  UNL     1      28.233   1.635  53.639  1.00  0.00    -0.078 C 
HETATM    3  C3  UNL     1      27.084   1.749  52.822  1.00  0.00     0.019 A 
HETATM    4  C4  UNL     1      25.901   1.164  53.204  1.00  0.00     0.021 A 
HETATM    5  C5  UNL     1      24.804   1.295  52.386  1.00  0.00     0.004 A 
HETATM    6  C6  UNL     1      24.930   2.007  51.213  1.00  0.00     0.029 A 
HETATM    7  C7  UNL     1      26.079   2.617  50.768  1.00  0.00     0.035 A 
HETATM    8  C20 UNL     1      27.129   2.440  51.639  1.00  0.00     0.050 A 
ENDROOT
BRANCH   7   9
HETATM    9  N1  UNL     1      26.154   3.346  49.556  1.00  0.00    -0.340 N 
HETATM   10  H5  UNL     1      26.492   2.729  48.811  1.00  0.00     0.167 HD
BRANCH   9  11
HETATM   11  C8  UNL     1      25.835   4.705  49.330  1.00  0.00     0.142 A 
HETATM   12  N2  UNL     1      24.637   5.249  49.546  1.00  0.00    -0.224 NA
HETATM   13  C9  UNL     1      24.284   6.522  49.347  1.00  0.00     0.236 A 
HETATM   14  N3  UNL     1      25.263   7.316  48.879  1.00  0.00    -0.241 NA
HETATM   15  C10 UNL     1      26.501   6.861  48.630  1.00  0.00     0.074 A 
HETATM   16  C11 UNL     1      27.405   7.771  48.154  1.00  0.00     0.070 A 
HETATM   17  C19 UNL     1      26.815   5.539  48.851  1.00  0.00     0.039 A 
HETATM   18  C12 UNL     1      28.702   7.433  47.860  1.00  0.00     0.079 A 
HETATM   19  C15 UNL     1      29.032   6.090  48.081  1.00  0.00    -0.000 A 
HETATM   20  C18 UNL     1      28.110   5.172  48.563  1.00  0.00     0.029 A 
BRANCH  18  21
HETATM   21  O1  UNL     1      29.738   8.160  47.388  1.00  0.00    -0.348 OA
BRANCH  21  22
HETATM   22  C13 UNL     1      30.325   9.334  47.774  1.00  0.00     0.201 C 
BRANCH  22  23
HETATM   23  C14 UNL     1      30.922   9.407  49.138  1.00  0.00     0.190 C 
BRANCH  23  24
HETATM   24  O2  UNL     1      29.932   9.946  49.999  1.00  0.00    -0.399 OA
HETATM   25  H12 UNL     1      30.335  10.515  50.700  1.00  0.00     0.209 HD
ENDBRANCH  23  24
ENDBRANCH  22  23
ENDBRANCH  21  22
ENDBRANCH  18  21
BRANCH  19  26
HETATM   26  C16 UNL     1      30.411   5.550  47.810  1.00  0.00     0.208 C 
BRANCH  26  27
HETATM   27  O3  UNL     1      30.963   5.111  48.988  1.00  0.00    -0.391 OA
HETATM   28  C17 UNL     1      31.733   6.080  49.626  1.00  0.00     0.201 C 
ENDBRANCH  26  27
ENDBRANCH  19  26
ENDBRANCH   9  11
ENDBRANCH   7   9
TORSDOF 8
ENDMDL
MODEL 5
REMARK VINA RESULT:      -7.4      5.569      8.799
REMARK  8 active torsions:
REMARK  status: ('A' for Active; 'I' for Inactive)
REMARK    1  A    between atoms: C7_7  and  N1_8 
REMARK    2  A    between atoms: N1_8  and  C8_9 
REMARK    3  A    between atoms: C12_15  and  O1_16 
REMARK    4  A    between atoms: O1_16  and  C13_17 
REMARK    5  A    between atoms: C13_17  and  C14_18 
REMARK    6  A    between atoms: C14_18  and  O2_19 
REMARK    7  A    between atoms: C15_20  and  C16_21 
REMARK    8  A    between atoms: C16_21  and  O3_22 
ROOT
HETATM    1  C1  UNL     1      21.883  -1.274  54.566  1.00  0.00     0.018 C 
HETATM    2  C2  UNL     1      22.835  -0.797  53.994  1.00  0.00    -0.078 C 
HETATM    3  C3  UNL     1      23.942  -0.217  53.334  1.00  0.00     0.019 A 
HETATM    4  C4  UNL     1      25.219  -0.626  53.631  1.00  0.00     0.021 A 
HETATM    5  C5  UNL     1      26.272  -0.040  52.970  1.00  0.00     0.004 A 
HETATM    6  C6  UNL     1      26.010   0.935  52.033  1.00  0.00     0.029 A 
HETATM    7  C7  UNL     1      24.761   1.393  51.684  1.00  0.00     0.035 A 
HETATM    8  C20 UNL     1      23.764   0.760  52.389  1.00  0.00     0.050 A 
ENDROOT
BRANCH   7   9
HETATM    9  N1  UNL     1      24.544   2.394  50.707  1.00  0.00    -0.340 N 
HETATM   10  H5  UNL     1      24.655   1.985  49.774  1.00  0.00     0.167 HD
BRANCH   9  11
HETATM   11  C8  UNL     1      24.224   3.757  50.904  1.00  0.00     0.142 A 
HETATM   12  N2  UNL     1      23.180   4.198  51.607  1.00  0.00    -0.224 NA
HETATM   13  C9  UNL     1      22.834   5.470  51.822  1.00  0.00     0.236 A 
HETATM   14  N3  UNL     1      23.643   6.382  51.255  1.00  0.00    -0.241 NA
HETATM   15  C10 UNL     1      24.718   6.037  50.529  1.00  0.00     0.074 A 
HETATM   16  C11 UNL     1      25.459   7.061  50.006  1.00  0.00     0.070 A 
HETATM   17  C19 UNL     1      25.033   4.711  50.336  1.00  0.00     0.039 A 
HETATM   18  C12 UNL     1      26.581   6.843  49.246  1.00  0.00     0.079 A 
HETATM   19  C15 UNL     1      26.909   5.496  49.043  1.00  0.00    -0.000 A 
HETATM   20  C18 UNL     1      26.153   4.462  49.576  1.00  0.00     0.029 A 
BRANCH  18  21
HETATM   21  O1  UNL     1      27.441   7.692  48.642  1.00  0.00    -0.348 OA
BRANCH  21  22
HETATM   22  C13 UNL     1      27.939   8.924  48.968  1.00  0.00     0.201 C 
BRANCH  22  23
HETATM   23  C14 UNL     1      29.411   9.138  48.862  1.00  0.00     0.190 C 
BRANCH  23  24
HETATM   24  O2  UNL     1      29.849   9.653  50.109  1.00  0.00    -0.399 OA
HETATM   25  H12 UNL     1      30.058   8.926  50.745  1.00  0.00     0.209 HD
ENDBRANCH  23  24
ENDBRANCH  22  23
ENDBRANCH  21  22
ENDBRANCH  18  21
BRANCH  19  26
HETATM   26  C16 UNL     1      28.108   5.078  48.233  1.00  0.00     0.208 C 
BRANCH  26  27
HETATM   27  O3  UNL     1      29.245   5.266  48.980  1.00  0.00    -0.391 OA
HETATM   28  C17 UNL     1      30.360   5.580  48.207  1.00  0.00     0.201 C 
ENDBRANCH  26  27
ENDBRANCH  19  26
ENDBRANCH   9  11
ENDBRANCH   7   9
TORSDOF 8
ENDMDL
MODEL 6
REMARK VINA RESULT:      -7.3      3.616      7.914
REMARK  8 active torsions:
REMARK  status: ('A' for Active; 'I' for Inactive)
REMARK    1  A    between atoms: C7_7  and  N1_8 
REMARK    2  A    between atoms: N1_8  and  C8_9 
REMARK    3  A    between atoms: C12_15  and  O1_16 
REMARK    4  A    between atoms: O1_16  and  C13_17 
REMARK    5  A    between atoms: C13_17  and  C14_18 
REMARK    6  A    between atoms: C14_18  and  O2_19 
REMARK    7  A    between atoms: C15_20  and  C16_21 
REMARK    8  A    between atoms: C16_21  and  O3_22 
ROOT
HETATM    1  C1  UNL     1      17.590  -0.774  52.663  1.00  0.00     0.018 C 
HETATM    2  C2  UNL     1      18.741  -0.738  53.028  1.00  0.00    -0.078 C 
HETATM    3  C3  UNL     1      20.084  -0.674  53.464  1.00  0.00     0.019 A 
HETATM    4  C4  UNL     1      20.583  -1.627  54.318  1.00  0.00     0.021 A 
HETATM    5  C5  UNL     1      21.894  -1.534  54.722  1.00  0.00     0.004 A 
HETATM    6  C6  UNL     1      22.660  -0.487  54.256  1.00  0.00     0.029 A 
HETATM    7  C7  UNL     1      22.229   0.501  53.402  1.00  0.00     0.035 A 
HETATM    8  C20 UNL     1      20.911   0.337  53.046  1.00  0.00     0.050 A 
ENDROOT
BRANCH   7   9
HETATM    9  N1  UNL     1      23.061   1.551  52.946  1.00  0.00    -0.340 N 
HETATM   10  H5  UNL     1      22.570   2.444  53.057  1.00  0.00     0.167 HD
BRANCH   9  11
HETATM   11  C8  UNL     1      24.367   1.466  52.410  1.00  0.00     0.142 A 
HETATM   12  N2  UNL     1      25.251   0.515  52.713  1.00  0.00    -0.224 NA
HETATM   13  C9  UNL     1      26.493   0.389  52.238  1.00  0.00     0.236 A 
HETATM   14  N3  UNL     1      26.864   1.339  51.361  1.00  0.00    -0.241 NA
HETATM   15  C10 UNL     1      26.045   2.337  50.993  1.00  0.00     0.074 A 
HETATM   16  C11 UNL     1      26.544   3.240  50.095  1.00  0.00     0.070 A 
HETATM   17  C19 UNL     1      24.773   2.423  51.512  1.00  0.00     0.039 A 
HETATM   18  C12 UNL     1      25.809   4.306  49.638  1.00  0.00     0.079 A 
HETATM   19  C15 UNL     1      24.513   4.402  50.161  1.00  0.00    -0.000 A 
HETATM   20  C18 UNL     1      24.013   3.484  51.073  1.00  0.00     0.029 A 
BRANCH  18  21
HETATM   21  O1  UNL     1      26.102   5.298  48.769  1.00  0.00    -0.348 OA
BRANCH  21  22
HETATM   22  C13 UNL     1      26.912   6.399  48.828  1.00  0.00     0.201 C 
BRANCH  22  23
HETATM   23  C14 UNL     1      28.269   6.307  48.218  1.00  0.00     0.190 C 
BRANCH  23  24
HETATM   24  O2  UNL     1      29.026   5.411  49.016  1.00  0.00    -0.399 OA
HETATM   25  H12 UNL     1      28.982   4.488  48.663  1.00  0.00     0.209 HD
ENDBRANCH  23  24
ENDBRANCH  22  23
ENDBRANCH  21  22
ENDBRANCH  18  21
BRANCH  19  26
HETATM   26  C16 UNL     1      23.572   5.510  49.768  1.00  0.00     0.208 C 
BRANCH  26  27
HETATM   27  O3  UNL     1      22.418   4.964  49.263  1.00  0.00    -0.391 OA
HETATM   28  C17 UNL     1      22.526   4.602  47.923  1.00  0.00     0.201 C 
ENDBRANCH  26  27
ENDBRANCH  19  26
ENDBRANCH   9  11
ENDBRANCH   7   9
TORSDOF 8
ENDMDL
MODEL 7
REMARK VINA RESULT:      -7.3      3.167      8.157
REMARK  8 active torsions:
REMARK  status: ('A' for Active; 'I' for Inactive)
REMARK    1  A    between atoms: C7_7  and  N1_8 
REMARK    2  A    between atoms: N1_8  and  C8_9 
REMARK    3  A    between atoms: C12_15  and  O1_16 
REMARK    4  A    between atoms: O1_16  and  C13_17 
REMARK    5  A    between atoms: C13_17  and  C14_18 
REMARK    6  A    between atoms: C14_18  and  O2_19 
REMARK    7  A    between atoms: C15_20  and  C16_21 
REMARK    8  A    between atoms: C16_21  and  O3_22 
ROOT
HETATM    1  C1  UNL     1      17.915  -1.947  53.500  1.00  0.00     0.018 C 
HETATM    2  C2  UNL     1      18.298  -1.051  52.784  1.00  0.00    -0.078 C 
HETATM    3  C3  UNL     1      18.769  -0.013  51.948  1.00  0.00     0.019 A 
HETATM    4  C4  UNL     1      18.198   0.199  50.717  1.00  0.00     0.021 A 
HETATM    5  C5  UNL     1      18.681   1.217  49.930  1.00  0.00     0.004 A 
HETATM    6  C6  UNL     1      19.721   1.988  50.403  1.00  0.00     0.029 A 
HETATM    7  C7  UNL     1      20.340   1.833  51.622  1.00  0.00     0.035 A 
HETATM    8  C20 UNL     1      19.801   0.797  52.347  1.00  0.00     0.050 A 
ENDROOT
BRANCH   7   9
HETATM    9  N1  UNL     1      21.400   2.659  52.065  1.00  0.00    -0.340 N 
HETATM   10  H5  UNL     1      21.142   3.091  52.958  1.00  0.00     0.167 HD
BRANCH   9  11
HETATM   11  C8  UNL     1      22.644   2.902  51.437  1.00  0.00     0.142 A 
HETATM   12  N2  UNL     1      22.851   3.823  50.495  1.00  0.00    -0.224 NA
HETATM   13  C9  UNL     1      24.002   4.091  49.871  1.00  0.00     0.236 A 
HETATM   14  N3  UNL     1      25.045   3.334  50.254  1.00  0.00    -0.241 NA
HETATM   15  C10 UNL     1      24.936   2.382  51.195  1.00  0.00     0.074 A 
HETATM   16  C11 UNL     1      26.073   1.682  51.493  1.00  0.00     0.070 A 
HETATM   17  C19 UNL     1      23.728   2.144  51.809  1.00  0.00     0.039 A 
HETATM   18  C12 UNL     1      26.095   0.683  52.434  1.00  0.00     0.079 A 
HETATM   19  C15 UNL     1      24.869   0.433  53.064  1.00  0.00    -0.000 A 
HETATM   20  C18 UNL     1      23.720   1.146  52.757  1.00  0.00     0.029 A 
BRANCH  18  21
HETATM   21  O1  UNL     1      27.088  -0.120  52.874  1.00  0.00    -0.348 OA
BRANCH  21  22
HETATM   22  C13 UNL     1      28.379   0.101  53.272  1.00  0.00     0.201 C 
BRANCH  22  23
HETATM   23  C14 UNL     1      28.604   0.783  54.579  1.00  0.00     0.190 C 
BRANCH  23  24
HETATM   24  O2  UNL     1      28.441   2.175  54.357  1.00  0.00    -0.399 OA
HETATM   25  H12 UNL     1      29.199   2.550  53.846  1.00  0.00     0.209 HD
ENDBRANCH  23  24
ENDBRANCH  22  23
ENDBRANCH  21  22
ENDBRANCH  18  21
BRANCH  19  26
HETATM   26  C16 UNL     1      24.716  -0.629  54.121  1.00  0.00     0.208 C 
BRANCH  26  27
HETATM   27  O3  UNL     1      23.380  -0.851  54.347  1.00  0.00    -0.391 OA
HETATM   28  C17 UNL     1      23.132  -1.521  55.543  1.00  0.00     0.201 C 
ENDBRANCH  26  27
ENDBRANCH  19  26
ENDBRANCH   9  11
ENDBRANCH   7   9
TORSDOF 8
ENDMDL
MODEL 8
REMARK VINA RESULT:      -7.2      1.245      1.979
REMARK  8 active torsions:
REMARK  status: ('A' for Active; 'I' for Inactive)
REMARK    1  A    between atoms: C7_7  and  N1_8 
REMARK    2  A    between atoms: N1_8  and  C8_9 
REMARK    3  A    between atoms: C12_15  and  O1_16 
REMARK    4  A    between atoms: O1_16  and  C13_17 
REMARK    5  A    between atoms: C13_17  and  C14_18 
REMARK    6  A    between atoms: C14_18  and  O2_19 
REMARK    7  A    between atoms: C15_20  and  C16_21 
REMARK    8  A    between atoms: C16_21  and  O3_22 
ROOT
HETATM    1  C1  UNL     1      29.840   2.122  54.606  1.00  0.00     0.018 C 
HETATM    2  C2  UNL     1      29.102   1.280  54.153  1.00  0.00    -0.078 C 
HETATM    3  C3  UNL     1      28.232   0.309  53.604  1.00  0.00     0.019 A 
HETATM    4  C4  UNL     1      28.701  -0.943  53.289  1.00  0.00     0.021 A 
HETATM    5  C5  UNL     1      27.827  -1.861  52.757  1.00  0.00     0.004 A 
HETATM    6  C6  UNL     1      26.514  -1.494  52.559  1.00  0.00     0.029 A 
HETATM    7  C7  UNL     1      25.976  -0.262  52.851  1.00  0.00     0.035 A 
HETATM    8  C20 UNL     1      26.911   0.598  53.377  1.00  0.00     0.050 A 
ENDROOT
BRANCH   7   9
HETATM    9  N1  UNL     1      24.615   0.062  52.637  1.00  0.00    -0.340 N 
HETATM   10  H5  UNL     1      24.539   0.677  51.820  1.00  0.00     0.167 HD
BRANCH   9  11
HETATM   11  C8  UNL     1      23.487  -0.352  53.382  1.00  0.00     0.142 A 
HETATM   12  N2  UNL     1      23.541  -0.921  54.587  1.00  0.00    -0.224 NA
HETATM   13  C9  UNL     1      22.509  -1.330  55.331  1.00  0.00     0.236 A 
HETATM   14  N3  UNL     1      21.299  -1.135  54.779  1.00  0.00    -0.241 NA
HETATM   15  C10 UNL     1      21.142  -0.571  53.571  1.00  0.00     0.074 A 
HETATM   16  C11 UNL     1      19.857  -0.430  53.122  1.00  0.00     0.070 A 
HETATM   17  C19 UNL     1      22.238  -0.165  52.843  1.00  0.00     0.039 A 
HETATM   18  C12 UNL     1      19.562   0.130  51.904  1.00  0.00     0.079 A 
HETATM   19  C15 UNL     1      20.671   0.546  51.155  1.00  0.00    -0.000 A 
HETATM   20  C18 UNL     1      21.971   0.400  51.616  1.00  0.00     0.029 A 
BRANCH  18  21
HETATM   21  O1  UNL     1      18.387   0.359  51.278  1.00  0.00    -0.348 OA
BRANCH  21  22
HETATM   22  C13 UNL     1      17.159   0.795  51.698  1.00  0.00     0.201 C 
BRANCH  22  23
HETATM   23  C14 UNL     1      16.819   2.233  51.504  1.00  0.00     0.190 C 
BRANCH  23  24
HETATM   24  O2  UNL     1      17.965   2.986  51.865  1.00  0.00    -0.399 OA
HETATM   25  H12 UNL     1      18.279   2.751  52.773  1.00  0.00     0.209 HD
ENDBRANCH  23  24
ENDBRANCH  22  23
ENDBRANCH  21  22
ENDBRANCH  18  21
BRANCH  19  26
HETATM   26  C16 UNL     1      20.527   1.181  49.797  1.00  0.00     0.208 C 
BRANCH  26  27
HETATM   27  O3  UNL     1      21.731   1.122  49.142  1.00  0.00    -0.391 OA
HETATM   28  C17 UNL     1      22.104   2.338  48.574  1.00  0.00     0.201 C 
ENDBRANCH  26  27
ENDBRANCH  19  26
ENDBRANCH   9  11
ENDBRANCH   7   9
TORSDOF 8
ENDMDL
MODEL 9
REMARK VINA RESULT:      -7.2      2.449      3.814
REMARK  8 active torsions:
REMARK  status: ('A' for Active; 'I' for Inactive)
REMARK    1  A    between atoms: C7_7  and  N1_8 
REMARK    2  A    between atoms: N1_8  and  C8_9 
REMARK    3  A    between atoms: C12_15  and  O1_16 
REMARK    4  A    between atoms: O1_16  and  C13_17 
REMARK    5  A    between atoms: C13_17  and  C14_18 
REMARK    6  A    between atoms: C14_18  and  O2_19 
REMARK    7  A    between atoms: C15_20  and  C16_21 
REMARK    8  A    between atoms: C16_21  and  O3_22 
ROOT
HETATM    1  C1  UNL     1      29.494   1.963  54.591  1.00  0.00     0.018 C 
HETATM    2  C2  UNL     1      28.665   1.143  54.274  1.00  0.00    -0.078 C 
HETATM    3  C3  UNL     1      27.679   0.202  53.899  1.00  0.00     0.019 A 
HETATM    4  C4  UNL     1      27.914  -0.676  52.869  1.00  0.00     0.021 A 
HETATM    5  C5  UNL     1      26.933  -1.578  52.531  1.00  0.00     0.004 A 
HETATM    6  C6  UNL     1      25.750  -1.569  53.237  1.00  0.00     0.029 A 
HETATM    7  C7  UNL     1      25.446  -0.722  54.277  1.00  0.00     0.035 A 
HETATM    8  C20 UNL     1      26.475   0.147  54.552  1.00  0.00     0.050 A 
ENDROOT
BRANCH   7   9
HETATM    9  N1  UNL     1      24.216  -0.761  54.976  1.00  0.00    -0.340 N 
HETATM   10  H5  UNL     1      24.401  -0.795  55.984  1.00  0.00     0.167 HD
BRANCH   9  11
HETATM   11  C8  UNL     1      22.905  -0.757  54.445  1.00  0.00     0.142 A 
HETATM   12  N2  UNL     1      21.961  -1.648  54.748  1.00  0.00    -0.224 NA
HETATM   13  C9  UNL     1      20.712  -1.690  54.275  1.00  0.00     0.236 A 
HETATM   14  N3  UNL     1      20.403  -0.715  53.402  1.00  0.00    -0.241 NA
HETATM   15  C10 UNL     1      21.285   0.228  53.035  1.00  0.00     0.074 A 
HETATM   16  C11 UNL     1      20.846   1.162  52.138  1.00  0.00     0.070 A 
HETATM   17  C19 UNL     1      22.561   0.227  53.551  1.00  0.00     0.039 A 
HETATM   18  C12 UNL     1      21.648   2.178  51.682  1.00  0.00     0.079 A 
HETATM   19  C15 UNL     1      22.950   2.186  52.201  1.00  0.00    -0.000 A 
HETATM   20  C18 UNL     1      23.389   1.235  53.110  1.00  0.00     0.029 A 
BRANCH  18  21
HETATM   21  O1  UNL     1      21.421   3.186  50.812  1.00  0.00    -0.348 OA
BRANCH  21  22
HETATM   22  C13 UNL     1      21.111   3.236  49.480  1.00  0.00     0.201 C 
BRANCH  22  23
HETATM   23  C14 UNL     1      21.671   2.181  48.588  1.00  0.00     0.190 C 
BRANCH  23  24
HETATM   24  O2  UNL     1      23.049   2.470  48.413  1.00  0.00    -0.399 OA
HETATM   25  H12 UNL     1      23.471   1.840  47.778  1.00  0.00     0.209 HD
ENDBRANCH  23  24
ENDBRANCH  22  23
ENDBRANCH  21  22
ENDBRANCH  18  21
BRANCH  19  26
HETATM   26  C16 UNL     1      23.962   3.230  51.807  1.00  0.00     0.208 C 
BRANCH  26  27
HETATM   27  O3  UNL     1      24.739   2.741  50.787  1.00  0.00    -0.391 OA
HETATM   28  C17 UNL     1      26.102   2.780  51.072  1.00  0.00     0.201 C 
ENDBRANCH  26  27
ENDBRANCH  19  26
ENDBRANCH   9  11
ENDBRANCH   7   9
TORSDOF 8
ENDMDL
