MODEL 1
REMARK VINA RESULT:      -8.4      0.000      0.000
REMARK  1 active torsions:
REMARK  status: ('A' for Active; 'I' for Inactive)
REMARK    1  A    between atoms: C14_17  and  C15_18 
ROOT
HETATM    1  C1  UNL     1      19.404   4.445  50.171  1.00  0.00     0.143 C 
HETATM    2  N1  UNL     1      20.447   3.442  50.211  1.00  0.00    -0.411 N 
HETATM    3  C2  UNL     1      21.752   3.988  50.088  1.00  0.00     0.152 C 
HETATM    4  C3  UNL     1      22.486   4.015  51.374  1.00  0.00     0.244 C 
HETATM    5  C4  UNL     1      23.976   4.376  51.195  1.00  0.00     0.076 C 
HETATM    6  C5  UNL     1      24.753   3.253  51.849  1.00  0.00    -0.053 A 
HETATM    7  C6  UNL     1      24.650   3.414  53.205  1.00  0.00     0.008 A 
HETATM    8  C7  UNL     1      25.173   2.436  54.018  1.00  0.00     0.019 A 
HETATM    9  C8  UNL     1      25.729   1.431  53.264  1.00  0.00     0.052 A 
HETATM   10  C9  UNL     1      25.827   1.289  51.902  1.00  0.00     0.131 A 
HETATM   11  F1  UNL     1      26.396   0.268  51.273  1.00  0.00    -0.205 F 
HETATM   12  C10 UNL     1      25.306   2.264  51.093  1.00  0.00     0.050 A 
HETATM   13  C11 UNL     1      26.222   0.260  54.023  1.00  0.00     0.184 C 
HETATM   14  O1  UNL     1      26.898  -0.568  54.663  1.00  0.00    -0.287 OA
HETATM   15  C12 UNL     1      24.895  -0.403  53.943  1.00  0.00     0.053 C 
HETATM   16  C13 UNL     1      23.621  -0.327  53.504  1.00  0.00    -0.001 C 
HETATM   17  C14 UNL     1      22.201  -0.630  53.210  1.00  0.00     0.134 C 
HETATM   18  S1  UNL     1      21.117   0.797  53.155  1.00  0.00    -0.111 SA
HETATM   19  C16 UNL     1      21.521   1.799  51.702  1.00  0.00     0.218 C 
HETATM   20  C17 UNL     1      22.066   0.862  50.658  1.00  0.00     0.063 C 
HETATM   21  C18 UNL     1      20.234   2.437  51.187  1.00  0.00     0.169 C 
HETATM   22  N2  UNL     1      22.446   2.805  52.152  1.00  0.00     0.111 N 
HETATM   23  H21 UNL     1      22.251   3.018  53.180  1.00  0.00     0.318 HD
ENDROOT
BRANCH  17  24
HETATM   24  C15 UNL     1      21.688  -1.697  54.122  1.00  0.00     0.250 C 
HETATM   25  O2  UNL     1      21.955  -2.102  55.260  1.00  0.00    -0.305 OA
ENDBRANCH  17  24
TORSDOF 1
ENDMDL
MODEL 2
REMARK VINA RESULT:      -8.2      2.396      4.651
REMARK  1 active torsions:
REMARK  status: ('A' for Active; 'I' for Inactive)
REMARK    1  A    between atoms: C14_17  and  C15_18 
ROOT
HETATM    1  C1  UNL     1      26.927   4.708  48.958  1.00  0.00     0.143 C 
HETATM    2  N1  UNL     1      25.992   4.419  50.025  1.00  0.00    -0.411 N 
HETATM    3  C2  UNL     1      24.637   4.602  49.644  1.00  0.00     0.152 C 
HETATM    4  C3  UNL     1      23.928   3.320  49.418  1.00  0.00     0.244 C 
HETATM    5  C4  UNL     1      22.406   3.511  49.246  1.00  0.00     0.076 C 
HETATM    6  C5  UNL     1      21.760   2.609  50.275  1.00  0.00    -0.053 A 
HETATM    7  C6  UNL     1      21.871   1.321  49.824  1.00  0.00     0.008 A 
HETATM    8  C7  UNL     1      21.465   0.302  50.655  1.00  0.00     0.019 A 
HETATM    9  C8  UNL     1      21.001   0.809  51.844  1.00  0.00     0.052 A 
HETATM   10  C9  UNL     1      20.891   2.107  52.277  1.00  0.00     0.131 A 
HETATM   11  F1  UNL     1      20.417   2.488  53.458  1.00  0.00    -0.205 F 
HETATM   12  C10 UNL     1      21.296   3.121  51.449  1.00  0.00     0.050 A 
HETATM   13  C11 UNL     1      20.643  -0.194  52.871  1.00  0.00     0.184 C 
HETATM   14  O1  UNL     1      20.067  -1.018  53.607  1.00  0.00    -0.287 OA
HETATM   15  C12 UNL     1      22.029  -0.201  53.406  1.00  0.00     0.053 C 
HETATM   16  C13 UNL     1      23.280   0.295  53.303  1.00  0.00    -0.001 C 
HETATM   17  C14 UNL     1      24.718   0.575  53.524  1.00  0.00     0.134 C 
HETATM   18  S1  UNL     1      25.650   0.968  52.044  1.00  0.00    -0.111 SA
HETATM   19  C16 UNL     1      25.119   2.579  51.412  1.00  0.00     0.218 C 
HETATM   20  C17 UNL     1      24.652   3.384  52.596  1.00  0.00     0.063 C 
HETATM   21  C18 UNL     1      26.324   3.266  50.778  1.00  0.00     0.169 C 
HETATM   22  N2  UNL     1      24.105   2.311  50.428  1.00  0.00     0.111 N 
HETATM   23  H21 UNL     1      24.297   1.358  49.986  1.00  0.00     0.318 HD
ENDROOT
BRANCH  17  24
HETATM   24  C15 UNL     1      25.353  -0.517  54.322  1.00  0.00     0.250 C 
HETATM   25  O2  UNL     1      26.289  -0.607  55.125  1.00  0.00    -0.305 OA
ENDBRANCH  17  24
TORSDOF 1
ENDMDL
MODEL 3
REMARK VINA RESULT:      -7.5      3.365      6.342
REMARK  1 active torsions:
REMARK  status: ('A' for Active; 'I' for Inactive)
REMARK    1  A    between atoms: C14_17  and  C15_18 
ROOT
HETATM    1  C1  UNL     1      26.397   0.294  54.799  1.00  0.00     0.143 C 
HETATM    2  N1  UNL     1      25.692   0.618  53.577  1.00  0.00    -0.411 N 
HETATM    3  C2  UNL     1      24.654  -0.301  53.270  1.00  0.00     0.152 C 
HETATM    4  C3  UNL     1      23.305   0.246  53.546  1.00  0.00     0.244 C 
HETATM    5  C4  UNL     1      22.180  -0.652  52.987  1.00  0.00     0.076 C 
HETATM    6  C5  UNL     1      21.339   0.245  52.105  1.00  0.00    -0.053 A 
HETATM    7  C6  UNL     1      20.592   1.048  52.924  1.00  0.00     0.008 A 
HETATM    8  C7  UNL     1      19.835   2.043  52.348  1.00  0.00     0.019 A 
HETATM    9  C8  UNL     1      19.988   2.032  50.983  1.00  0.00     0.052 A 
HETATM   10  C9  UNL     1      20.740   1.213  50.177  1.00  0.00     0.131 A 
HETATM   11  F1  UNL     1      20.810   1.290  48.853  1.00  0.00    -0.205 F 
HETATM   12  C10 UNL     1      21.492   0.223  50.751  1.00  0.00     0.050 A 
HETATM   13  C11 UNL     1      19.316   3.131  50.256  1.00  0.00     0.184 C 
HETATM   14  O1  UNL     1      18.520   3.857  49.629  1.00  0.00    -0.287 OA
HETATM   15  C12 UNL     1      20.509   4.006  50.391  1.00  0.00     0.053 C 
HETATM   16  C13 UNL     1      21.767   4.132  50.863  1.00  0.00    -0.001 C 
HETATM   17  C14 UNL     1      23.109   4.661  51.202  1.00  0.00     0.134 C 
HETATM   18  S1  UNL     1      23.794   4.055  52.745  1.00  0.00    -0.111 SA
HETATM   19  C16 UNL     1      24.193   2.298  52.573  1.00  0.00     0.218 C 
HETATM   20  C17 UNL     1      24.517   2.058  51.123  1.00  0.00     0.063 C 
HETATM   21  C18 UNL     1      25.425   2.001  53.422  1.00  0.00     0.169 C 
HETATM   22  N2  UNL     1      23.048   1.576  53.063  1.00  0.00     0.111 N 
HETATM   23  H21 UNL     1      22.562   2.166  53.808  1.00  0.00     0.318 HD
ENDROOT
BRANCH  17  24
HETATM   24  C15 UNL     1      23.126   6.152  51.120  1.00  0.00     0.250 C 
HETATM   25  O2  UNL     1      22.303   7.042  50.877  1.00  0.00    -0.305 OA
ENDBRANCH  17  24
TORSDOF 1
ENDMDL
MODEL 4
REMARK VINA RESULT:      -7.2      3.482      5.424
REMARK  1 active torsions:
REMARK  status: ('A' for Active; 'I' for Inactive)
REMARK    1  A    between atoms: C14_17  and  C15_18 
ROOT
HETATM    1  C1  UNL     1      20.598   8.598  49.116  1.00  0.00     0.143 C 
HETATM    2  N1  UNL     1      21.612   7.949  49.922  1.00  0.00    -0.411 N 
HETATM    3  C2  UNL     1      21.079   6.995  50.827  1.00  0.00     0.152 C 
HETATM    4  C3  UNL     1      21.314   5.598  50.391  1.00  0.00     0.244 C 
HETATM    5  C4  UNL     1      20.956   4.571  51.487  1.00  0.00     0.076 C 
HETATM    6  C5  UNL     1      22.198   3.729  51.683  1.00  0.00    -0.053 A 
HETATM    7  C6  UNL     1      22.297   2.882  50.611  1.00  0.00     0.008 A 
HETATM    8  C7  UNL     1      23.423   2.099  50.501  1.00  0.00     0.019 A 
HETATM    9  C8  UNL     1      24.277   2.337  51.551  1.00  0.00     0.052 A 
HETATM   10  C9  UNL     1      24.158   3.188  52.621  1.00  0.00     0.131 A 
HETATM   11  F1  UNL     1      25.052   3.335  53.591  1.00  0.00    -0.205 F 
HETATM   12  C10 UNL     1      23.036   3.967  52.730  1.00  0.00     0.050 A 
HETATM   13  C11 UNL     1      25.580   1.640  51.485  1.00  0.00     0.184 C 
HETATM   14  O1  UNL     1      26.530   0.839  51.585  1.00  0.00    -0.287 OA
HETATM   15  C12 UNL     1      26.189   2.763  50.726  1.00  0.00     0.053 C 
HETATM   16  C13 UNL     1      26.004   3.979  50.169  1.00  0.00    -0.001 C 
HETATM   17  C14 UNL     1      26.216   5.260  49.456  1.00  0.00     0.134 C 
HETATM   18  S1  UNL     1      24.782   5.887  48.580  1.00  0.00    -0.111 SA
HETATM   19  C16 UNL     1      23.531   6.409  49.779  1.00  0.00     0.218 C 
HETATM   20  C17 UNL     1      24.262   6.837  51.023  1.00  0.00     0.063 C 
HETATM   21  C18 UNL     1      22.780   7.603  49.198  1.00  0.00     0.169 C 
HETATM   22  N2  UNL     1      22.648   5.286  49.955  1.00  0.00     0.111 N 
HETATM   23  H21 UNL     1      22.631   4.717  49.051  1.00  0.00     0.318 HD
ENDROOT
BRANCH  17  24
HETATM   24  C15 UNL     1      27.426   5.185  48.583  1.00  0.00     0.250 C 
HETATM   25  O2  UNL     1      28.573   4.733  48.684  1.00  0.00    -0.305 OA
ENDBRANCH  17  24
TORSDOF 1
ENDMDL
MODEL 5
REMARK VINA RESULT:      -7.1      8.539     10.098
REMARK  1 active torsions:
REMARK  status: ('A' for Active; 'I' for Inactive)
REMARK    1  A    between atoms: C14_17  and  C15_18 
ROOT
HETATM    1  C1  UNL     1      26.596  12.729  48.193  1.00  0.00     0.143 C 
HETATM    2  N1  UNL     1      27.193  11.561  47.580  1.00  0.00    -0.411 N 
HETATM    3  C2  UNL     1      28.584  11.708  47.336  1.00  0.00     0.152 C 
HETATM    4  C3  UNL     1      29.417  10.950  48.299  1.00  0.00     0.244 C 
HETATM    5  C4  UNL     1      30.905  10.912  47.889  1.00  0.00     0.076 C 
HETATM    6  C5  UNL     1      31.281   9.446  47.845  1.00  0.00    -0.053 A 
HETATM    7  C6  UNL     1      31.400   9.011  49.138  1.00  0.00     0.008 A 
HETATM    8  C7  UNL     1      31.614   7.669  49.356  1.00  0.00     0.019 A 
HETATM    9  C8  UNL     1      31.670   6.992  48.162  1.00  0.00     0.052 A 
HETATM   10  C9  UNL     1      31.555   7.448  46.873  1.00  0.00     0.131 A 
HETATM   11  F1  UNL     1      31.632   6.697  45.781  1.00  0.00    -0.205 F 
HETATM   12  C10 UNL     1      31.342   8.784  46.656  1.00  0.00     0.050 A 
HETATM   13  C11 UNL     1      31.780   5.520  48.267  1.00  0.00     0.184 C 
HETATM   14  O1  UNL     1      32.170   4.339  48.348  1.00  0.00    -0.287 OA
HETATM   15  C12 UNL     1      30.302   5.370  48.291  1.00  0.00     0.053 C 
HETATM   16  C13 UNL     1      29.105   5.993  48.261  1.00  0.00    -0.001 C 
HETATM   17  C14 UNL     1      27.649   6.270  48.255  1.00  0.00     0.134 C 
HETATM   18  S1  UNL     1      27.169   7.817  49.025  1.00  0.00    -0.111 SA
HETATM   19  C16 UNL     1      27.747   9.197  48.007  1.00  0.00     0.218 C 
HETATM   20  C17 UNL     1      27.786   8.709  46.583  1.00  0.00     0.063 C 
HETATM   21  C18 UNL     1      26.737  10.334  48.123  1.00  0.00     0.169 C 
HETATM   22  N2  UNL     1      29.023   9.588  48.545  1.00  0.00     0.111 N 
HETATM   23  H21 UNL     1      29.037   9.369  49.590  1.00  0.00     0.318 HD
ENDROOT
BRANCH  17  24
HETATM   24  C15 UNL     1      26.887   5.106  48.796  1.00  0.00     0.250 C 
HETATM   25  O2  UNL     1      27.167   4.003  49.281  1.00  0.00    -0.305 OA
ENDBRANCH  17  24
TORSDOF 1
ENDMDL
MODEL 6
REMARK VINA RESULT:      -7.0      3.183      5.327
REMARK  1 active torsions:
REMARK  status: ('A' for Active; 'I' for Inactive)
REMARK    1  A    between atoms: C14_17  and  C15_18 
ROOT
HETATM    1  C1  UNL     1      25.286   7.758  47.261  1.00  0.00     0.143 C 
HETATM    2  N1  UNL     1      24.741   7.088  48.424  1.00  0.00    -0.411 N 
HETATM    3  C2  UNL     1      23.356   6.800  48.303  1.00  0.00     0.152 C 
HETATM    4  C3  UNL     1      23.091   5.367  48.035  1.00  0.00     0.244 C 
HETATM    5  C4  UNL     1      21.592   5.014  48.149  1.00  0.00     0.076 C 
HETATM    6  C5  UNL     1      21.512   3.878  49.146  1.00  0.00    -0.053 A 
HETATM    7  C6  UNL     1      21.957   2.745  48.518  1.00  0.00     0.008 A 
HETATM    8  C7  UNL     1      22.096   1.598  49.266  1.00  0.00     0.019 A 
HETATM    9  C8  UNL     1      21.740   1.831  50.572  1.00  0.00     0.052 A 
HETATM   10  C9  UNL     1      21.290   2.975  51.183  1.00  0.00     0.131 A 
HETATM   11  F1  UNL     1      20.966   3.087  52.465  1.00  0.00    -0.205 F 
HETATM   12  C10 UNL     1      21.151   4.117  50.437  1.00  0.00     0.050 A 
HETATM   13  C11 UNL     1      21.958   0.704  51.504  1.00  0.00     0.184 C 
HETATM   14  O1  UNL     1      21.857  -0.316  52.213  1.00  0.00    -0.287 OA
HETATM   15  C12 UNL     1      23.343   1.157  51.793  1.00  0.00     0.053 C 
HETATM   16  C13 UNL     1      24.305   2.070  51.546  1.00  0.00    -0.001 C 
HETATM   17  C14 UNL     1      25.578   2.830  51.557  1.00  0.00     0.134 C 
HETATM   18  S1  UNL     1      26.001   3.621  50.004  1.00  0.00    -0.111 SA
HETATM   19  C16 UNL     1      24.841   4.974  49.687  1.00  0.00     0.218 C 
HETATM   20  C17 UNL     1      24.381   5.485  51.026  1.00  0.00     0.063 C 
HETATM   21  C18 UNL     1      25.588   6.083  48.953  1.00  0.00     0.169 C 
HETATM   22  N2  UNL     1      23.799   4.425  48.860  1.00  0.00     0.111 N 
HETATM   23  H21 UNL     1      24.207   3.633  48.272  1.00  0.00     0.318 HD
ENDROOT
BRANCH  17  24
HETATM   24  C15 UNL     1      26.692   1.987  52.086  1.00  0.00     0.250 C 
HETATM   25  O2  UNL     1      27.867   2.172  52.424  1.00  0.00    -0.305 OA
ENDBRANCH  17  24
TORSDOF 1
ENDMDL
MODEL 7
REMARK VINA RESULT:      -6.9      9.748     11.363
REMARK  1 active torsions:
REMARK  status: ('A' for Active; 'I' for Inactive)
REMARK    1  A    between atoms: C14_17  and  C15_18 
ROOT
HETATM    1  C1  UNL     1      29.740  12.987  47.427  1.00  0.00     0.143 C 
HETATM    2  N1  UNL     1      29.945  11.672  46.855  1.00  0.00    -0.411 N 
HETATM    3  C2  UNL     1      31.303  11.404  46.543  1.00  0.00     0.152 C 
HETATM    4  C3  UNL     1      31.941  10.480  47.510  1.00  0.00     0.244 C 
HETATM    5  C4  UNL     1      33.330  10.000  47.038  1.00  0.00     0.076 C 
HETATM    6  C5  UNL     1      33.272   8.487  47.061  1.00  0.00    -0.053 A 
HETATM    7  C6  UNL     1      33.336   8.091  48.370  1.00  0.00     0.008 A 
HETATM    8  C7  UNL     1      33.173   6.754  48.654  1.00  0.00     0.019 A 
HETATM    9  C8  UNL     1      32.965   6.040  47.499  1.00  0.00     0.052 A 
HETATM   10  C9  UNL     1      32.909   6.455  46.192  1.00  0.00     0.131 A 
HETATM   11  F1  UNL     1      32.706   5.669  45.142  1.00  0.00    -0.205 F 
HETATM   12  C10 UNL     1      33.072   7.786  45.910  1.00  0.00     0.050 A 
HETATM   13  C11 UNL     1      32.658   4.604  47.683  1.00  0.00     0.184 C 
HETATM   14  O1  UNL     1      32.701   3.366  47.813  1.00  0.00    -0.287 OA
HETATM   15  C12 UNL     1      31.202   4.886  47.780  1.00  0.00     0.053 C 
HETATM   16  C13 UNL     1      30.232   5.823  47.767  1.00  0.00    -0.001 C 
HETATM   17  C14 UNL     1      28.917   6.506  47.809  1.00  0.00     0.134 C 
HETATM   18  S1  UNL     1      28.942   8.156  48.511  1.00  0.00    -0.111 SA
HETATM   19  C16 UNL     1      29.828   9.269  47.391  1.00  0.00     0.218 C 
HETATM   20  C17 UNL     1      29.643   8.731  45.997  1.00  0.00     0.063 C 
HETATM   21  C18 UNL     1      29.191  10.652  47.487  1.00  0.00     0.169 C 
HETATM   22  N2  UNL     1      31.192   9.300  47.850  1.00  0.00     0.111 N 
HETATM   23  H21 UNL     1      31.204   9.130  48.904  1.00  0.00     0.318 HD
ENDROOT
BRANCH  17  24
HETATM   24  C15 UNL     1      27.888   5.632  48.449  1.00  0.00     0.250 C 
HETATM   25  O2  UNL     1      27.781   4.430  48.719  1.00  0.00    -0.305 OA
ENDBRANCH  17  24
TORSDOF 1
ENDMDL
MODEL 8
REMARK VINA RESULT:      -6.8     11.352     13.391
REMARK  1 active torsions:
REMARK  status: ('A' for Active; 'I' for Inactive)
REMARK    1  A    between atoms: C14_17  and  C15_18 
ROOT
HETATM    1  C1  UNL     1      35.394   6.979  41.260  1.00  0.00     0.143 C 
HETATM    2  N1  UNL     1      34.320   6.744  42.202  1.00  0.00    -0.411 N 
HETATM    3  C2  UNL     1      34.308   5.421  42.717  1.00  0.00     0.152 C 
HETATM    4  C3  UNL     1      34.808   5.344  44.109  1.00  0.00     0.244 C 
HETATM    5  C4  UNL     1      34.567   3.959  44.747  1.00  0.00     0.076 C 
HETATM    6  C5  UNL     1      33.804   4.223  46.027  1.00  0.00    -0.053 A 
HETATM    7  C6  UNL     1      34.690   4.732  46.939  1.00  0.00     0.008 A 
HETATM    8  C7  UNL     1      34.200   5.170  48.148  1.00  0.00     0.019 A 
HETATM    9  C8  UNL     1      32.838   5.000  48.204  1.00  0.00     0.052 A 
HETATM   10  C9  UNL     1      31.966   4.482  47.280  1.00  0.00     0.131 A 
HETATM   11  F1  UNL     1      30.654   4.358  47.443  1.00  0.00    -0.205 F 
HETATM   12  C10 UNL     1      32.454   4.045  46.076  1.00  0.00     0.050 A 
HETATM   13  C11 UNL     1      32.176   5.543  49.410  1.00  0.00     0.184 C 
HETATM   14  O1  UNL     1      31.668   5.721  50.534  1.00  0.00    -0.287 OA
HETATM   15  C12 UNL     1      31.991   6.868  48.763  1.00  0.00     0.053 C 
HETATM   16  C13 UNL     1      32.184   7.620  47.660  1.00  0.00    -0.001 C 
HETATM   17  C14 UNL     1      32.197   8.742  46.691  1.00  0.00     0.134 C 
HETATM   18  S1  UNL     1      33.612   8.775  45.590  1.00  0.00    -0.111 SA
HETATM   19  C16 UNL     1      33.508   7.381  44.440  1.00  0.00     0.218 C 
HETATM   20  C17 UNL     1      32.047   7.072  44.252  1.00  0.00     0.063 C 
HETATM   21  C18 UNL     1      34.109   7.814  43.107  1.00  0.00     0.169 C 
HETATM   22  N2  UNL     1      34.279   6.317  45.028  1.00  0.00     0.111 N 
HETATM   23  H21 UNL     1      35.057   6.743  45.623  1.00  0.00     0.318 HD
ENDROOT
BRANCH  17  24
HETATM   24  C15 UNL     1      31.991  10.046  47.390  1.00  0.00     0.250 C 
HETATM   25  O2  UNL     1      31.263  10.467  48.297  1.00  0.00    -0.305 OA
ENDBRANCH  17  24
TORSDOF 1
ENDMDL
MODEL 9
REMARK VINA RESULT:      -6.4      3.626      5.787
REMARK  1 active torsions:
REMARK  status: ('A' for Active; 'I' for Inactive)
REMARK    1  A    between atoms: C14_17  and  C15_18 
ROOT
HETATM    1  C1  UNL     1      25.551   6.570  49.447  1.00  0.00     0.143 C 
HETATM    2  N1  UNL     1      24.909   5.275  49.356  1.00  0.00    -0.411 N 
HETATM    3  C2  UNL     1      24.927   4.556  50.580  1.00  0.00     0.152 C 
HETATM    4  C3  UNL     1      23.611   4.549  51.259  1.00  0.00     0.244 C 
HETATM    5  C4  UNL     1      23.569   3.571  52.453  1.00  0.00     0.076 C 
HETATM    6  C5  UNL     1      22.391   2.656  52.194  1.00  0.00    -0.053 A 
HETATM    7  C6  UNL     1      21.250   3.368  52.453  1.00  0.00     0.008 A 
HETATM    8  C7  UNL     1      20.038   2.782  52.166  1.00  0.00     0.019 A 
HETATM    9  C8  UNL     1      20.224   1.525  51.646  1.00  0.00     0.052 A 
HETATM   10  C9  UNL     1      21.378   0.825  51.397  1.00  0.00     0.131 A 
HETATM   11  F1  UNL     1      21.442  -0.401  50.891  1.00  0.00    -0.205 F 
HETATM   12  C10 UNL     1      22.584   1.408  51.683  1.00  0.00     0.050 A 
HETATM   13  C11 UNL     1      18.998   0.836  51.186  1.00  0.00     0.184 C 
HETATM   14  O1  UNL     1      17.963   0.149  51.083  1.00  0.00    -0.287 OA
HETATM   15  C12 UNL     1      19.126   1.426  49.828  1.00  0.00     0.053 C 
HETATM   16  C13 UNL     1      19.837   2.230  49.011  1.00  0.00    -0.001 C 
HETATM   17  C14 UNL     1      20.311   2.996  47.834  1.00  0.00     0.134 C 
HETATM   18  S1  UNL     1      21.131   4.544  48.219  1.00  0.00    -0.111 SA
HETATM   19  C16 UNL     1      22.718   4.199  49.017  1.00  0.00     0.218 C 
HETATM   20  C17 UNL     1      23.193   2.868  48.497  1.00  0.00     0.063 C 
HETATM   21  C18 UNL     1      23.708   5.284  48.605  1.00  0.00     0.169 C 
HETATM   22  N2  UNL     1      22.473   4.240  50.434  1.00  0.00     0.111 N 
HETATM   23  H21 UNL     1      21.668   4.915  50.625  1.00  0.00     0.318 HD
ENDROOT
BRANCH  17  24
HETATM   24  C15 UNL     1      19.212   3.168  46.837  1.00  0.00     0.250 C 
HETATM   25  O2  UNL     1      17.995   3.382  46.879  1.00  0.00    -0.305 OA
ENDBRANCH  17  24
TORSDOF 1
ENDMDL
