MODEL 1
REMARK VINA RESULT:      -8.3      0.000      0.000
REMARK  4 active torsions:
REMARK  status: ('A' for Active; 'I' for Inactive)
REMARK    1  A    between atoms: O1_2  and  C2_3 
REMARK    2  A    between atoms: C8_12  and  N3_13 
REMARK    3  A    between atoms: N3_13  and  C9_14 
REMARK    4  A    between atoms: C9_14  and  C10_15 
ROOT
HETATM    1  C2  UNL     1      25.368  -0.131  53.582  1.00  0.00     0.064 C 
HETATM    2  C3  UNL     1      24.320  -0.926  53.490  1.00  0.00     0.013 C 
HETATM    3  C4  UNL     1      22.947  -0.379  53.167  1.00  0.00     0.032 C 
HETATM    4  C5  UNL     1      22.085   0.644  52.863  1.00  0.00     0.196 C 
HETATM    5  O2  UNL     1      21.795   2.015  52.606  1.00  0.00    -0.324 OA
HETATM    6  C6  UNL     1      22.424   2.442  51.406  1.00  0.00     0.197 A 
HETATM    7  N1  UNL     1      21.881   1.777  50.387  1.00  0.00    -0.216 NA
HETATM    8  C7  UNL     1      22.249   1.941  49.109  1.00  0.00     0.238 A 
HETATM    9  N2  UNL     1      23.225   2.835  48.895  1.00  0.00    -0.222 NA
HETATM   10  C8  UNL     1      23.809   3.534  49.878  1.00  0.00     0.156 A 
HETATM   11  C16 UNL     1      23.449   3.385  51.193  1.00  0.00     0.128 A 
HETATM   12  N4  UNL     1      24.113   4.205  52.156  1.00  0.00    -0.380 N 
HETATM   13  C17 UNL     1      24.350   3.456  53.311  1.00  0.00     0.147 C 
HETATM   14  C18 UNL     1      25.420   2.498  53.437  1.00  0.00    -0.005 C 
HETATM   15  C19 UNL     1      25.838   1.244  53.542  1.00  0.00     0.034 C 
HETATM   16  H16 UNL     1      24.329   5.196  51.917  1.00  0.00     0.160 HD
ENDROOT
BRANCH  10  17
HETATM   17  N3  UNL     1      24.843   4.432  49.503  1.00  0.00    -0.369 N 
HETATM   18  H8  UNL     1      24.581   5.424  49.258  1.00  0.00     0.161 HD
BRANCH  17  19
HETATM   19  C9  UNL     1      26.249   4.113  49.430  1.00  0.00     0.160 C 
BRANCH  19  20
HETATM   20  C10 UNL     1      27.101   5.120  48.800  1.00  0.00    -0.041 A 
HETATM   21  C11 UNL     1      28.439   5.129  48.457  1.00  0.00     0.009 A 
HETATM   22  C12 UNL     1      29.041   6.188  47.852  1.00  0.00     0.001 A 
HETATM   23  C13 UNL     1      28.358   7.325  47.540  1.00  0.00     0.000 A 
HETATM   24  C14 UNL     1      27.028   7.383  47.856  1.00  0.00     0.001 A 
HETATM   25  C15 UNL     1      26.430   6.305  48.466  1.00  0.00     0.009 A 
ENDBRANCH  19  20
ENDBRANCH  17  19
ENDBRANCH  10  17
BRANCH   1  26
HETATM   26  O1  UNL     1      26.349  -1.118  53.853  1.00  0.00    -0.356 OA
HETATM   27  C1  UNL     1      26.990  -1.728  52.761  1.00  0.00     0.210 C 
ENDBRANCH   1  26
TORSDOF 4
ENDMDL
MODEL 2
REMARK VINA RESULT:      -8.0      6.670     10.017
REMARK  4 active torsions:
REMARK  status: ('A' for Active; 'I' for Inactive)
REMARK    1  A    between atoms: O1_2  and  C2_3 
REMARK    2  A    between atoms: C8_12  and  N3_13 
REMARK    3  A    between atoms: N3_13  and  C9_14 
REMARK    4  A    between atoms: C9_14  and  C10_15 
ROOT
HETATM    1  C2  UNL     1      29.177   5.740  48.258  1.00  0.00     0.064 C 
HETATM    2  C3  UNL     1      28.273   6.649  47.949  1.00  0.00     0.013 C 
HETATM    3  C4  UNL     1      28.673   8.068  47.613  1.00  0.00     0.032 C 
HETATM    4  C5  UNL     1      29.604   9.056  47.416  1.00  0.00     0.196 C 
HETATM    5  O2  UNL     1      30.945   9.535  47.369  1.00  0.00    -0.324 OA
HETATM    6  C6  UNL     1      31.662   8.911  46.313  1.00  0.00     0.197 A 
HETATM    7  N1  UNL     1      31.120   9.290  45.156  1.00  0.00    -0.216 NA
HETATM    8  C7  UNL     1      31.558   8.881  43.958  1.00  0.00     0.238 A 
HETATM    9  N2  UNL     1      32.603   8.040  43.977  1.00  0.00    -0.222 NA
HETATM   10  C8  UNL     1      33.189   7.624  45.108  1.00  0.00     0.156 A 
HETATM   11  C16 UNL     1      32.761   8.031  46.346  1.00  0.00     0.128 A 
HETATM   12  N4  UNL     1      33.480   7.552  47.483  1.00  0.00    -0.380 N 
HETATM   13  C17 UNL     1      32.578   7.270  48.511  1.00  0.00     0.147 C 
HETATM   14  C18 UNL     1      31.771   6.076  48.562  1.00  0.00    -0.005 C 
HETATM   15  C19 UNL     1      30.589   5.481  48.488  1.00  0.00     0.034 C 
HETATM   16  H16 UNL     1      34.518   7.475  47.432  1.00  0.00     0.160 HD
ENDROOT
BRANCH  10  17
HETATM   17  N3  UNL     1      34.275   6.718  44.974  1.00  0.00    -0.369 N 
HETATM   18  H8  UNL     1      35.251   7.076  45.148  1.00  0.00     0.161 HD
BRANCH  17  19
HETATM   19  C9  UNL     1      34.166   5.322  44.621  1.00  0.00     0.160 C 
BRANCH  19  20
HETATM   20  C10 UNL     1      33.980   4.395  45.736  1.00  0.00    -0.041 A 
HETATM   21  C11 UNL     1      34.786   4.040  46.800  1.00  0.00     0.009 A 
HETATM   22  C12 UNL     1      34.405   3.148  47.754  1.00  0.00     0.001 A 
HETATM   23  C13 UNL     1      33.188   2.537  47.724  1.00  0.00     0.000 A 
HETATM   24  C14 UNL     1      32.341   2.842  46.694  1.00  0.00     0.001 A 
HETATM   25  C15 UNL     1      32.737   3.746  45.736  1.00  0.00     0.009 A 
ENDBRANCH  19  20
ENDBRANCH  17  19
ENDBRANCH  10  17
BRANCH   1  26
HETATM   26  O1  UNL     1      28.303   4.638  48.439  1.00  0.00    -0.356 OA
HETATM   27  C1  UNL     1      27.007   4.897  48.919  1.00  0.00     0.210 C 
ENDBRANCH   1  26
TORSDOF 4
ENDMDL
MODEL 3
REMARK VINA RESULT:      -7.9      1.905      2.543
REMARK  4 active torsions:
REMARK  status: ('A' for Active; 'I' for Inactive)
REMARK    1  A    between atoms: O1_2  and  C2_3 
REMARK    2  A    between atoms: C8_12  and  N3_13 
REMARK    3  A    between atoms: N3_13  and  C9_14 
REMARK    4  A    between atoms: C9_14  and  C10_15 
ROOT
HETATM    1  C2  UNL     1      24.244   1.161  52.824  1.00  0.00     0.064 C 
HETATM    2  C3  UNL     1      23.282   0.263  52.916  1.00  0.00     0.013 C 
HETATM    3  C4  UNL     1      21.830   0.676  53.008  1.00  0.00     0.032 C 
HETATM    4  C5  UNL     1      20.832   1.616  53.039  1.00  0.00     0.196 C 
HETATM    5  O2  UNL     1      20.365   2.962  53.007  1.00  0.00    -0.324 OA
HETATM    6  C6  UNL     1      20.619   3.549  51.739  1.00  0.00     0.197 A 
HETATM    7  N1  UNL     1      19.889   2.909  50.826  1.00  0.00    -0.216 NA
HETATM    8  C7  UNL     1      19.895   3.212  49.521  1.00  0.00     0.238 A 
HETATM    9  N2  UNL     1      20.699   4.225  49.163  1.00  0.00    -0.222 NA
HETATM   10  C8  UNL     1      21.455   4.906  50.035  1.00  0.00     0.156 A 
HETATM   11  C16 UNL     1      21.465   4.615  51.376  1.00  0.00     0.128 A 
HETATM   12  N4  UNL     1      22.282   5.427  52.220  1.00  0.00    -0.380 N 
HETATM   13  C17 UNL     1      22.877   4.620  53.194  1.00  0.00     0.147 C 
HETATM   14  C18 UNL     1      24.024   3.783  52.946  1.00  0.00    -0.005 C 
HETATM   15  C19 UNL     1      24.563   2.579  52.811  1.00  0.00     0.034 C 
HETATM   16  H16 UNL     1      22.339   6.451  52.039  1.00  0.00     0.160 HD
ENDROOT
BRANCH  10  17
HETATM   17  N3  UNL     1      22.271   5.941  49.507  1.00  0.00    -0.369 N 
HETATM   18  H8  UNL     1      22.197   6.904  49.932  1.00  0.00     0.161 HD
BRANCH  17  19
HETATM   19  C9  UNL     1      23.218   5.796  48.428  1.00  0.00     0.160 C 
BRANCH  19  20
HETATM   20  C10 UNL     1      24.487   5.155  48.772  1.00  0.00    -0.041 A 
HETATM   21  C11 UNL     1      24.795   3.911  49.286  1.00  0.00     0.009 A 
HETATM   22  C12 UNL     1      26.071   3.503  49.523  1.00  0.00     0.001 A 
HETATM   23  C13 UNL     1      27.143   4.303  49.267  1.00  0.00     0.000 A 
HETATM   24  C14 UNL     1      26.908   5.551  48.759  1.00  0.00     0.001 A 
HETATM   25  C15 UNL     1      25.613   5.952  48.522  1.00  0.00     0.009 A 
ENDBRANCH  19  20
ENDBRANCH  17  19
ENDBRANCH  10  17
BRANCH   1  26
HETATM   26  O1  UNL     1      25.344   0.272  52.735  1.00  0.00    -0.356 OA
HETATM   27  C1  UNL     1      26.477   0.696  52.018  1.00  0.00     0.210 C 
ENDBRANCH   1  26
TORSDOF 4
ENDMDL
MODEL 4
REMARK VINA RESULT:      -7.6      7.018      9.962
REMARK  4 active torsions:
REMARK  status: ('A' for Active; 'I' for Inactive)
REMARK    1  A    between atoms: O1_2  and  C2_3 
REMARK    2  A    between atoms: C8_12  and  N3_13 
REMARK    3  A    between atoms: N3_13  and  C9_14 
REMARK    4  A    between atoms: C9_14  and  C10_15 
ROOT
HETATM    1  C2  UNL     1      33.542   6.287  45.144  1.00  0.00     0.064 C 
HETATM    2  C3  UNL     1      33.140   5.035  45.038  1.00  0.00     0.013 C 
HETATM    3  C4  UNL     1      32.520   4.310  46.211  1.00  0.00     0.032 C 
HETATM    4  C5  UNL     1      32.076   4.248  47.508  1.00  0.00     0.196 C 
HETATM    5  O2  UNL     1      31.842   4.824  48.790  1.00  0.00    -0.324 OA
HETATM    6  C6  UNL     1      30.868   5.854  48.705  1.00  0.00     0.197 A 
HETATM    7  N1  UNL     1      29.705   5.305  48.357  1.00  0.00    -0.216 NA
HETATM    8  C7  UNL     1      28.573   6.001  48.186  1.00  0.00     0.238 A 
HETATM    9  N2  UNL     1      28.668   7.323  48.388  1.00  0.00    -0.222 NA
HETATM   10  C8  UNL     1      29.809   7.932  48.740  1.00  0.00     0.156 A 
HETATM   11  C16 UNL     1      30.979   7.241  48.922  1.00  0.00     0.128 A 
HETATM   12  N4  UNL     1      32.128   7.986  49.330  1.00  0.00    -0.380 N 
HETATM   13  C17 UNL     1      33.255   7.486  48.673  1.00  0.00     0.147 C 
HETATM   14  C18 UNL     1      33.584   7.794  47.304  1.00  0.00    -0.005 C 
HETATM   15  C19 UNL     1      33.709   7.422  46.037  1.00  0.00     0.034 C 
HETATM   16  H16 UNL     1      32.014   8.756  50.023  1.00  0.00     0.160 HD
ENDROOT
BRANCH  10  17
HETATM   17  N3  UNL     1      29.762   9.342  48.901  1.00  0.00    -0.369 N 
HETATM   18  H8  UNL     1      29.880   9.741  49.870  1.00  0.00     0.161 HD
BRANCH  17  19
HETATM   19  C9  UNL     1      29.572  10.303  47.840  1.00  0.00     0.160 C 
BRANCH  19  20
HETATM   20  C10 UNL     1      30.728  10.535  46.974  1.00  0.00    -0.041 A 
HETATM   21  C11 UNL     1      30.957  10.285  45.636  1.00  0.00     0.009 A 
HETATM   22  C12 UNL     1      32.124  10.600  45.013  1.00  0.00     0.001 A 
HETATM   23  C13 UNL     1      33.158  11.190  45.674  1.00  0.00     0.000 A 
HETATM   24  C14 UNL     1      32.998  11.464  47.005  1.00  0.00     0.001 A 
HETATM   25  C15 UNL     1      31.813  11.142  47.624  1.00  0.00     0.009 A 
ENDBRANCH  19  20
ENDBRANCH  17  19
ENDBRANCH  10  17
BRANCH   1  26
HETATM   26  O1  UNL     1      33.986   6.471  43.811  1.00  0.00    -0.356 OA
HETATM   27  C1  UNL     1      34.598   5.383  43.164  1.00  0.00     0.210 C 
ENDBRANCH   1  26
TORSDOF 4
ENDMDL
MODEL 5
REMARK VINA RESULT:      -7.5      1.880      2.380
REMARK  4 active torsions:
REMARK  status: ('A' for Active; 'I' for Inactive)
REMARK    1  A    between atoms: O1_2  and  C2_3 
REMARK    2  A    between atoms: C8_12  and  N3_13 
REMARK    3  A    between atoms: N3_13  and  C9_14 
REMARK    4  A    between atoms: C9_14  and  C10_15 
ROOT
HETATM    1  C2  UNL     1      22.856   0.710  52.920  1.00  0.00     0.064 C 
HETATM    2  C3  UNL     1      21.568   0.510  52.719  1.00  0.00     0.013 C 
HETATM    3  C4  UNL     1      20.645   1.652  52.360  1.00  0.00     0.032 C 
HETATM    4  C5  UNL     1      20.393   2.971  52.079  1.00  0.00     0.196 C 
HETATM    5  O2  UNL     1      20.803   4.323  51.898  1.00  0.00    -0.324 OA
HETATM    6  C6  UNL     1      21.651   4.441  50.765  1.00  0.00     0.197 A 
HETATM    7  N1  UNL     1      20.942   4.147  49.676  1.00  0.00    -0.216 NA
HETATM    8  C7  UNL     1      21.444   4.159  48.434  1.00  0.00     0.238 A 
HETATM    9  N2  UNL     1      22.739   4.491  48.333  1.00  0.00    -0.222 NA
HETATM   10  C8  UNL     1      23.503   4.796  49.391  1.00  0.00     0.156 A 
HETATM   11  C16 UNL     1      23.012   4.793  50.672  1.00  0.00     0.128 A 
HETATM   12  N4  UNL     1      23.906   5.167  51.721  1.00  0.00    -0.380 N 
HETATM   13  C17 UNL     1      23.670   4.357  52.835  1.00  0.00     0.147 C 
HETATM   14  C18 UNL     1      24.150   3.004  52.955  1.00  0.00    -0.005 C 
HETATM   15  C19 UNL     1      23.919   1.699  52.998  1.00  0.00     0.034 C 
HETATM   16  H16 UNL     1      24.580   5.945  51.561  1.00  0.00     0.160 HD
ENDROOT
BRANCH  10  17
HETATM   17  N3  UNL     1      24.864   5.110  49.133  1.00  0.00    -0.369 N 
HETATM   18  H8  UNL     1      25.587   4.354  49.268  1.00  0.00     0.161 HD
BRANCH  17  19
HETATM   19  C9  UNL     1      25.361   6.389  48.684  1.00  0.00     0.160 C 
BRANCH  19  20
HETATM   20  C10 UNL     1      26.783   6.439  48.348  1.00  0.00    -0.041 A 
HETATM   21  C11 UNL     1      27.588   7.441  47.841  1.00  0.00     0.009 A 
HETATM   22  C12 UNL     1      28.919   7.277  47.612  1.00  0.00     0.001 A 
HETATM   23  C13 UNL     1      29.556   6.101  47.870  1.00  0.00     0.000 A 
HETATM   24  C14 UNL     1      28.815   5.065  48.372  1.00  0.00     0.001 A 
HETATM   25  C15 UNL     1      27.470   5.243  48.600  1.00  0.00     0.009 A 
ENDBRANCH  19  20
ENDBRANCH  17  19
ENDBRANCH  10  17
BRANCH   1  26
HETATM   26  O1  UNL     1      23.232  -0.632  53.178  1.00  0.00    -0.356 OA
HETATM   27  C1  UNL     1      22.506  -1.345  54.148  1.00  0.00     0.210 C 
ENDBRANCH   1  26
TORSDOF 4
ENDMDL
MODEL 6
REMARK VINA RESULT:      -7.4      3.117      7.246
REMARK  4 active torsions:
REMARK  status: ('A' for Active; 'I' for Inactive)
REMARK    1  A    between atoms: O1_2  and  C2_3 
REMARK    2  A    between atoms: C8_12  and  N3_13 
REMARK    3  A    between atoms: N3_13  and  C9_14 
REMARK    4  A    between atoms: C9_14  and  C10_15 
ROOT
HETATM    1  C2  UNL     1      20.717   3.500  48.706  1.00  0.00     0.064 C 
HETATM    2  C3  UNL     1      21.318   4.013  47.650  1.00  0.00     0.013 C 
HETATM    3  C4  UNL     1      22.550   4.879  47.793  1.00  0.00     0.032 C 
HETATM    4  C5  UNL     1      23.524   5.496  48.536  1.00  0.00     0.196 C 
HETATM    5  O2  UNL     1      24.158   5.813  49.772  1.00  0.00    -0.324 OA
HETATM    6  C6  UNL     1      24.713   4.646  50.362  1.00  0.00     0.197 A 
HETATM    7  N1  UNL     1      25.693   4.202  49.576  1.00  0.00    -0.216 NA
HETATM    8  C7  UNL     1      26.425   3.113  49.841  1.00  0.00     0.238 A 
HETATM    9  N2  UNL     1      26.115   2.464  50.973  1.00  0.00    -0.222 NA
HETATM   10  C8  UNL     1      25.141   2.862  51.804  1.00  0.00     0.156 A 
HETATM   11  C16 UNL     1      24.379   3.975  51.555  1.00  0.00     0.128 A 
HETATM   12  N4  UNL     1      23.391   4.327  52.524  1.00  0.00    -0.380 N 
HETATM   13  C17 UNL     1      22.246   4.784  51.866  1.00  0.00     0.147 C 
HETATM   14  C18 UNL     1      21.279   3.914  51.246  1.00  0.00    -0.005 C 
HETATM   15  C19 UNL     1      20.697   3.429  50.158  1.00  0.00     0.034 C 
HETATM   16  H16 UNL     1      23.611   4.220  53.537  1.00  0.00     0.160 HD
ENDROOT
BRANCH  10  17
HETATM   17  N3  UNL     1      24.914   2.065  52.957  1.00  0.00    -0.369 N 
HETATM   18  H8  UNL     1      24.870   2.543  53.896  1.00  0.00     0.161 HD
BRANCH  17  19
HETATM   19  C9  UNL     1      24.724   0.634  52.965  1.00  0.00     0.160 C 
BRANCH  19  20
HETATM   20  C10 UNL     1      23.439   0.163  53.479  1.00  0.00    -0.041 A 
HETATM   21  C11 UNL     1      23.091  -0.895  54.295  1.00  0.00     0.009 A 
HETATM   22  C12 UNL     1      21.809  -1.150  54.672  1.00  0.00     0.001 A 
HETATM   23  C13 UNL     1      20.769  -0.371  54.264  1.00  0.00     0.000 A 
HETATM   24  C14 UNL     1      21.044   0.694  53.450  1.00  0.00     0.001 A 
HETATM   25  C15 UNL     1      22.345   0.943  53.078  1.00  0.00     0.009 A 
ENDBRANCH  19  20
ENDBRANCH  17  19
ENDBRANCH  10  17
BRANCH   1  26
HETATM   26  O1  UNL     1      19.696   2.786  48.032  1.00  0.00    -0.356 OA
HETATM   27  C1  UNL     1      19.278   3.260  46.776  1.00  0.00     0.210 C 
ENDBRANCH   1  26
TORSDOF 4
ENDMDL
MODEL 7
REMARK VINA RESULT:      -7.3      3.773      6.497
REMARK  4 active torsions:
REMARK  status: ('A' for Active; 'I' for Inactive)
REMARK    1  A    between atoms: O1_2  and  C2_3 
REMARK    2  A    between atoms: C8_12  and  N3_13 
REMARK    3  A    between atoms: N3_13  and  C9_14 
REMARK    4  A    between atoms: C9_14  and  C10_15 
ROOT
HETATM    1  C2  UNL     1      20.631   3.269  47.620  1.00  0.00     0.064 C 
HETATM    2  C3  UNL     1      19.918   4.287  48.061  1.00  0.00     0.013 C 
HETATM    3  C4  UNL     1      19.619   4.454  49.534  1.00  0.00     0.032 C 
HETATM    4  C5  UNL     1      19.714   4.067  50.847  1.00  0.00     0.196 C 
HETATM    5  O2  UNL     1      20.175   3.195  51.875  1.00  0.00    -0.324 OA
HETATM    6  C6  UNL     1      21.589   3.263  51.990  1.00  0.00     0.197 A 
HETATM    7  N1  UNL     1      21.919   4.486  52.401  1.00  0.00    -0.216 NA
HETATM    8  C7  UNL     1      23.180   4.887  52.610  1.00  0.00     0.238 A 
HETATM    9  N2  UNL     1      24.129   3.968  52.376  1.00  0.00    -0.222 NA
HETATM   10  C8  UNL     1      23.859   2.723  51.962  1.00  0.00     0.156 A 
HETATM   11  C16 UNL     1      22.576   2.288  51.744  1.00  0.00     0.128 A 
HETATM   12  N4  UNL     1      22.400   0.931  51.336  1.00  0.00    -0.380 N 
HETATM   13  C17 UNL     1      21.380   0.867  50.384  1.00  0.00     0.147 C 
HETATM   14  C18 UNL     1      21.555   1.224  48.999  1.00  0.00    -0.005 C 
HETATM   15  C19 UNL     1      21.318   2.039  47.980  1.00  0.00     0.034 C 
HETATM   16  H16 UNL     1      22.999   0.191  51.761  1.00  0.00     0.160 HD
ENDROOT
BRANCH  10  17
HETATM   17  N3  UNL     1      24.967   1.864  51.738  1.00  0.00    -0.369 N 
HETATM   18  H8  UNL     1      24.808   0.968  51.205  1.00  0.00     0.161 HD
BRANCH  17  19
HETATM   19  C9  UNL     1      26.322   2.111  52.172  1.00  0.00     0.160 C 
BRANCH  19  20
HETATM   20  C10 UNL     1      27.091   0.932  52.567  1.00  0.00    -0.041 A 
HETATM   21  C11 UNL     1      26.851  -0.423  52.449  1.00  0.00     0.009 A 
HETATM   22  C12 UNL     1      27.725  -1.371  52.879  1.00  0.00     0.001 A 
HETATM   23  C13 UNL     1      28.912  -1.046  53.464  1.00  0.00     0.000 A 
HETATM   24  C14 UNL     1      29.212   0.281  53.613  1.00  0.00     0.001 A 
HETATM   25  C15 UNL     1      28.320   1.231  53.173  1.00  0.00     0.009 A 
ENDBRANCH  19  20
ENDBRANCH  17  19
ENDBRANCH  10  17
BRANCH   1  26
HETATM   26  O1  UNL     1      20.635   3.605  46.243  1.00  0.00    -0.356 OA
HETATM   27  C1  UNL     1      21.874   3.653  45.580  1.00  0.00     0.210 C 
ENDBRANCH   1  26
TORSDOF 4
ENDMDL
MODEL 8
REMARK VINA RESULT:      -7.3      1.776      2.579
REMARK  4 active torsions:
REMARK  status: ('A' for Active; 'I' for Inactive)
REMARK    1  A    between atoms: O1_2  and  C2_3 
REMARK    2  A    between atoms: C8_12  and  N3_13 
REMARK    3  A    between atoms: N3_13  and  C9_14 
REMARK    4  A    between atoms: C9_14  and  C10_15 
ROOT
HETATM    1  C2  UNL     1      25.643   0.351  52.553  1.00  0.00     0.064 C 
HETATM    2  C3  UNL     1      25.052  -0.731  53.023  1.00  0.00     0.013 C 
HETATM    3  C4  UNL     1      23.629  -0.687  53.534  1.00  0.00     0.032 C 
HETATM    4  C5  UNL     1      22.450  -0.037  53.798  1.00  0.00     0.196 C 
HETATM    5  O2  UNL     1      21.622   1.122  53.800  1.00  0.00    -0.324 OA
HETATM    6  C6  UNL     1      21.327   1.528  52.471  1.00  0.00     0.197 A 
HETATM    7  N1  UNL     1      20.591   0.578  51.894  1.00  0.00    -0.216 NA
HETATM    8  C7  UNL     1      20.143   0.645  50.634  1.00  0.00     0.238 A 
HETATM    9  N2  UNL     1      20.482   1.750  49.953  1.00  0.00    -0.222 NA
HETATM   10  C8  UNL     1      21.219   2.738  50.479  1.00  0.00     0.156 A 
HETATM   11  C16 UNL     1      21.688   2.694  51.767  1.00  0.00     0.128 A 
HETATM   12  N4  UNL     1      22.435   3.817  52.235  1.00  0.00    -0.380 N 
HETATM   13  C17 UNL     1      23.487   3.366  53.036  1.00  0.00     0.147 C 
HETATM   14  C18 UNL     1      24.711   2.814  52.512  1.00  0.00    -0.005 C 
HETATM   15  C19 UNL     1      25.518   1.780  52.318  1.00  0.00     0.034 C 
HETATM   16  H16 UNL     1      22.138   4.777  51.958  1.00  0.00     0.160 HD
ENDROOT
BRANCH  10  17
HETATM   17  N3  UNL     1      21.516   3.839  49.632  1.00  0.00    -0.369 N 
HETATM   18  H8  UNL     1      21.054   4.765  49.834  1.00  0.00     0.161 HD
BRANCH  17  19
HETATM   19  C9  UNL     1      22.415   3.813  48.503  1.00  0.00     0.160 C 
BRANCH  19  20
HETATM   20  C10 UNL     1      23.682   4.522  48.679  1.00  0.00    -0.041 A 
HETATM   21  C11 UNL     1      24.053   5.836  48.469  1.00  0.00     0.009 A 
HETATM   22  C12 UNL     1      25.308   6.299  48.717  1.00  0.00     0.001 A 
HETATM   23  C13 UNL     1      26.295   5.491  49.194  1.00  0.00     0.000 A 
HETATM   24  C14 UNL     1      25.994   4.176  49.423  1.00  0.00     0.001 A 
HETATM   25  C15 UNL     1      24.721   3.719  49.170  1.00  0.00     0.009 A 
ENDBRANCH  19  20
ENDBRANCH  17  19
ENDBRANCH  10  17
BRANCH   1  26
HETATM   26  O1  UNL     1      26.884  -0.234  52.198  1.00  0.00    -0.356 OA
HETATM   27  C1  UNL     1      27.829  -0.446  53.218  1.00  0.00     0.210 C 
ENDBRANCH   1  26
TORSDOF 4
ENDMDL
MODEL 9
REMARK VINA RESULT:      -7.2      5.894     10.750
REMARK  4 active torsions:
REMARK  status: ('A' for Active; 'I' for Inactive)
REMARK    1  A    between atoms: O1_2  and  C2_3 
REMARK    2  A    between atoms: C8_12  and  N3_13 
REMARK    3  A    between atoms: N3_13  and  C9_14 
REMARK    4  A    between atoms: C9_14  and  C10_15 
ROOT
HETATM    1  C2  UNL     1      31.765  10.283  45.385  1.00  0.00     0.064 C 
HETATM    2  C3  UNL     1      33.023  10.009  45.097  1.00  0.00     0.013 C 
HETATM    3  C4  UNL     1      33.935   9.355  46.111  1.00  0.00     0.032 C 
HETATM    4  C5  UNL     1      34.190   8.804  47.341  1.00  0.00     0.196 C 
HETATM    5  O2  UNL     1      33.797   8.404  48.650  1.00  0.00    -0.324 OA
HETATM    6  C6  UNL     1      32.846   7.350  48.587  1.00  0.00     0.197 A 
HETATM    7  N1  UNL     1      33.440   6.279  48.062  1.00  0.00    -0.216 NA
HETATM    8  C7  UNL     1      32.822   5.108  47.860  1.00  0.00     0.238 A 
HETATM    9  N2  UNL     1      31.531   5.062  48.221  1.00  0.00    -0.222 NA
HETATM   10  C8  UNL     1      30.880   6.106  48.753  1.00  0.00     0.156 A 
HETATM   11  C16 UNL     1      31.492   7.314  48.971  1.00  0.00     0.128 A 
HETATM   12  N4  UNL     1      30.712   8.347  49.575  1.00  0.00    -0.380 N 
HETATM   13  C17 UNL     1      31.035   9.570  48.981  1.00  0.00     0.147 C 
HETATM   14  C18 UNL     1      30.536   9.992  47.696  1.00  0.00    -0.005 C 
HETATM   15  C19 UNL     1      30.739  10.264  46.415  1.00  0.00     0.034 C 
HETATM   16  H16 UNL     1      30.045   8.102  50.336  1.00  0.00     0.160 HD
ENDROOT
BRANCH  10  17
HETATM   17  N3  UNL     1      29.509   5.915  49.068  1.00  0.00    -0.369 N 
HETATM   18  H8  UNL     1      29.211   5.987  50.078  1.00  0.00     0.161 HD
BRANCH  17  19
HETATM   19  C9  UNL     1      28.459   5.635  48.118  1.00  0.00     0.160 C 
BRANCH  19  20
HETATM   20  C10 UNL     1      27.151   5.310  48.687  1.00  0.00    -0.041 A 
HETATM   21  C11 UNL     1      25.987   6.038  48.827  1.00  0.00     0.009 A 
HETATM   22  C12 UNL     1      24.856   5.528  49.385  1.00  0.00     0.001 A 
HETATM   23  C13 UNL     1      24.795   4.249  49.849  1.00  0.00     0.000 A 
HETATM   24  C14 UNL     1      25.916   3.472  49.742  1.00  0.00     0.001 A 
HETATM   25  C15 UNL     1      27.053   3.999  49.175  1.00  0.00     0.009 A 
ENDBRANCH  19  20
ENDBRANCH  17  19
ENDBRANCH  10  17
BRANCH   1  26
HETATM   26  O1  UNL     1      31.384  10.827  44.133  1.00  0.00    -0.356 OA
HETATM   27  C1  UNL     1      30.387  10.159  43.401  1.00  0.00     0.210 C 
ENDBRANCH   1  26
TORSDOF 4
ENDMDL
