MODEL 1
REMARK VINA RESULT:      -8.1      0.000      0.000
REMARK  5 active torsions:
REMARK  status: ('A' for Active; 'I' for Inactive)
REMARK    1  A    between atoms: C1_2  and  C2_3 
REMARK    2  A    between atoms: C2_3  and  N1_4 
REMARK    3  A    between atoms: N1_4  and  C3_5 
REMARK    4  A    between atoms: C8_12  and  N4_13 
REMARK    5  A    between atoms: N4_13  and  C9_14 
ROOT
HETATM    1  C3  UNL     1      24.420  -0.277  53.434  1.00  0.00     0.029 A 
HETATM    2  C4  UNL     1      25.017  -0.629  54.624  1.00  0.00     0.031 A 
HETATM    3  C5  UNL     1      26.230  -0.083  54.935  1.00  0.00     0.035 A 
HETATM    4  C6  UNL     1      26.814   0.797  54.055  1.00  0.00     0.072 A 
HETATM    5  N2  UNL     1      28.015   1.300  54.424  1.00  0.00    -0.241 NA
HETATM    6  C7  UNL     1      28.627   2.177  53.576  1.00  0.00     0.236 A 
HETATM    7  N3  UNL     1      28.095   2.553  52.413  1.00  0.00    -0.224 NA
HETATM    8  C8  UNL     1      26.922   2.085  52.013  1.00  0.00     0.142 A 
HETATM    9  C15 UNL     1      26.283   1.197  52.851  1.00  0.00     0.041 A 
HETATM   10  C16 UNL     1      25.062   0.611  52.601  1.00  0.00     0.046 A 
ENDROOT
BRANCH   8  11
HETATM   11  N4  UNL     1      26.293   2.429  50.804  1.00  0.00    -0.340 N 
HETATM   12  H8  UNL     1      25.821   1.731  50.212  1.00  0.00     0.167 HD
BRANCH  11  13
HETATM   13  C9  UNL     1      26.185   3.700  50.195  1.00  0.00     0.035 A 
HETATM   14  C10 UNL     1      27.070   4.157  49.249  1.00  0.00     0.029 A 
HETATM   15  C11 UNL     1      27.010   5.383  48.629  1.00  0.00     0.004 A 
HETATM   16  C12 UNL     1      25.998   6.262  48.950  1.00  0.00     0.019 A 
HETATM   17  C13 UNL     1      25.082   5.856  49.892  1.00  0.00     0.013 A 
HETATM   18 BR1  UNL     1      23.660   7.011  50.386  1.00  0.00    -0.051 Br
HETATM   19  C14 UNL     1      25.201   4.621  50.470  1.00  0.00     0.048 A 
ENDBRANCH  11  13
ENDBRANCH   8  11
BRANCH   1  20
HETATM   20  N1  UNL     1      23.157  -0.842  53.108  1.00  0.00    -0.384 N 
HETATM   21  H4  UNL     1      23.132  -1.664  52.443  1.00  0.00     0.160 HD
BRANCH  20  22
HETATM   22  C2  UNL     1      21.957  -0.284  53.689  1.00  0.00     0.189 C 
BRANCH  22  23
HETATM   23  C1  UNL     1      21.114  -1.377  54.292  1.00  0.00     0.250 C 
HETATM   24  O1  UNL     1      21.799  -1.978  55.119  1.00  0.00    -0.305 OA
ENDBRANCH  22  23
ENDBRANCH  20  22
ENDBRANCH   1  20
TORSDOF 5
ENDMDL
MODEL 2
REMARK VINA RESULT:      -7.6      2.473      4.217
REMARK  5 active torsions:
REMARK  status: ('A' for Active; 'I' for Inactive)
REMARK    1  A    between atoms: C1_2  and  C2_3 
REMARK    2  A    between atoms: C2_3  and  N1_4 
REMARK    3  A    between atoms: N1_4  and  C3_5 
REMARK    4  A    between atoms: C8_12  and  N4_13 
REMARK    5  A    between atoms: N4_13  and  C9_14 
ROOT
HETATM    1  C3  UNL     1      25.758   0.791  54.127  1.00  0.00     0.029 A 
HETATM    2  C4  UNL     1      25.046  -0.387  54.166  1.00  0.00     0.031 A 
HETATM    3  C5  UNL     1      23.920  -0.497  53.400  1.00  0.00     0.035 A 
HETATM    4  C6  UNL     1      23.536   0.565  52.616  1.00  0.00     0.072 A 
HETATM    5  N2  UNL     1      22.413   0.389  51.883  1.00  0.00    -0.241 NA
HETATM    6  C7  UNL     1      21.999   1.422  51.093  1.00  0.00     0.236 A 
HETATM    7  N3  UNL     1      22.649   2.583  51.016  1.00  0.00    -0.224 NA
HETATM    8  C8  UNL     1      23.753   2.797  51.716  1.00  0.00     0.142 A 
HETATM    9  C15 UNL     1      24.192   1.770  52.523  1.00  0.00     0.041 A 
HETATM   10  C16 UNL     1      25.315   1.813  53.319  1.00  0.00     0.046 A 
ENDROOT
BRANCH   8  11
HETATM   11  N4  UNL     1      24.497   3.990  51.693  1.00  0.00    -0.340 N 
HETATM   12  H8  UNL     1      24.510   4.646  52.487  1.00  0.00     0.167 HD
BRANCH  11  13
HETATM   13  C9  UNL     1      25.317   4.500  50.660  1.00  0.00     0.035 A 
HETATM   14  C10 UNL     1      26.320   3.771  50.069  1.00  0.00     0.029 A 
HETATM   15  C11 UNL     1      27.144   4.221  49.064  1.00  0.00     0.004 A 
HETATM   16  C12 UNL     1      26.992   5.501  48.578  1.00  0.00     0.019 A 
HETATM   17  C13 UNL     1      26.002   6.277  49.134  1.00  0.00     0.013 A 
HETATM   18 BR1  UNL     1      25.731   8.050  48.516  1.00  0.00    -0.051 Br
HETATM   19  C14 UNL     1      25.216   5.766  50.132  1.00  0.00     0.048 A 
ENDBRANCH  11  13
ENDBRANCH   8  11
BRANCH   1  20
HETATM   20  N1  UNL     1      26.930   0.908  54.922  1.00  0.00    -0.384 N 
HETATM   21  H4  UNL     1      26.846   1.359  55.876  1.00  0.00     0.160 HD
BRANCH  20  22
HETATM   22  C2  UNL     1      28.188   0.414  54.411  1.00  0.00     0.189 C 
BRANCH  22  23
HETATM   23  C1  UNL     1      28.927   1.515  53.695  1.00  0.00     0.250 C 
HETATM   24  O1  UNL     1      29.138   2.422  54.500  1.00  0.00    -0.305 OA
ENDBRANCH  22  23
ENDBRANCH  20  22
ENDBRANCH   1  20
TORSDOF 5
ENDMDL
MODEL 3
REMARK VINA RESULT:      -7.6      4.119      5.853
REMARK  5 active torsions:
REMARK  status: ('A' for Active; 'I' for Inactive)
REMARK    1  A    between atoms: C1_2  and  C2_3 
REMARK    2  A    between atoms: C2_3  and  N1_4 
REMARK    3  A    between atoms: N1_4  and  C3_5 
REMARK    4  A    between atoms: C8_12  and  N4_13 
REMARK    5  A    between atoms: N4_13  and  C9_14 
ROOT
HETATM    1  C3  UNL     1      20.676   0.388  51.826  1.00  0.00     0.029 A 
HETATM    2  C4  UNL     1      19.751  -0.212  52.651  1.00  0.00     0.031 A 
HETATM    3  C5  UNL     1      20.191  -0.834  53.785  1.00  0.00     0.035 A 
HETATM    4  C6  UNL     1      21.537  -0.842  54.066  1.00  0.00     0.072 A 
HETATM    5  N2  UNL     1      21.905  -1.476  55.203  1.00  0.00    -0.241 NA
HETATM    6  C7  UNL     1      23.233  -1.506  55.515  1.00  0.00     0.236 A 
HETATM    7  N3  UNL     1      24.170  -0.943  54.754  1.00  0.00    -0.224 NA
HETATM    8  C8  UNL     1      23.854  -0.312  53.633  1.00  0.00     0.142 A 
HETATM    9  C15 UNL     1      22.519  -0.268  53.294  1.00  0.00     0.041 A 
HETATM   10  C16 UNL     1      22.007   0.341  52.170  1.00  0.00     0.046 A 
ENDROOT
BRANCH   8  11
HETATM   11  N4  UNL     1      24.780   0.307  52.774  1.00  0.00    -0.340 N 
HETATM   12  H8  UNL     1      24.536   0.590  51.815  1.00  0.00     0.167 HD
BRANCH  11  13
HETATM   13  C9  UNL     1      26.130   0.644  53.025  1.00  0.00     0.035 A 
HETATM   14  C10 UNL     1      26.564   1.938  53.180  1.00  0.00     0.029 A 
HETATM   15  C11 UNL     1      27.863   2.317  53.424  1.00  0.00     0.004 A 
HETATM   16  C12 UNL     1      28.847   1.358  53.528  1.00  0.00     0.019 A 
HETATM   17  C13 UNL     1      28.469   0.044  53.381  1.00  0.00     0.013 A 
HETATM   18 BR1  UNL     1      29.767  -1.334  53.512  1.00  0.00    -0.051 Br
HETATM   19  C14 UNL     1      27.156  -0.264  53.140  1.00  0.00     0.048 A 
ENDBRANCH  11  13
ENDBRANCH   8  11
BRANCH   1  20
HETATM   20  N1  UNL     1      20.221   1.038  50.646  1.00  0.00    -0.384 N 
HETATM   21  H4  UNL     1      20.684   0.790  49.727  1.00  0.00     0.160 HD
BRANCH  20  22
HETATM   22  C2  UNL     1      19.153   2.006  50.735  1.00  0.00     0.189 C 
BRANCH  22  23
HETATM   23  C1  UNL     1      19.632   3.245  51.448  1.00  0.00     0.250 C 
HETATM   24  O1  UNL     1      18.686   3.712  52.081  1.00  0.00    -0.305 OA
ENDBRANCH  22  23
ENDBRANCH  20  22
ENDBRANCH   1  20
TORSDOF 5
ENDMDL
MODEL 4
REMARK VINA RESULT:      -7.5      2.702      4.787
REMARK  5 active torsions:
REMARK  status: ('A' for Active; 'I' for Inactive)
REMARK    1  A    between atoms: C1_2  and  C2_3 
REMARK    2  A    between atoms: C2_3  and  N1_4 
REMARK    3  A    between atoms: N1_4  and  C3_5 
REMARK    4  A    between atoms: C8_12  and  N4_13 
REMARK    5  A    between atoms: N4_13  and  C9_14 
ROOT
HETATM    1  C3  UNL     1      25.186  -0.595  54.651  1.00  0.00     0.029 A 
HETATM    2  C4  UNL     1      24.404  -1.284  55.551  1.00  0.00     0.031 A 
HETATM    3  C5  UNL     1      23.055  -1.328  55.347  1.00  0.00     0.035 A 
HETATM    4  C6  UNL     1      22.520  -0.687  54.254  1.00  0.00     0.072 A 
HETATM    5  N2  UNL     1      21.178  -0.770  54.111  1.00  0.00    -0.241 NA
HETATM    6  C7  UNL     1      20.611  -0.145  53.039  1.00  0.00     0.236 A 
HETATM    7  N3  UNL     1      21.318   0.535  52.138  1.00  0.00    -0.224 NA
HETATM    8  C8  UNL     1      22.635   0.641  52.239  1.00  0.00     0.142 A 
HETATM    9  C15 UNL     1      23.233   0.020  53.314  1.00  0.00     0.041 A 
HETATM   10  C16 UNL     1      24.584   0.024  53.580  1.00  0.00     0.046 A 
ENDROOT
BRANCH   8  11
HETATM   11  N4  UNL     1      23.454   1.339  51.333  1.00  0.00    -0.340 N 
HETATM   12  H8  UNL     1      23.989   0.861  50.595  1.00  0.00     0.167 HD
BRANCH  11  13
HETATM   13  C9  UNL     1      23.696   2.730  51.253  1.00  0.00     0.035 A 
HETATM   14  C10 UNL     1      23.018   3.655  52.009  1.00  0.00     0.029 A 
HETATM   15  C11 UNL     1      23.215   5.015  51.967  1.00  0.00     0.004 A 
HETATM   16  C12 UNL     1      24.158   5.542  51.112  1.00  0.00     0.019 A 
HETATM   17  C13 UNL     1      24.868   4.661  50.330  1.00  0.00     0.013 A 
HETATM   18 BR1  UNL     1      26.185   5.312  49.128  1.00  0.00    -0.051 Br
HETATM   19  C14 UNL     1      24.621   3.317  50.422  1.00  0.00     0.048 A 
ENDBRANCH  11  13
ENDBRANCH   8  11
BRANCH   1  20
HETATM   20  N1  UNL     1      26.591  -0.548  54.860  1.00  0.00    -0.384 N 
HETATM   21  H4  UNL     1      27.015  -1.212  55.567  1.00  0.00     0.160 HD
BRANCH  20  22
HETATM   22  C2  UNL     1      27.391   0.393  54.111  1.00  0.00     0.189 C 
BRANCH  22  23
HETATM   23  C1  UNL     1      28.805   0.405  54.631  1.00  0.00     0.250 C 
HETATM   24  O1  UNL     1      29.065   1.546  55.010  1.00  0.00    -0.305 OA
ENDBRANCH  22  23
ENDBRANCH  20  22
ENDBRANCH   1  20
TORSDOF 5
ENDMDL
MODEL 5
REMARK VINA RESULT:      -7.4      3.382      6.563
REMARK  5 active torsions:
REMARK  status: ('A' for Active; 'I' for Inactive)
REMARK    1  A    between atoms: C1_2  and  C2_3 
REMARK    2  A    between atoms: C2_3  and  N1_4 
REMARK    3  A    between atoms: N1_4  and  C3_5 
REMARK    4  A    between atoms: C8_12  and  N4_13 
REMARK    5  A    between atoms: N4_13  and  C9_14 
ROOT
HETATM    1  C3  UNL     1      26.295   2.010  53.282  1.00  0.00     0.029 A 
HETATM    2  C4  UNL     1      27.122   2.281  52.215  1.00  0.00     0.031 A 
HETATM    3  C5  UNL     1      26.557   2.590  51.011  1.00  0.00     0.035 A 
HETATM    4  C6  UNL     1      25.186   2.621  50.901  1.00  0.00     0.072 A 
HETATM    5  N2  UNL     1      24.693   2.933  49.680  1.00  0.00    -0.241 NA
HETATM    6  C7  UNL     1      23.337   2.973  49.532  1.00  0.00     0.236 A 
HETATM    7  N3  UNL     1      22.490   2.720  50.529  1.00  0.00    -0.224 NA
HETATM    8  C8  UNL     1      22.930   2.410  51.740  1.00  0.00     0.142 A 
HETATM    9  C15 UNL     1      24.296   2.362  51.916  1.00  0.00     0.041 A 
HETATM   10  C16 UNL     1      24.932   2.059  53.100  1.00  0.00     0.046 A 
ENDROOT
BRANCH   8  11
HETATM   11  N4  UNL     1      22.106   2.129  52.844  1.00  0.00    -0.340 N 
HETATM   12  H8  UNL     1      21.818   2.856  53.514  1.00  0.00     0.167 HD
BRANCH  11  13
HETATM   13  C9  UNL     1      21.546   0.892  53.235  1.00  0.00     0.035 A 
HETATM   14  C10 UNL     1      22.247  -0.064  53.928  1.00  0.00     0.029 A 
HETATM   15  C11 UNL     1      21.749  -1.282  54.330  1.00  0.00     0.004 A 
HETATM   16  C12 UNL     1      20.446  -1.617  54.035  1.00  0.00     0.019 A 
HETATM   17  C13 UNL     1      19.696  -0.697  53.342  1.00  0.00     0.013 A 
HETATM   18 BR1  UNL     1      17.892  -1.087  52.900  1.00  0.00    -0.051 Br
HETATM   19  C14 UNL     1      20.254   0.498  52.973  1.00  0.00     0.048 A 
ENDBRANCH  11  13
ENDBRANCH   8  11
BRANCH   1  20
HETATM   20  N1  UNL     1      26.880   1.690  54.537  1.00  0.00    -0.384 N 
HETATM   21  H4  UNL     1      27.120   2.483  55.196  1.00  0.00     0.160 HD
BRANCH  20  22
HETATM   22  C2  UNL     1      27.126   0.306  54.874  1.00  0.00     0.189 C 
BRANCH  22  23
HETATM   23  C1  UNL     1      28.577  -0.033  54.649  1.00  0.00     0.250 C 
HETATM   24  O1  UNL     1      28.630  -1.046  53.954  1.00  0.00    -0.305 OA
ENDBRANCH  22  23
ENDBRANCH  20  22
ENDBRANCH   1  20
TORSDOF 5
ENDMDL
MODEL 6
REMARK VINA RESULT:      -7.1      2.229      3.174
REMARK  5 active torsions:
REMARK  status: ('A' for Active; 'I' for Inactive)
REMARK    1  A    between atoms: C1_2  and  C2_3 
REMARK    2  A    between atoms: C2_3  and  N1_4 
REMARK    3  A    between atoms: N1_4  and  C3_5 
REMARK    4  A    between atoms: C8_12  and  N4_13 
REMARK    5  A    between atoms: N4_13  and  C9_14 
ROOT
HETATM    1  C3  UNL     1      21.411  -0.214  53.892  1.00  0.00     0.029 A 
HETATM    2  C4  UNL     1      21.791  -1.016  54.945  1.00  0.00     0.031 A 
HETATM    3  C5  UNL     1      23.124  -1.230  55.157  1.00  0.00     0.035 A 
HETATM    4  C6  UNL     1      24.040  -0.641  54.317  1.00  0.00     0.072 A 
HETATM    5  N2  UNL     1      25.342  -0.894  54.584  1.00  0.00    -0.241 NA
HETATM    6  C7  UNL     1      26.280  -0.327  53.771  1.00  0.00     0.236 A 
HETATM    7  N3  UNL     1      25.969   0.456  52.740  1.00  0.00    -0.224 NA
HETATM    8  C8  UNL     1      24.708   0.730  52.444  1.00  0.00     0.142 A 
HETATM    9  C15 UNL     1      23.739   0.169  53.248  1.00  0.00     0.041 A 
HETATM   10  C16 UNL     1      22.382   0.343  53.092  1.00  0.00     0.046 A 
ENDROOT
BRANCH   8  11
HETATM   11  N4  UNL     1      24.295   1.545  51.374  1.00  0.00    -0.340 N 
HETATM   12  H8  UNL     1      23.949   1.154  50.487  1.00  0.00     0.167 HD
BRANCH  11  13
HETATM   13  C9  UNL     1      24.270   2.956  51.298  1.00  0.00     0.035 A 
HETATM   14  C10 UNL     1      23.510   3.740  52.132  1.00  0.00     0.029 A 
HETATM   15  C11 UNL     1      23.450   5.114  52.097  1.00  0.00     0.004 A 
HETATM   16  C12 UNL     1      24.193   5.806  51.166  1.00  0.00     0.019 A 
HETATM   17  C13 UNL     1      24.973   5.072  50.304  1.00  0.00     0.013 A 
HETATM   18 BR1  UNL     1      26.025   5.955  48.995  1.00  0.00    -0.051 Br
HETATM   19  C14 UNL     1      24.987   3.705  50.394  1.00  0.00     0.048 A 
ENDBRANCH  11  13
ENDBRANCH   8  11
BRANCH   1  20
HETATM   20  N1  UNL     1      20.025   0.011  53.670  1.00  0.00    -0.384 N 
HETATM   21  H4  UNL     1      19.406   0.191  54.508  1.00  0.00     0.160 HD
BRANCH  20  22
HETATM   22  C2  UNL     1      19.509  -0.011  52.320  1.00  0.00     0.189 C 
BRANCH  22  23
HETATM   23  C1  UNL     1      18.113  -0.579  52.307  1.00  0.00     0.250 C 
HETATM   24  O1  UNL     1      17.972  -1.271  53.314  1.00  0.00    -0.305 OA
ENDBRANCH  22  23
ENDBRANCH  20  22
ENDBRANCH   1  20
TORSDOF 5
ENDMDL
MODEL 7
REMARK VINA RESULT:      -7.0      3.463      5.392
REMARK  5 active torsions:
REMARK  status: ('A' for Active; 'I' for Inactive)
REMARK    1  A    between atoms: C1_2  and  C2_3 
REMARK    2  A    between atoms: C2_3  and  N1_4 
REMARK    3  A    between atoms: N1_4  and  C3_5 
REMARK    4  A    between atoms: C8_12  and  N4_13 
REMARK    5  A    between atoms: N4_13  and  C9_14 
ROOT
HETATM    1  C3  UNL     1      25.557   0.000  53.956  1.00  0.00     0.029 A 
HETATM    2  C4  UNL     1      25.457  -0.816  55.060  1.00  0.00     0.031 A 
HETATM    3  C5  UNL     1      24.229  -1.303  55.406  1.00  0.00     0.035 A 
HETATM    4  C6  UNL     1      23.135  -0.965  54.644  1.00  0.00     0.072 A 
HETATM    5  N2  UNL     1      21.949  -1.481  55.042  1.00  0.00    -0.241 NA
HETATM    6  C7  UNL     1      20.840  -1.167  54.311  1.00  0.00     0.236 A 
HETATM    7  N3  UNL     1      20.878  -0.383  53.235  1.00  0.00    -0.224 NA
HETATM    8  C8  UNL     1      22.018   0.142  52.810  1.00  0.00     0.142 A 
HETATM    9  C15 UNL     1      23.154  -0.158  53.532  1.00  0.00     0.041 A 
HETATM   10  C16 UNL     1      24.420   0.297  53.240  1.00  0.00     0.046 A 
ENDROOT
BRANCH   8  11
HETATM   11  N4  UNL     1      22.145   0.979  51.687  1.00  0.00    -0.340 N 
HETATM   12  H8  UNL     1      22.470   0.628  50.775  1.00  0.00     0.167 HD
BRANCH  11  13
HETATM   13  C9  UNL     1      21.877   2.363  51.581  1.00  0.00     0.035 A 
HETATM   14  C10 UNL     1      22.691   3.328  52.120  1.00  0.00     0.029 A 
HETATM   15  C11 UNL     1      22.473   4.685  52.047  1.00  0.00     0.004 A 
HETATM   16  C12 UNL     1      21.361   5.163  51.389  1.00  0.00     0.019 A 
HETATM   17  C13 UNL     1      20.510   4.240  50.829  1.00  0.00     0.013 A 
HETATM   18 BR1  UNL     1      18.957   4.822  49.907  1.00  0.00    -0.051 Br
HETATM   19  C14 UNL     1      20.786   2.903  50.940  1.00  0.00     0.048 A 
ENDBRANCH  11  13
ENDBRANCH   8  11
BRANCH   1  20
HETATM   20  N1  UNL     1      26.834   0.507  53.593  1.00  0.00    -0.384 N 
HETATM   21  H4  UNL     1      26.954   0.918  52.625  1.00  0.00     0.160 HD
BRANCH  20  22
HETATM   22  C2  UNL     1      27.920   0.447  54.545  1.00  0.00     0.189 C 
BRANCH  22  23
HETATM   23  C1  UNL     1      28.989   1.443  54.177  1.00  0.00     0.250 C 
HETATM   24  O1  UNL     1      28.494   2.569  54.218  1.00  0.00    -0.305 OA
ENDBRANCH  22  23
ENDBRANCH  20  22
ENDBRANCH   1  20
TORSDOF 5
ENDMDL
MODEL 8
REMARK VINA RESULT:      -6.9      2.794      4.575
REMARK  5 active torsions:
REMARK  status: ('A' for Active; 'I' for Inactive)
REMARK    1  A    between atoms: C1_2  and  C2_3 
REMARK    2  A    between atoms: C2_3  and  N1_4 
REMARK    3  A    between atoms: N1_4  and  C3_5 
REMARK    4  A    between atoms: C8_12  and  N4_13 
REMARK    5  A    between atoms: N4_13  and  C9_14 
ROOT
HETATM    1  C3  UNL     1      24.278  -0.701  54.281  1.00  0.00     0.029 A 
HETATM    2  C4  UNL     1      23.321  -1.178  55.149  1.00  0.00     0.031 A 
HETATM    3  C5  UNL     1      22.009  -0.898  54.895  1.00  0.00     0.035 A 
HETATM    4  C6  UNL     1      21.685  -0.152  53.786  1.00  0.00     0.072 A 
HETATM    5  N2  UNL     1      20.367   0.090  53.594  1.00  0.00    -0.241 NA
HETATM    6  C7  UNL     1      20.007   0.827  52.503  1.00  0.00     0.236 A 
HETATM    7  N3  UNL     1      20.890   1.313  51.632  1.00  0.00    -0.224 NA
HETATM    8  C8  UNL     1      22.188   1.100  51.782  1.00  0.00     0.142 A 
HETATM    9  C15 UNL     1      22.580   0.359  52.876  1.00  0.00     0.041 A 
HETATM   10  C16 UNL     1      23.881   0.038  53.191  1.00  0.00     0.046 A 
ENDROOT
BRANCH   8  11
HETATM   11  N4  UNL     1      23.184   1.577  50.910  1.00  0.00    -0.340 N 
HETATM   12  H8  UNL     1      24.044   1.045  50.715  1.00  0.00     0.167 HD
BRANCH  11  13
HETATM   13  C9  UNL     1      23.213   2.786  50.179  1.00  0.00     0.035 A 
HETATM   14  C10 UNL     1      22.793   2.884  48.874  1.00  0.00     0.029 A 
HETATM   15  C11 UNL     1      22.802   4.034  48.120  1.00  0.00     0.004 A 
HETATM   16  C12 UNL     1      23.262   5.210  48.673  1.00  0.00     0.019 A 
HETATM   17  C13 UNL     1      23.695   5.170  49.977  1.00  0.00     0.013 A 
HETATM   18 BR1  UNL     1      24.342   6.749  50.807  1.00  0.00    -0.051 Br
HETATM   19  C14 UNL     1      23.659   3.990  50.672  1.00  0.00     0.048 A 
ENDBRANCH  11  13
ENDBRANCH   8  11
BRANCH   1  20
HETATM   20  N1  UNL     1      25.644  -0.993  54.542  1.00  0.00    -0.384 N 
HETATM   21  H4  UNL     1      25.891  -1.462  55.458  1.00  0.00     0.160 HD
BRANCH  20  22
HETATM   22  C2  UNL     1      26.645  -0.644  53.560  1.00  0.00     0.189 C 
BRANCH  22  23
HETATM   23  C1  UNL     1      26.827  -1.774  52.579  1.00  0.00     0.250 C 
HETATM   24  O1  UNL     1      27.570  -2.610  53.091  1.00  0.00    -0.305 OA
ENDBRANCH  22  23
ENDBRANCH  20  22
ENDBRANCH   1  20
TORSDOF 5
ENDMDL
MODEL 9
REMARK VINA RESULT:      -6.8      3.926      7.623
REMARK  5 active torsions:
REMARK  status: ('A' for Active; 'I' for Inactive)
REMARK    1  A    between atoms: C1_2  and  C2_3 
REMARK    2  A    between atoms: C2_3  and  N1_4 
REMARK    3  A    between atoms: N1_4  and  C3_5 
REMARK    4  A    between atoms: C8_12  and  N4_13 
REMARK    5  A    between atoms: N4_13  and  C9_14 
ROOT
HETATM    1  C3  UNL     1      26.465   5.240  49.361  1.00  0.00     0.029 A 
HETATM    2  C4  UNL     1      25.954   6.515  49.455  1.00  0.00     0.031 A 
HETATM    3  C5  UNL     1      24.793   6.704  50.151  1.00  0.00     0.035 A 
HETATM    4  C6  UNL     1      24.176   5.622  50.733  1.00  0.00     0.072 A 
HETATM    5  N2  UNL     1      23.031   5.881  51.406  1.00  0.00    -0.241 NA
HETATM    6  C7  UNL     1      22.389   4.831  51.997  1.00  0.00     0.236 A 
HETATM    7  N3  UNL     1      22.838   3.579  51.938  1.00  0.00    -0.224 NA
HETATM    8  C8  UNL     1      23.955   3.282  51.290  1.00  0.00     0.142 A 
HETATM    9  C15 UNL     1      24.623   4.323  50.683  1.00  0.00     0.041 A 
HETATM   10  C16 UNL     1      25.794   4.204  49.969  1.00  0.00     0.046 A 
ENDROOT
BRANCH   8  11
HETATM   11  N4  UNL     1      24.497   1.989  51.179  1.00  0.00    -0.340 N 
HETATM   12  H8  UNL     1      24.502   1.469  50.290  1.00  0.00     0.167 HD
BRANCH  11  13
HETATM   13  C9  UNL     1      25.099   1.195  52.182  1.00  0.00     0.035 A 
HETATM   14  C10 UNL     1      24.383   0.373  53.018  1.00  0.00     0.029 A 
HETATM   15  C11 UNL     1      24.921  -0.417  54.008  1.00  0.00     0.004 A 
HETATM   16  C12 UNL     1      26.282  -0.417  54.218  1.00  0.00     0.019 A 
HETATM   17  C13 UNL     1      27.048   0.388  53.408  1.00  0.00     0.013 A 
HETATM   18 BR1  UNL     1      28.932   0.440  53.636  1.00  0.00    -0.051 Br
HETATM   19  C14 UNL     1      26.449   1.149  52.441  1.00  0.00     0.048 A 
ENDBRANCH  11  13
ENDBRANCH   8  11
BRANCH   1  20
HETATM   20  N1  UNL     1      27.673   5.039  48.639  1.00  0.00    -0.384 N 
HETATM   21  H4  UNL     1      27.972   4.046  48.428  1.00  0.00     0.160 HD
BRANCH  20  22
HETATM   22  C2  UNL     1      28.449   6.183  48.219  1.00  0.00     0.189 C 
BRANCH  22  23
HETATM   23  C1  UNL     1      29.921   5.871  48.298  1.00  0.00     0.250 C 
HETATM   24  O1  UNL     1      30.090   4.718  47.904  1.00  0.00    -0.305 OA
ENDBRANCH  22  23
ENDBRANCH  20  22
ENDBRANCH   1  20
TORSDOF 5
ENDMDL
