MODEL 1
REMARK VINA RESULT:      -7.9      0.000      0.000
REMARK  1 active torsions:
REMARK  status: ('A' for Active; 'I' for Inactive)
REMARK    1  A    between atoms: C2_3  and  C3_4 
ROOT
HETATM    1  N1  UNL     1      18.055   3.759  51.731  1.00  0.00    -0.197 NA
HETATM    2  C1  UNL     1      18.793   2.883  51.575  1.00  0.00     0.061 C 
HETATM    3  C2  UNL     1      19.746   1.790  51.375  1.00  0.00     0.151 C 
ENDROOT
BRANCH   3   4
HETATM    4  C3  UNL     1      20.905   1.858  52.278  1.00  0.00     0.122 C 
HETATM    5  C4  UNL     1      21.517   0.457  52.519  1.00  0.00     0.029 C 
HETATM    6  C5  UNL     1      22.738   0.618  53.340  1.00  0.00     0.008 C 
HETATM    7  C6  UNL     1      23.462  -0.734  53.471  1.00  0.00     0.059 C 
HETATM    8  C7  UNL     1      24.847  -0.395  53.954  1.00  0.00     0.038 A 
HETATM    9  C8  UNL     1      25.321   0.359  52.852  1.00  0.00     0.058 A 
HETATM   10  N3  UNL     1      25.781  -0.450  54.905  1.00  0.00    -0.246 NA
HETATM   11  C9  UNL     1      26.539   1.000  52.654  1.00  0.00     0.059 A 
HETATM   12  N2  UNL     1      27.358   0.856  53.687  1.00  0.00    -0.242 NA
HETATM   13  C11 UNL     1      26.876   1.769  51.435  1.00  0.00     0.028 C 
HETATM   14  C10 UNL     1      26.973   0.147  54.772  1.00  0.00     0.233 A 
HETATM   15  C12 UNL     1      26.158   2.643  50.705  1.00  0.00    -0.020 C 
HETATM   16  C13 UNL     1      25.094   3.504  50.202  1.00  0.00     0.068 C 
HETATM   17  C14 UNL     1      23.865   3.485  51.021  1.00  0.00    -0.018 A 
HETATM   18  C15 UNL     1      23.339   4.426  51.907  1.00  0.00     0.147 A 
HETATM   19  C16 UNL     1      22.923   2.491  51.129  1.00  0.00     0.121 A 
HETATM   20  N4  UNL     1      22.205   4.015  52.473  1.00  0.00    -0.184 NA
HETATM   21  N5  UNL     1      21.937   2.798  51.991  1.00  0.00    -0.275 N 
ENDBRANCH   3   4
TORSDOF 1
ENDMDL
MODEL 2
REMARK VINA RESULT:      -7.6      1.737      5.835
REMARK  1 active torsions:
REMARK  status: ('A' for Active; 'I' for Inactive)
REMARK    1  A    between atoms: C2_3  and  C3_4 
ROOT
HETATM    1  N1  UNL     1      28.684   0.341  53.590  1.00  0.00    -0.197 NA
HETATM    2  C1  UNL     1      27.665   0.140  54.099  1.00  0.00     0.061 C 
HETATM    3  C2  UNL     1      26.366  -0.094  54.732  1.00  0.00     0.151 C 
ENDROOT
BRANCH   3   4
HETATM    4  C3  UNL     1      25.253  -0.142  53.772  1.00  0.00     0.122 C 
HETATM    5  C4  UNL     1      23.916  -0.481  54.474  1.00  0.00     0.029 C 
HETATM    6  C5  UNL     1      22.831  -0.400  53.469  1.00  0.00     0.008 C 
HETATM    7  C6  UNL     1      21.466  -0.577  54.159  1.00  0.00     0.059 C 
HETATM    8  C7  UNL     1      20.453  -0.087  53.160  1.00  0.00     0.038 A 
HETATM    9  C8  UNL     1      20.829   1.275  53.065  1.00  0.00     0.058 A 
HETATM   10  N3  UNL     1      19.429  -0.336  52.340  1.00  0.00    -0.246 NA
HETATM   11  C9  UNL     1      20.310   2.303  52.285  1.00  0.00     0.059 A 
HETATM   12  N2  UNL     1      19.302   1.899  51.524  1.00  0.00    -0.242 NA
HETATM   13  C11 UNL     1      20.836   3.688  52.292  1.00  0.00     0.028 C 
HETATM   14  C10 UNL     1      18.887   0.613  51.565  1.00  0.00     0.233 A 
HETATM   15  C12 UNL     1      22.095   4.164  52.300  1.00  0.00    -0.020 C 
HETATM   16  C13 UNL     1      23.549   4.274  52.306  1.00  0.00     0.068 C 
HETATM   17  C14 UNL     1      24.253   2.977  52.269  1.00  0.00    -0.018 A 
HETATM   18  C15 UNL     1      24.941   2.336  51.239  1.00  0.00     0.147 A 
HETATM   19  C16 UNL     1      24.384   2.045  53.270  1.00  0.00     0.121 A 
HETATM   20  N4  UNL     1      25.421   1.149  51.607  1.00  0.00    -0.184 NA
HETATM   21  N5  UNL     1      25.073   0.957  52.883  1.00  0.00    -0.275 N 
ENDBRANCH   3   4
TORSDOF 1
ENDMDL
MODEL 3
REMARK VINA RESULT:      -7.5      1.455      3.620
REMARK  1 active torsions:
REMARK  status: ('A' for Active; 'I' for Inactive)
REMARK    1  A    between atoms: C2_3  and  C3_4 
ROOT
HETATM    1  N1  UNL     1      18.779   3.520  51.937  1.00  0.00    -0.197 NA
HETATM    2  C1  UNL     1      19.859   3.820  51.654  1.00  0.00     0.061 C 
HETATM    3  C2  UNL     1      21.235   4.186  51.315  1.00  0.00     0.151 C 
ENDROOT
BRANCH   3   4
HETATM    4  C3  UNL     1      22.129   3.026  51.180  1.00  0.00     0.122 C 
HETATM    5  C4  UNL     1      23.554   3.348  51.690  1.00  0.00     0.029 C 
HETATM    6  C5  UNL     1      24.361   2.108  51.629  1.00  0.00     0.008 C 
HETATM    7  C6  UNL     1      25.737   2.348  52.272  1.00  0.00     0.059 C 
HETATM    8  C7  UNL     1      26.302   0.975  52.522  1.00  0.00     0.038 A 
HETATM    9  C8  UNL     1      25.357   0.479  53.453  1.00  0.00     0.058 A 
HETATM   10  N3  UNL     1      27.221   0.043  52.263  1.00  0.00    -0.246 NA
HETATM   11  C9  UNL     1      25.272  -0.760  54.080  1.00  0.00     0.059 A 
HETATM   12  N2  UNL     1      26.253  -1.576  53.719  1.00  0.00    -0.242 NA
HETATM   13  C11 UNL     1      24.198  -1.129  55.030  1.00  0.00     0.028 C 
HETATM   14  C10 UNL     1      27.192  -1.168  52.836  1.00  0.00     0.233 A 
HETATM   15  C12 UNL     1      22.869  -0.915  55.002  1.00  0.00    -0.020 C 
HETATM   16  C13 UNL     1      21.527  -0.499  54.611  1.00  0.00     0.068 C 
HETATM   17  C14 UNL     1      21.465   0.194  53.310  1.00  0.00    -0.018 A 
HETATM   18  C15 UNL     1      21.007  -0.233  52.063  1.00  0.00     0.147 A 
HETATM   19  C16 UNL     1      21.881   1.466  52.997  1.00  0.00     0.121 A 
HETATM   20  N4  UNL     1      21.146   0.699  51.122  1.00  0.00    -0.184 NA
HETATM   21  N5  UNL     1      21.697   1.771  51.700  1.00  0.00    -0.275 N 
ENDBRANCH   3   4
TORSDOF 1
ENDMDL
MODEL 4
REMARK VINA RESULT:      -7.5      1.531      2.246
REMARK  1 active torsions:
REMARK  status: ('A' for Active; 'I' for Inactive)
REMARK    1  A    between atoms: C2_3  and  C3_4 
ROOT
HETATM    1  N1  UNL     1      20.839   1.832  48.463  1.00  0.00    -0.197 NA
HETATM    2  C1  UNL     1      20.459   2.385  49.405  1.00  0.00     0.061 C 
HETATM    3  C2  UNL     1      19.976   3.063  50.610  1.00  0.00     0.151 C 
ENDROOT
BRANCH   3   4
HETATM    4  C3  UNL     1      20.689   2.658  51.830  1.00  0.00     0.122 C 
HETATM    5  C4  UNL     1      20.521   1.144  52.106  1.00  0.00     0.029 C 
HETATM    6  C5  UNL     1      21.353   0.791  53.279  1.00  0.00     0.008 C 
HETATM    7  C6  UNL     1      21.337  -0.733  53.491  1.00  0.00     0.059 C 
HETATM    8  C7  UNL     1      22.493  -1.016  54.413  1.00  0.00     0.038 A 
HETATM    9  C8  UNL     1      23.574  -0.604  53.596  1.00  0.00     0.058 A 
HETATM   10  N3  UNL     1      22.947  -1.431  55.597  1.00  0.00    -0.246 NA
HETATM   11  C9  UNL     1      24.940  -0.575  53.853  1.00  0.00     0.059 A 
HETATM   12  N2  UNL     1      25.234  -1.014  55.069  1.00  0.00    -0.242 NA
HETATM   13  C11 UNL     1      25.951  -0.094  52.883  1.00  0.00     0.028 C 
HETATM   14  C10 UNL     1      24.252  -1.427  55.903  1.00  0.00     0.233 A 
HETATM   15  C12 UNL     1      25.960   0.970  52.058  1.00  0.00    -0.020 C 
HETATM   16  C13 UNL     1      25.598   2.185  51.339  1.00  0.00     0.068 C 
HETATM   17  C14 UNL     1      24.291   2.751  51.729  1.00  0.00    -0.018 A 
HETATM   18  C15 UNL     1      23.967   3.869  52.497  1.00  0.00     0.147 A 
HETATM   19  C16 UNL     1      23.033   2.280  51.437  1.00  0.00     0.121 A 
HETATM   20  N4  UNL     1      22.652   4.028  52.637  1.00  0.00    -0.184 NA
HETATM   21  N5  UNL     1      22.057   3.031  51.976  1.00  0.00    -0.275 N 
ENDBRANCH   3   4
TORSDOF 1
ENDMDL
MODEL 5
REMARK VINA RESULT:      -7.3      2.376      5.248
REMARK  1 active torsions:
REMARK  status: ('A' for Active; 'I' for Inactive)
REMARK    1  A    between atoms: C2_3  and  C3_4 
ROOT
HETATM    1  N1  UNL     1      21.468  -1.591  54.989  1.00  0.00    -0.197 NA
HETATM    2  C1  UNL     1      22.439  -1.199  54.498  1.00  0.00     0.061 C 
HETATM    3  C2  UNL     1      23.655  -0.696  53.856  1.00  0.00     0.151 C 
ENDROOT
BRANCH   3   4
HETATM    4  C3  UNL     1      23.514   0.672  53.335  1.00  0.00     0.122 C 
HETATM    5  C4  UNL     1      24.800   1.136  52.610  1.00  0.00     0.029 C 
HETATM    6  C5  UNL     1      24.544   2.469  52.019  1.00  0.00     0.008 C 
HETATM    7  C6  UNL     1      25.745   2.897  51.157  1.00  0.00     0.059 C 
HETATM    8  C7  UNL     1      25.236   4.029  50.305  1.00  0.00     0.038 A 
HETATM    9  C8  UNL     1      24.251   3.350  49.546  1.00  0.00     0.058 A 
HETATM   10  N3  UNL     1      25.263   5.320  49.969  1.00  0.00    -0.246 NA
HETATM   11  C9  UNL     1      23.376   3.823  48.575  1.00  0.00     0.059 A 
HETATM   12  N2  UNL     1      23.522   5.123  48.353  1.00  0.00    -0.242 NA
HETATM   13  C11 UNL     1      22.383   2.974  47.878  1.00  0.00     0.028 C 
HETATM   14  C10 UNL     1      24.445   5.833  49.039  1.00  0.00     0.233 A 
HETATM   15  C12 UNL     1      21.555   2.015  48.331  1.00  0.00    -0.020 C 
HETATM   16  C13 UNL     1      20.837   1.075  49.184  1.00  0.00     0.068 C 
HETATM   17  C14 UNL     1      21.202   1.155  50.612  1.00  0.00    -0.018 A 
HETATM   18  C15 UNL     1      20.519   1.686  51.706  1.00  0.00     0.147 A 
HETATM   19  C16 UNL     1      22.357   0.731  51.226  1.00  0.00     0.121 A 
HETATM   20  N4  UNL     1      21.210   1.582  52.840  1.00  0.00    -0.184 NA
HETATM   21  N5  UNL     1      22.369   0.985  52.547  1.00  0.00    -0.275 N 
ENDBRANCH   3   4
TORSDOF 1
ENDMDL
MODEL 6
REMARK VINA RESULT:      -7.3      1.755      2.462
REMARK  1 active torsions:
REMARK  status: ('A' for Active; 'I' for Inactive)
REMARK    1  A    between atoms: C2_3  and  C3_4 
ROOT
HETATM    1  N1  UNL     1      16.585   3.872  51.093  1.00  0.00    -0.197 NA
HETATM    2  C1  UNL     1      17.196   2.892  51.036  1.00  0.00     0.061 C 
HETATM    3  C2  UNL     1      17.990   1.664  50.967  1.00  0.00     0.151 C 
ENDROOT
BRANCH   3   4
HETATM    4  C3  UNL     1      18.925   1.514  52.092  1.00  0.00     0.122 C 
HETATM    5  C4  UNL     1      19.222   0.023  52.385  1.00  0.00     0.029 C 
HETATM    6  C5  UNL     1      20.250  -0.046  53.448  1.00  0.00     0.008 C 
HETATM    7  C6  UNL     1      20.687  -1.506  53.658  1.00  0.00     0.059 C 
HETATM    8  C7  UNL     1      21.975  -1.426  54.433  1.00  0.00     0.038 A 
HETATM    9  C8  UNL     1      22.794  -0.755  53.492  1.00  0.00     0.058 A 
HETATM   10  N3  UNL     1      22.662  -1.658  55.554  1.00  0.00    -0.246 NA
HETATM   11  C9  UNL     1      24.118  -0.339  53.583  1.00  0.00     0.059 A 
HETATM   12  N2  UNL     1      24.662  -0.639  54.754  1.00  0.00    -0.242 NA
HETATM   13  C11 UNL     1      24.833   0.373  52.499  1.00  0.00     0.028 C 
HETATM   14  C10 UNL     1      23.940  -1.282  55.699  1.00  0.00     0.233 A 
HETATM   15  C12 UNL     1      24.447   1.369  51.680  1.00  0.00    -0.020 C 
HETATM   16  C13 UNL     1      23.678   2.412  51.011  1.00  0.00     0.068 C 
HETATM   17  C14 UNL     1      22.319   2.603  51.557  1.00  0.00    -0.018 A 
HETATM   18  C15 UNL     1      21.786   3.611  52.360  1.00  0.00     0.147 A 
HETATM   19  C16 UNL     1      21.219   1.791  51.418  1.00  0.00     0.121 A 
HETATM   20  N4  UNL     1      20.505   3.402  52.658  1.00  0.00    -0.184 NA
HETATM   21  N5  UNL     1      20.140   2.258  52.072  1.00  0.00    -0.275 N 
ENDBRANCH   3   4
TORSDOF 1
ENDMDL
MODEL 7
REMARK VINA RESULT:      -7.1      2.096      4.345
REMARK  1 active torsions:
REMARK  status: ('A' for Active; 'I' for Inactive)
REMARK    1  A    between atoms: C2_3  and  C3_4 
ROOT
HETATM    1  N1  UNL     1      24.086   6.986  51.193  1.00  0.00    -0.197 NA
HETATM    2  C1  UNL     1      24.291   6.399  50.218  1.00  0.00     0.061 C 
HETATM    3  C2  UNL     1      24.572   5.647  48.994  1.00  0.00     0.151 C 
ENDROOT
BRANCH   3   4
HETATM    4  C3  UNL     1      24.852   4.224  49.239  1.00  0.00     0.122 C 
HETATM    5  C4  UNL     1      25.931   4.039  50.332  1.00  0.00     0.029 C 
HETATM    6  C5  UNL     1      26.076   2.591  50.601  1.00  0.00     0.008 C 
HETATM    7  C6  UNL     1      27.027   2.373  51.792  1.00  0.00     0.059 C 
HETATM    8  C7  UNL     1      26.793   0.952  52.230  1.00  0.00     0.038 A 
HETATM    9  C8  UNL     1      25.439   1.033  52.637  1.00  0.00     0.058 A 
HETATM   10  N3  UNL     1      27.242  -0.296  52.379  1.00  0.00    -0.246 NA
HETATM   11  C9  UNL     1      24.585   0.052  53.130  1.00  0.00     0.059 A 
HETATM   12  N2  UNL     1      25.174  -1.132  53.218  1.00  0.00    -0.242 NA
HETATM   13  C11 UNL     1      23.173   0.301  53.500  1.00  0.00     0.028 C 
HETATM   14  C10 UNL     1      26.466  -1.282  52.850  1.00  0.00     0.233 A 
HETATM   15  C12 UNL     1      22.204   1.013  52.895  1.00  0.00    -0.020 C 
HETATM   16  C13 UNL     1      21.459   1.852  51.963  1.00  0.00     0.068 C 
HETATM   17  C14 UNL     1      22.237   2.285  50.785  1.00  0.00    -0.018 A 
HETATM   18  C15 UNL     1      22.193   1.870  49.454  1.00  0.00     0.147 A 
HETATM   19  C16 UNL     1      23.244   3.218  50.720  1.00  0.00     0.121 A 
HETATM   20  N4  UNL     1      23.088   2.499  48.694  1.00  0.00    -0.184 NA
HETATM   21  N5  UNL     1      23.755   3.347  49.483  1.00  0.00    -0.275 N 
ENDBRANCH   3   4
TORSDOF 1
ENDMDL
MODEL 8
REMARK VINA RESULT:      -6.6      2.633      6.736
REMARK  1 active torsions:
REMARK  status: ('A' for Active; 'I' for Inactive)
REMARK    1  A    between atoms: C2_3  and  C3_4 
ROOT
HETATM    1  N1  UNL     1      28.603   2.404  53.918  1.00  0.00    -0.197 NA
HETATM    2  C1  UNL     1      27.741   1.980  53.274  1.00  0.00     0.061 C 
HETATM    3  C2  UNL     1      26.634   1.452  52.475  1.00  0.00     0.151 C 
ENDROOT
BRANCH   3   4
HETATM    4  C3  UNL     1      25.636   2.472  52.121  1.00  0.00     0.122 C 
HETATM    5  C4  UNL     1      26.017   3.206  50.813  1.00  0.00     0.029 C 
HETATM    6  C5  UNL     1      24.917   4.133  50.462  1.00  0.00     0.008 C 
HETATM    7  C6  UNL     1      25.186   4.767  49.086  1.00  0.00     0.059 C 
HETATM    8  C7  UNL     1      23.867   5.349  48.654  1.00  0.00     0.038 A 
HETATM    9  C8  UNL     1      23.091   4.169  48.554  1.00  0.00     0.058 A 
HETATM   10  N3  UNL     1      23.118   6.415  48.363  1.00  0.00    -0.246 NA
HETATM   11  C9  UNL     1      21.752   3.995  48.220  1.00  0.00     0.059 A 
HETATM   12  N2  UNL     1      21.143   5.144  47.960  1.00  0.00    -0.242 NA
HETATM   13  C11 UNL     1      21.080   2.676  48.175  1.00  0.00     0.028 C 
HETATM   14  C10 UNL     1      21.824   6.310  48.033  1.00  0.00     0.233 A 
HETATM   15  C12 UNL     1      21.137   1.617  49.004  1.00  0.00    -0.020 C 
HETATM   16  C13 UNL     1      21.461   0.719  50.107  1.00  0.00     0.068 C 
HETATM   17  C14 UNL     1      22.384   1.296  51.104  1.00  0.00    -0.018 A 
HETATM   18  C15 UNL     1      22.158   1.773  52.396  1.00  0.00     0.147 A 
HETATM   19  C16 UNL     1      23.732   1.534  50.986  1.00  0.00     0.121 A 
HETATM   20  N4  UNL     1      23.267   2.241  52.967  1.00  0.00    -0.184 NA
HETATM   21  N5  UNL     1      24.261   2.097  52.087  1.00  0.00    -0.275 N 
ENDBRANCH   3   4
TORSDOF 1
ENDMDL
MODEL 9
REMARK VINA RESULT:      -6.6      2.297      4.862
REMARK  1 active torsions:
REMARK  status: ('A' for Active; 'I' for Inactive)
REMARK    1  A    between atoms: C2_3  and  C3_4 
ROOT
HETATM    1  N1  UNL     1      24.918   6.852  50.821  1.00  0.00    -0.197 NA
HETATM    2  C1  UNL     1      25.265   6.001  50.119  1.00  0.00     0.061 C 
HETATM    3  C2  UNL     1      25.710   4.910  49.250  1.00  0.00     0.151 C 
ENDROOT
BRANCH   3   4
HETATM    4  C3  UNL     1      25.120   3.610  49.602  1.00  0.00     0.122 C 
HETATM    5  C4  UNL     1      25.502   3.187  51.040  1.00  0.00     0.029 C 
HETATM    6  C5  UNL     1      24.785   1.932  51.361  1.00  0.00     0.008 C 
HETATM    7  C6  UNL     1      25.015   1.562  52.837  1.00  0.00     0.059 C 
HETATM    8  C7  UNL     1      23.955   0.542  53.158  1.00  0.00     0.038 A 
HETATM    9  C8  UNL     1      22.789   1.326  52.981  1.00  0.00     0.058 A 
HETATM   10  N3  UNL     1      23.621  -0.707  53.490  1.00  0.00    -0.246 NA
HETATM   11  C9  UNL     1      21.446   0.984  53.097  1.00  0.00     0.059 A 
HETATM   12  N2  UNL     1      21.276  -0.289  53.429  1.00  0.00    -0.242 NA
HETATM   13  C11 UNL     1      20.332   1.931  52.860  1.00  0.00     0.028 C 
HETATM   14  C10 UNL     1      22.345  -1.095  53.618  1.00  0.00     0.233 A 
HETATM   15  C12 UNL     1      20.139   2.861  51.907  1.00  0.00    -0.020 C 
HETATM   16  C13 UNL     1      20.299   3.727  50.744  1.00  0.00     0.068 C 
HETATM   17  C14 UNL     1      21.538   3.485  49.978  1.00  0.00    -0.018 A 
HETATM   18  C15 UNL     1      21.749   2.862  48.748  1.00  0.00     0.147 A 
HETATM   19  C16 UNL     1      22.830   3.808  50.315  1.00  0.00     0.121 A 
HETATM   20  N4  UNL     1      23.036   2.825  48.408  1.00  0.00    -0.184 NA
HETATM   21  N5  UNL     1      23.724   3.416  49.390  1.00  0.00    -0.275 N 
ENDBRANCH   3   4
TORSDOF 1
ENDMDL
