MODEL 1
REMARK VINA RESULT:      -8.9      0.000      0.000
REMARK  5 active torsions:
REMARK  status: ('A' for Active; 'I' for Inactive)
REMARK    1  A    between atoms: O1_2  and  C2_3 
REMARK    2  A    between atoms: C6_7  and  N1_8 
REMARK    3  A    between atoms: N1_8  and  C7_9 
REMARK    4  A    between atoms: N4_15  and  O2_16 
REMARK    5  A    between atoms: C12_19  and  C13_20 
ROOT
HETATM    1  C7  UNL     1      26.528   3.998  49.378  1.00  0.00     0.728 A 
HETATM    2  N2  UNL     1      25.182   4.090  49.232  1.00  0.00    -0.072 NA
HETATM    3  C8  UNL     1      24.313   3.404  50.024  1.00  0.00     0.172 A 
HETATM    4  C9  UNL     1      24.914   2.616  50.983  1.00  0.00     0.123 A 
HETATM    5  C10 UNL     1      26.264   2.476  51.198  1.00  0.00     0.200 A 
HETATM    6  N3  UNL     1      27.008   3.191  50.361  1.00  0.00    -0.040 NA
HETATM    7  N4  UNL     1      26.820   1.675  52.222  1.00  0.00    -0.215 N 
HETATM    8  C11 UNL     1      25.986   0.704  52.893  1.00  0.00     0.264 C 
HETATM    9 CL1  UNL     1      26.571  -0.906  52.354  1.00  0.00    -0.093 Cl
HETATM   10  C12 UNL     1      24.548   0.899  52.630  1.00  0.00     0.085 C 
HETATM   11  N5  UNL     1      24.074   1.768  51.760  1.00  0.00    -0.244 NA
ENDROOT
BRANCH   1  12
HETATM   12  N1  UNL     1      27.451   4.683  48.552  1.00  0.00    -0.188 N 
HETATM   13  H7  UNL     1      27.547   4.061  47.672  1.00  0.00     0.184 HD
BRANCH  12  14
HETATM   14  C6  UNL     1      28.231   5.859  48.495  1.00  0.00     0.052 A 
HETATM   15  C5  UNL     1      27.589   7.101  48.558  1.00  0.00     0.030 A 
HETATM   16  C4  UNL     1      28.343   8.246  48.509  1.00  0.00     0.005 A 
HETATM   17  C3  UNL     1      29.701   8.173  48.399  1.00  0.00     0.037 A 
HETATM   18  C2  UNL     1      30.383   6.981  48.334  1.00  0.00     0.070 A 
HETATM   19  C19 UNL     1      29.624   5.843  48.384  1.00  0.00     0.066 A 
BRANCH  18  20
HETATM   20  O1  UNL     1      31.767   7.041  48.223  1.00  0.00    -0.356 OA
HETATM   21  C1  UNL     1      32.533   5.847  48.329  1.00  0.00     0.210 C 
ENDBRANCH  18  20
ENDBRANCH  12  14
ENDBRANCH   1  12
BRANCH   7  22
HETATM   22  O2  UNL     1      28.109   1.816  52.591  1.00  0.00    -0.284 OA
HETATM   23  H9  UNL     1      28.323   2.794  52.734  1.00  0.00     0.245 HD
ENDBRANCH   7  22
BRANCH  10  24
HETATM   24  C13 UNL     1      23.650   0.028  53.403  1.00  0.00    -0.008 A 
HETATM   25  C14 UNL     1      24.005  -0.599  54.553  1.00  0.00     0.013 A 
HETATM   26  C15 UNL     1      23.142  -1.432  55.277  1.00  0.00     0.001 A 
HETATM   27  C16 UNL     1      21.888  -1.564  54.724  1.00  0.00     0.000 A 
HETATM   28  C17 UNL     1      21.493  -0.940  53.560  1.00  0.00     0.001 A 
HETATM   29  C18 UNL     1      22.380  -0.115  52.859  1.00  0.00     0.013 A 
ENDBRANCH  10  24
TORSDOF 5
ENDMDL
MODEL 2
REMARK VINA RESULT:      -8.9      1.082      1.799
REMARK  5 active torsions:
REMARK  status: ('A' for Active; 'I' for Inactive)
REMARK    1  A    between atoms: O1_2  and  C2_3 
REMARK    2  A    between atoms: C6_7  and  N1_8 
REMARK    3  A    between atoms: N1_8  and  C7_9 
REMARK    4  A    between atoms: N4_15  and  O2_16 
REMARK    5  A    between atoms: C12_19  and  C13_20 
ROOT
HETATM    1  C7  UNL     1      26.442   4.055  49.371  1.00  0.00     0.728 A 
HETATM    2  N2  UNL     1      25.095   4.132  49.227  1.00  0.00    -0.072 NA
HETATM    3  C8  UNL     1      24.235   3.433  50.018  1.00  0.00     0.172 A 
HETATM    4  C9  UNL     1      24.846   2.647  50.971  1.00  0.00     0.123 A 
HETATM    5  C10 UNL     1      26.198   2.521  51.184  1.00  0.00     0.200 A 
HETATM    6  N3  UNL     1      26.933   3.249  50.350  1.00  0.00    -0.040 NA
HETATM    7  N4  UNL     1      26.765   1.721  52.203  1.00  0.00    -0.215 N 
HETATM    8  C11 UNL     1      25.943   0.738  52.871  1.00  0.00     0.264 C 
HETATM    9 CL1  UNL     1      26.545  -0.863  52.323  1.00  0.00    -0.093 Cl
HETATM   10  C12 UNL     1      24.503   0.917  52.611  1.00  0.00     0.085 C 
HETATM   11  N5  UNL     1      24.017   1.785  51.746  1.00  0.00    -0.244 NA
ENDROOT
BRANCH   1  12
HETATM   12  N1  UNL     1      27.356   4.755  48.548  1.00  0.00    -0.188 N 
HETATM   13  H7  UNL     1      27.505   4.110  47.692  1.00  0.00     0.184 HD
BRANCH  12  14
HETATM   14  C6  UNL     1      28.083   5.963  48.471  1.00  0.00     0.052 A 
HETATM   15  C5  UNL     1      29.438   5.917  48.123  1.00  0.00     0.030 A 
HETATM   16  C4  UNL     1      30.147   7.088  48.041  1.00  0.00     0.005 A 
HETATM   17  C3  UNL     1      29.538   8.282  48.298  1.00  0.00     0.037 A 
HETATM   18  C2  UNL     1      28.212   8.385  48.643  1.00  0.00     0.070 A 
HETATM   19  C19 UNL     1      27.510   7.212  48.722  1.00  0.00     0.066 A 
BRANCH  18  20
HETATM   20  O1  UNL     1      27.709   9.660  48.879  1.00  0.00    -0.356 OA
HETATM   21  C1  UNL     1      28.563  10.789  48.736  1.00  0.00     0.210 C 
ENDBRANCH  18  20
ENDBRANCH  12  14
ENDBRANCH   1  12
BRANCH   7  22
HETATM   22  O2  UNL     1      28.053   1.876  52.571  1.00  0.00    -0.284 OA
HETATM   23  H9  UNL     1      28.364   2.814  52.358  1.00  0.00     0.245 HD
ENDBRANCH   7  22
BRANCH  10  24
HETATM   24  C13 UNL     1      23.616   0.033  53.381  1.00  0.00    -0.008 A 
HETATM   25  C14 UNL     1      23.965  -0.562  54.550  1.00  0.00     0.013 A 
HETATM   26  C15 UNL     1      23.114  -1.408  55.270  1.00  0.00     0.001 A 
HETATM   27  C16 UNL     1      21.876  -1.591  54.693  1.00  0.00     0.000 A 
HETATM   28  C17 UNL     1      21.487  -1.001  53.509  1.00  0.00     0.001 A 
HETATM   29  C18 UNL     1      22.363  -0.162  52.812  1.00  0.00     0.013 A 
ENDBRANCH  10  24
TORSDOF 5
ENDMDL
MODEL 3
REMARK VINA RESULT:      -8.8      5.309     10.055
REMARK  5 active torsions:
REMARK  status: ('A' for Active; 'I' for Inactive)
REMARK    1  A    between atoms: O1_2  and  C2_3 
REMARK    2  A    between atoms: C6_7  and  N1_8 
REMARK    3  A    between atoms: N1_8  and  C7_9 
REMARK    4  A    between atoms: N4_15  and  O2_16 
REMARK    5  A    between atoms: C12_19  and  C13_20 
ROOT
HETATM    1  C7  UNL     1      21.007  -0.641  54.173  1.00  0.00     0.728 A 
HETATM    2  N2  UNL     1      21.623  -1.664  54.817  1.00  0.00    -0.072 NA
HETATM    3  C8  UNL     1      22.976  -1.740  54.941  1.00  0.00     0.172 A 
HETATM    4  C9  UNL     1      23.663  -0.695  54.362  1.00  0.00     0.123 A 
HETATM    5  C10 UNL     1      23.114   0.378  53.700  1.00  0.00     0.200 A 
HETATM    6  N3  UNL     1      21.787   0.339  53.643  1.00  0.00    -0.040 NA
HETATM    7  N4  UNL     1      23.872   1.439  53.154  1.00  0.00    -0.215 N 
HETATM    8  C11 UNL     1      25.299   1.277  52.987  1.00  0.00     0.264 C 
HETATM    9 CL1  UNL     1      25.579   1.167  51.217  1.00  0.00    -0.093 Cl
HETATM   10  C12 UNL     1      25.837   0.114  53.716  1.00  0.00     0.085 C 
HETATM   11  N5  UNL     1      25.085  -0.775  54.335  1.00  0.00    -0.244 NA
ENDROOT
BRANCH   1  12
HETATM   12  N1  UNL     1      19.604  -0.551  54.012  1.00  0.00    -0.188 N 
HETATM   13  H7  UNL     1      19.224  -0.371  55.008  1.00  0.00     0.184 HD
BRANCH  12  14
HETATM   14  C6  UNL     1      18.594  -0.597  53.027  1.00  0.00     0.052 A 
HETATM   15  C5  UNL     1      18.806   0.056  51.807  1.00  0.00     0.030 A 
HETATM   16  C4  UNL     1      17.830   0.010  50.845  1.00  0.00     0.005 A 
HETATM   17  C3  UNL     1      16.666  -0.664  51.076  1.00  0.00     0.037 A 
HETATM   18  C2  UNL     1      16.405  -1.322  52.253  1.00  0.00     0.070 A 
HETATM   19  C19 UNL     1      17.384  -1.272  53.209  1.00  0.00     0.066 A 
BRANCH  18  20
HETATM   20  O1  UNL     1      15.181  -1.972  52.365  1.00  0.00    -0.356 OA
HETATM   21  C1  UNL     1      15.148  -3.386  52.521  1.00  0.00     0.210 C 
ENDBRANCH  18  20
ENDBRANCH  12  14
ENDBRANCH   1  12
BRANCH   7  22
HETATM   22  O2  UNL     1      23.287   2.602  52.805  1.00  0.00    -0.284 OA
HETATM   23  H9  UNL     1      23.613   3.348  53.406  1.00  0.00     0.245 HD
ENDBRANCH   7  22
BRANCH  10  24
HETATM   24  C13 UNL     1      27.302  -0.010  53.696  1.00  0.00    -0.008 A 
HETATM   25  C14 UNL     1      27.964  -1.124  53.293  1.00  0.00     0.013 A 
HETATM   26  C15 UNL     1      29.360  -1.233  53.286  1.00  0.00     0.001 A 
HETATM   27  C16 UNL     1      30.018  -0.105  53.723  1.00  0.00     0.000 A 
HETATM   28  C17 UNL     1      29.378   1.044  54.137  1.00  0.00     0.001 A 
HETATM   29  C18 UNL     1      27.981   1.120  54.134  1.00  0.00     0.013 A 
ENDBRANCH  10  24
TORSDOF 5
ENDMDL
MODEL 4
REMARK VINA RESULT:      -8.5      4.938      7.468
REMARK  5 active torsions:
REMARK  status: ('A' for Active; 'I' for Inactive)
REMARK    1  A    between atoms: O1_2  and  C2_3 
REMARK    2  A    between atoms: C6_7  and  N1_8 
REMARK    3  A    between atoms: N1_8  and  C7_9 
REMARK    4  A    between atoms: N4_15  and  O2_16 
REMARK    5  A    between atoms: C12_19  and  C13_20 
ROOT
HETATM    1  C7  UNL     1      21.219   1.144  52.794  1.00  0.00     0.728 A 
HETATM    2  N2  UNL     1      21.292  -0.188  53.037  1.00  0.00    -0.072 NA
HETATM    3  C8  UNL     1      22.474  -0.825  53.265  1.00  0.00     0.172 A 
HETATM    4  C9  UNL     1      23.581  -0.006  53.228  1.00  0.00     0.123 A 
HETATM    5  C10 UNL     1      23.589   1.349  52.996  1.00  0.00     0.200 A 
HETATM    6  N3  UNL     1      22.378   1.855  52.786  1.00  0.00    -0.040 NA
HETATM    7  N4  UNL     1      24.759   2.144  53.004  1.00  0.00    -0.215 N 
HETATM    8  C11 UNL     1      26.052   1.501  52.939  1.00  0.00     0.264 C 
HETATM    9 CL1  UNL     1      26.712   1.882  51.314  1.00  0.00    -0.093 Cl
HETATM   10  C12 UNL     1      25.988   0.050  53.196  1.00  0.00     0.085 C 
HETATM   11  N5  UNL     1      24.862  -0.622  53.323  1.00  0.00    -0.244 NA
ENDROOT
BRANCH   1  12
HETATM   12  N1  UNL     1      20.006   1.825  52.533  1.00  0.00    -0.188 N 
HETATM   13  H7  UNL     1      19.287   1.373  53.204  1.00  0.00     0.184 HD
BRANCH  12  14
HETATM   14  C6  UNL     1      19.459   2.859  51.742  1.00  0.00     0.052 A 
HETATM   15  C5  UNL     1      18.081   2.871  51.500  1.00  0.00     0.030 A 
HETATM   16  C4  UNL     1      17.545   3.877  50.737  1.00  0.00     0.005 A 
HETATM   17  C3  UNL     1      18.347   4.852  50.221  1.00  0.00     0.037 A 
HETATM   18  C2  UNL     1      19.705   4.890  50.427  1.00  0.00     0.070 A 
HETATM   19  C19 UNL     1      20.233   3.884  51.190  1.00  0.00     0.066 A 
BRANCH  18  20
HETATM   20  O1  UNL     1      20.411   5.938  49.847  1.00  0.00    -0.356 OA
HETATM   21  C1  UNL     1      21.433   6.592  50.589  1.00  0.00     0.210 C 
ENDBRANCH  18  20
ENDBRANCH  12  14
ENDBRANCH   1  12
BRANCH   7  22
HETATM   22  O2  UNL     1      24.685   3.487  53.088  1.00  0.00    -0.284 OA
HETATM   23  H9  UNL     1      23.879   3.823  52.576  1.00  0.00     0.245 HD
ENDBRANCH   7  22
BRANCH  10  24
HETATM   24  C13 UNL     1      27.291  -0.624  53.285  1.00  0.00    -0.008 A 
HETATM   25  C14 UNL     1      28.423  -0.033  53.747  1.00  0.00     0.013 A 
HETATM   26  C15 UNL     1      29.660  -0.684  53.819  1.00  0.00     0.001 A 
HETATM   27  C16 UNL     1      29.639  -1.990  53.382  1.00  0.00     0.000 A 
HETATM   28  C17 UNL     1      28.509  -2.622  52.909  1.00  0.00     0.001 A 
HETATM   29  C18 UNL     1      27.287  -1.943  52.847  1.00  0.00     0.013 A 
ENDBRANCH  10  24
TORSDOF 5
ENDMDL
MODEL 5
REMARK VINA RESULT:      -8.4      4.875      9.030
REMARK  5 active torsions:
REMARK  status: ('A' for Active; 'I' for Inactive)
REMARK    1  A    between atoms: O1_2  and  C2_3 
REMARK    2  A    between atoms: C6_7  and  N1_8 
REMARK    3  A    between atoms: N1_8  and  C7_9 
REMARK    4  A    between atoms: N4_15  and  O2_16 
REMARK    5  A    between atoms: C12_19  and  C13_20 
ROOT
HETATM    1  C7  UNL     1      21.264   1.172  52.575  1.00  0.00     0.728 A 
HETATM    2  N2  UNL     1      21.433  -0.146  52.847  1.00  0.00    -0.072 NA
HETATM    3  C8  UNL     1      22.652  -0.686  53.120  1.00  0.00     0.172 A 
HETATM    4  C9  UNL     1      23.694   0.217  53.099  1.00  0.00     0.123 A 
HETATM    5  C10 UNL     1      23.604   1.564  52.841  1.00  0.00     0.200 A 
HETATM    6  N3  UNL     1      22.365   1.971  52.587  1.00  0.00    -0.040 NA
HETATM    7  N4  UNL     1      24.708   2.447  52.867  1.00  0.00    -0.215 N 
HETATM    8  C11 UNL     1      26.049   1.905  52.852  1.00  0.00     0.264 C 
HETATM    9 CL1  UNL     1      26.726   2.309  51.238  1.00  0.00    -0.093 Cl
HETATM   10  C12 UNL     1      26.090   0.459  53.135  1.00  0.00     0.085 C 
HETATM   11  N5  UNL     1      25.015  -0.297  53.243  1.00  0.00    -0.244 NA
ENDROOT
BRANCH   1  12
HETATM   12  N1  UNL     1      20.011   1.752  52.267  1.00  0.00    -0.188 N 
HETATM   13  H7  UNL     1      20.073   2.762  52.648  1.00  0.00     0.184 HD
BRANCH  12  14
HETATM   14  C6  UNL     1      18.778   1.466  51.640  1.00  0.00     0.052 A 
HETATM   15  C5  UNL     1      18.610   0.228  51.009  1.00  0.00     0.030 A 
HETATM   16  C4  UNL     1      17.412  -0.057  50.405  1.00  0.00     0.005 A 
HETATM   17  C3  UNL     1      16.400   0.857  50.417  1.00  0.00     0.037 A 
HETATM   18  C2  UNL     1      16.509   2.086  51.021  1.00  0.00     0.070 A 
HETATM   19  C19 UNL     1      17.707   2.363  51.624  1.00  0.00     0.066 A 
BRANCH  18  20
HETATM   20  O1  UNL     1      15.404   2.928  50.965  1.00  0.00    -0.356 OA
HETATM   21  C1  UNL     1      15.270   3.976  51.918  1.00  0.00     0.210 C 
ENDBRANCH  18  20
ENDBRANCH  12  14
ENDBRANCH   1  12
BRANCH   7  22
HETATM   22  O2  UNL     1      24.529   3.782  52.922  1.00  0.00    -0.284 OA
HETATM   23  H9  UNL     1      24.079   4.106  52.076  1.00  0.00     0.245 HD
ENDBRANCH   7  22
BRANCH  10  24
HETATM   24  C13 UNL     1      27.438  -0.111  53.274  1.00  0.00    -0.008 A 
HETATM   25  C14 UNL     1      28.523   0.597  53.679  1.00  0.00     0.013 A 
HETATM   26  C15 UNL     1      29.804   0.044  53.800  1.00  0.00     0.001 A 
HETATM   27  C16 UNL     1      29.877  -1.292  53.475  1.00  0.00     0.000 A 
HETATM   28  C17 UNL     1      28.795  -2.042  53.063  1.00  0.00     0.001 A 
HETATM   29  C18 UNL     1      27.528  -1.459  52.950  1.00  0.00     0.013 A 
ENDBRANCH  10  24
TORSDOF 5
ENDMDL
MODEL 6
REMARK VINA RESULT:      -8.1      2.311      3.102
REMARK  5 active torsions:
REMARK  status: ('A' for Active; 'I' for Inactive)
REMARK    1  A    between atoms: O1_2  and  C2_3 
REMARK    2  A    between atoms: C6_7  and  N1_8 
REMARK    3  A    between atoms: N1_8  and  C7_9 
REMARK    4  A    between atoms: N4_15  and  O2_16 
REMARK    5  A    between atoms: C12_19  and  C13_20 
ROOT
HETATM    1  C7  UNL     1      26.093   4.361  49.528  1.00  0.00     0.728 A 
HETATM    2  N2  UNL     1      26.852   3.492  50.242  1.00  0.00    -0.072 NA
HETATM    3  C8  UNL     1      26.310   2.485  50.980  1.00  0.00     0.172 A 
HETATM    4  C9  UNL     1      24.934   2.423  50.939  1.00  0.00     0.123 A 
HETATM    5  C10 UNL     1      24.098   3.259  50.238  1.00  0.00     0.200 A 
HETATM    6  N3  UNL     1      24.743   4.202  49.559  1.00  0.00    -0.040 NA
HETATM    7  N4  UNL     1      22.690   3.124  50.209  1.00  0.00    -0.215 N 
HETATM    8  C11 UNL     1      22.040   2.283  51.189  1.00  0.00     0.264 C 
HETATM    9 CL1  UNL     1      21.156   3.397  52.286  1.00  0.00    -0.093 Cl
HETATM   10  C12 UNL     1      22.979   1.407  51.912  1.00  0.00     0.085 C 
HETATM   11  N5  UNL     1      24.290   1.481  51.792  1.00  0.00    -0.244 NA
ENDROOT
BRANCH   1  12
HETATM   12  N1  UNL     1      26.631   5.429  48.771  1.00  0.00    -0.188 N 
HETATM   13  H7  UNL     1      25.781   5.862  48.262  1.00  0.00     0.184 HD
BRANCH  12  14
HETATM   14  C6  UNL     1      27.847   6.091  48.493  1.00  0.00     0.052 A 
HETATM   15  C5  UNL     1      28.969   5.331  48.143  1.00  0.00     0.030 A 
HETATM   16  C4  UNL     1      30.150   5.970  47.865  1.00  0.00     0.005 A 
HETATM   17  C3  UNL     1      30.229   7.331  47.932  1.00  0.00     0.037 A 
HETATM   18  C2  UNL     1      29.161   8.126  48.269  1.00  0.00     0.070 A 
HETATM   19  C19 UNL     1      27.985   7.481  48.544  1.00  0.00     0.066 A 
BRANCH  18  20
HETATM   20  O1  UNL     1      29.370   9.500  48.300  1.00  0.00    -0.356 OA
HETATM   21  C1  UNL     1      30.438  10.030  49.077  1.00  0.00     0.210 C 
ENDBRANCH  18  20
ENDBRANCH  12  14
ENDBRANCH   1  12
BRANCH   7  22
HETATM   22  O2  UNL     1      21.951   3.753  49.274  1.00  0.00    -0.284 OA
HETATM   23  H9  UNL     1      21.001   3.405  49.291  1.00  0.00     0.245 HD
ENDBRANCH   7  22
BRANCH  10  24
HETATM   24  C13 UNL     1      22.352   0.431  52.815  1.00  0.00    -0.008 A 
HETATM   25  C14 UNL     1      21.036   0.101  52.780  1.00  0.00     0.013 A 
HETATM   26  C15 UNL     1      20.448  -0.824  53.651  1.00  0.00     0.001 A 
HETATM   27  C16 UNL     1      21.323  -1.384  54.557  1.00  0.00     0.000 A 
HETATM   28  C17 UNL     1      22.665  -1.074  54.619  1.00  0.00     0.001 A 
HETATM   29  C18 UNL     1      23.221  -0.143  53.735  1.00  0.00     0.013 A 
ENDBRANCH  10  24
TORSDOF 5
ENDMDL
MODEL 7
REMARK VINA RESULT:      -8.0      4.524     10.874
REMARK  5 active torsions:
REMARK  status: ('A' for Active; 'I' for Inactive)
REMARK    1  A    between atoms: O1_2  and  C2_3 
REMARK    2  A    between atoms: C6_7  and  N1_8 
REMARK    3  A    between atoms: N1_8  and  C7_9 
REMARK    4  A    between atoms: N4_15  and  O2_16 
REMARK    5  A    between atoms: C12_19  and  C13_20 
ROOT
HETATM    1  C7  UNL     1      19.791   0.154  52.330  1.00  0.00     0.728 A 
HETATM    2  N2  UNL     1      19.423   0.892  51.252  1.00  0.00    -0.072 NA
HETATM    3  C8  UNL     1      20.315   1.623  50.529  1.00  0.00     0.172 A 
HETATM    4  C9  UNL     1      21.615   1.550  50.982  1.00  0.00     0.123 A 
HETATM    5  C10 UNL     1      22.066   0.823  52.058  1.00  0.00     0.200 A 
HETATM    6  N3  UNL     1      21.104   0.153  52.683  1.00  0.00    -0.040 NA
HETATM    7  N4  UNL     1      23.422   0.761  52.454  1.00  0.00    -0.215 N 
HETATM    8  C11 UNL     1      24.358   1.730  51.929  1.00  0.00     0.264 C 
HETATM    9 CL1  UNL     1      24.787   2.798  53.308  1.00  0.00    -0.093 Cl
HETATM   10  C12 UNL     1      23.826   2.482  50.778  1.00  0.00     0.085 C 
HETATM   11  N5  UNL     1      22.579   2.393  50.359  1.00  0.00    -0.244 NA
ENDROOT
BRANCH   1  12
HETATM   12  N1  UNL     1      18.879  -0.596  53.110  1.00  0.00    -0.188 N 
HETATM   13  H7  UNL     1      19.112  -0.335  54.133  1.00  0.00     0.184 HD
BRANCH  12  14
HETATM   14  C6  UNL     1      17.809  -1.510  52.996  1.00  0.00     0.052 A 
HETATM   15  C5  UNL     1      16.690  -1.152  52.234  1.00  0.00     0.030 A 
HETATM   16  C4  UNL     1      15.651  -2.039  52.115  1.00  0.00     0.005 A 
HETATM   17  C3  UNL     1      15.708  -3.254  52.733  1.00  0.00     0.037 A 
HETATM   18  C2  UNL     1      16.781  -3.658  53.491  1.00  0.00     0.070 A 
HETATM   19  C19 UNL     1      17.814  -2.768  53.605  1.00  0.00     0.066 A 
BRANCH  18  20
HETATM   20  O1  UNL     1      16.717  -4.921  54.069  1.00  0.00    -0.356 OA
HETATM   21  C1  UNL     1      15.533  -5.698  53.931  1.00  0.00     0.210 C 
ENDBRANCH  18  20
ENDBRANCH  12  14
ENDBRANCH   1  12
BRANCH   7  22
HETATM   22  O2  UNL     1      23.856  -0.196  53.299  1.00  0.00    -0.284 OA
HETATM   23  H9  UNL     1      24.721   0.094  53.735  1.00  0.00     0.245 HD
ENDBRANCH   7  22
BRANCH  10  24
HETATM   24  C13 UNL     1      24.789   3.375  50.119  1.00  0.00    -0.008 A 
HETATM   25  C14 UNL     1      26.098   3.072  49.926  1.00  0.00     0.013 A 
HETATM   26  C15 UNL     1      27.007   3.935  49.303  1.00  0.00     0.001 A 
HETATM   27  C16 UNL     1      26.462   5.132  48.893  1.00  0.00     0.000 A 
HETATM   28  C17 UNL     1      25.137   5.472  49.070  1.00  0.00     0.001 A 
HETATM   29  C18 UNL     1      24.254   4.587  49.699  1.00  0.00     0.013 A 
ENDBRANCH  10  24
TORSDOF 5
ENDMDL
MODEL 8
REMARK VINA RESULT:      -8.0      2.968      9.863
REMARK  5 active torsions:
REMARK  status: ('A' for Active; 'I' for Inactive)
REMARK    1  A    between atoms: O1_2  and  C2_3 
REMARK    2  A    between atoms: C6_7  and  N1_8 
REMARK    3  A    between atoms: N1_8  and  C7_9 
REMARK    4  A    between atoms: N4_15  and  O2_16 
REMARK    5  A    between atoms: C12_19  and  C13_20 
ROOT
HETATM    1  C7  UNL     1      27.017   4.831  48.946  1.00  0.00     0.728 A 
HETATM    2  N2  UNL     1      26.442   6.060  48.897  1.00  0.00    -0.072 NA
HETATM    3  C8  UNL     1      27.133   7.175  48.533  1.00  0.00     0.172 A 
HETATM    4  C9  UNL     1      28.456   6.951  48.220  1.00  0.00     0.123 A 
HETATM    5  C10 UNL     1      29.108   5.740  48.238  1.00  0.00     0.200 A 
HETATM    6  N3  UNL     1      28.330   4.729  48.610  1.00  0.00    -0.040 NA
HETATM    7  N4  UNL     1      30.463   5.569  47.873  1.00  0.00    -0.215 N 
HETATM    8  C11 UNL     1      31.320   6.728  47.770  1.00  0.00     0.264 C 
HETATM    9 CL1  UNL     1      32.463   6.620  49.151  1.00  0.00    -0.093 Cl
HETATM   10  C12 UNL     1      30.573   7.999  47.753  1.00  0.00     0.085 C 
HETATM   11  N5  UNL     1      29.275   8.088  47.961  1.00  0.00    -0.244 NA
ENDROOT
BRANCH   1  12
HETATM   12  N1  UNL     1      26.325   3.661  49.341  1.00  0.00    -0.188 N 
HETATM   13  H7  UNL     1      26.085   3.157  48.415  1.00  0.00     0.184 HD
BRANCH  12  14
HETATM   14  C6  UNL     1      25.888   2.964  50.488  1.00  0.00     0.052 A 
HETATM   15  C5  UNL     1      24.517   2.750  50.669  1.00  0.00     0.030 A 
HETATM   16  C4  UNL     1      24.087   2.067  51.778  1.00  0.00     0.005 A 
HETATM   17  C3  UNL     1      24.986   1.604  52.693  1.00  0.00     0.037 A 
HETATM   18  C2  UNL     1      26.343   1.784  52.566  1.00  0.00     0.070 A 
HETATM   19  C19 UNL     1      26.764   2.466  51.456  1.00  0.00     0.066 A 
BRANCH  18  20
HETATM   20  O1  UNL     1      27.155   1.262  53.567  1.00  0.00    -0.356 OA
HETATM   21  C1  UNL     1      26.576   0.478  54.603  1.00  0.00     0.210 C 
ENDBRANCH  18  20
ENDBRANCH  12  14
ENDBRANCH   1  12
BRANCH   7  22
HETATM   22  O2  UNL     1      30.960   4.345  47.603  1.00  0.00    -0.284 OA
HETATM   23  H9  UNL     1      30.862   4.141  46.617  1.00  0.00     0.245 HD
ENDBRANCH   7  22
BRANCH  10  24
HETATM   24  C13 UNL     1      31.388   9.197  47.505  1.00  0.00    -0.008 A 
HETATM   25  C14 UNL     1      32.506   9.209  46.736  1.00  0.00     0.013 A 
HETATM   26  C15 UNL     1      33.278  10.356  46.513  1.00  0.00     0.001 A 
HETATM   27  C16 UNL     1      32.806  11.487  47.141  1.00  0.00     0.000 A 
HETATM   28  C17 UNL     1      31.673  11.512  47.927  1.00  0.00     0.001 A 
HETATM   29  C18 UNL     1      30.925  10.348  48.132  1.00  0.00     0.013 A 
ENDBRANCH  10  24
TORSDOF 5
ENDMDL
MODEL 9
REMARK VINA RESULT:      -7.8      6.070     10.189
REMARK  5 active torsions:
REMARK  status: ('A' for Active; 'I' for Inactive)
REMARK    1  A    between atoms: O1_2  and  C2_3 
REMARK    2  A    between atoms: C6_7  and  N1_8 
REMARK    3  A    between atoms: N1_8  and  C7_9 
REMARK    4  A    between atoms: N4_15  and  O2_16 
REMARK    5  A    between atoms: C12_19  and  C13_20 
ROOT
HETATM    1  C7  UNL     1      18.898   3.466  51.580  1.00  0.00     0.728 A 
HETATM    2  N2  UNL     1      19.910   4.340  51.349  1.00  0.00    -0.072 NA
HETATM    3  C8  UNL     1      21.218   4.008  51.531  1.00  0.00     0.172 A 
HETATM    4  C9  UNL     1      21.424   2.716  51.964  1.00  0.00     0.123 A 
HETATM    5  C10 UNL     1      20.456   1.772  52.213  1.00  0.00     0.200 A 
HETATM    6  N3  UNL     1      19.222   2.214  52.001  1.00  0.00    -0.040 NA
HETATM    7  N4  UNL     1      20.734   0.448  52.625  1.00  0.00    -0.215 N 
HETATM    8  C11 UNL     1      22.053   0.122  53.119  1.00  0.00     0.264 C 
HETATM    9 CL1  UNL     1      21.862  -0.172  54.880  1.00  0.00    -0.093 Cl
HETATM   10  C12 UNL     1      23.053   1.166  52.826  1.00  0.00     0.085 C 
HETATM   11  N5  UNL     1      22.756   2.339  52.305  1.00  0.00    -0.244 NA
ENDROOT
BRANCH   1  12
HETATM   12  N1  UNL     1      17.531   3.794  51.419  1.00  0.00    -0.188 N 
HETATM   13  H7  UNL     1      17.519   4.553  50.648  1.00  0.00     0.184 HD
BRANCH  12  14
HETATM   14  C6  UNL     1      16.245   3.459  51.895  1.00  0.00     0.052 A 
HETATM   15  C5  UNL     1      15.651   2.268  51.463  1.00  0.00     0.030 A 
HETATM   16  C4  UNL     1      14.404   1.935  51.928  1.00  0.00     0.005 A 
HETATM   17  C3  UNL     1      13.752   2.757  52.799  1.00  0.00     0.037 A 
HETATM   18  C2  UNL     1      14.286   3.938  53.256  1.00  0.00     0.070 A 
HETATM   19  C19 UNL     1      15.531   4.263  52.789  1.00  0.00     0.066 A 
BRANCH  18  20
HETATM   20  O1  UNL     1      13.520   4.686  54.143  1.00  0.00    -0.356 OA
HETATM   21  C1  UNL     1      12.189   4.281  54.436  1.00  0.00     0.210 C 
ENDBRANCH  18  20
ENDBRANCH  12  14
ENDBRANCH   1  12
BRANCH   7  22
HETATM   22  O2  UNL     1      19.794  -0.515  52.548  1.00  0.00    -0.284 OA
HETATM   23  H9  UNL     1      19.340  -0.628  53.445  1.00  0.00     0.245 HD
ENDBRANCH   7  22
BRANCH  10  24
HETATM   24  C13 UNL     1      24.437   0.819  53.180  1.00  0.00    -0.008 A 
HETATM   25  C14 UNL     1      25.379   1.727  53.542  1.00  0.00     0.013 A 
HETATM   26  C15 UNL     1      26.696   1.384  53.869  1.00  0.00     0.001 A 
HETATM   27  C16 UNL     1      26.966   0.035  53.796  1.00  0.00     0.000 A 
HETATM   28  C17 UNL     1      26.033  -0.914  53.434  1.00  0.00     0.001 A 
HETATM   29  C18 UNL     1      24.725  -0.539  53.111  1.00  0.00     0.013 A 
ENDBRANCH  10  24
TORSDOF 5
ENDMDL
