MODEL 1
REMARK VINA RESULT:      -8.1      0.000      0.000
REMARK  5 active torsions:
REMARK  status: ('A' for Active; 'I' for Inactive)
REMARK    1  A    between atoms: N2_5  and  C4_6 
REMARK    2  A    between atoms: C5_7  and  C6_8 
REMARK    3  A    between atoms: C7_9  and  N3_10 
REMARK    4  A    between atoms: N3_10  and  C8_11 
REMARK    5  A    between atoms: C16_21  and  N6_23 
ROOT
HETATM    1  C8  UNL     1      24.111   4.464  51.149  1.00  0.00     0.099 C 
HETATM    2  N4  UNL     1      24.824   3.765  50.331  1.00  0.00    -0.271 NA
HETATM    3  C9  UNL     1      25.468   4.609  49.350  1.00  0.00     0.121 C 
HETATM    4  C10 UNL     1      26.912   4.261  49.083  1.00  0.00     0.068 C 
HETATM    5  C11 UNL     1      27.590   5.493  48.568  1.00  0.00    -0.029 C 
HETATM    6  C12 UNL     1      28.868   5.373  48.238  1.00  0.00     0.125 C 
HETATM    7  N5  UNL     1      29.534   6.551  47.740  1.00  0.00    -0.257 NA
HETATM    8  C13 UNL     1      28.946   7.691  47.875  1.00  0.00     0.098 C 
HETATM    9  C14 UNL     1      27.655   7.696  47.720  1.00  0.00     0.018 C 
HETATM   10  C15 UNL     1      26.960   6.800  48.401  1.00  0.00     0.001 C 
HETATM   11  C16 UNL     1      25.604   6.997  49.010  1.00  0.00     0.186 C 
HETATM   12  C17 UNL     1      25.484   8.360  49.646  1.00  0.00     0.054 C 
HETATM   13  C18 UNL     1      25.502   5.944  50.067  1.00  0.00     0.060 C 
HETATM   14  C19 UNL     1      24.196   5.925  50.797  1.00  0.00     0.087 C 
ENDROOT
BRANCH   1  15
HETATM   15  N3  UNL     1      23.359   3.912  52.223  1.00  0.00    -0.355 N 
HETATM   16  H12 UNL     1      23.024   4.579  52.952  1.00  0.00     0.166 HD
BRANCH  15  17
HETATM   17  C7  UNL     1      23.048   2.528  52.350  1.00  0.00     0.089 C 
HETATM   18  C6  UNL     1      23.862   1.761  53.093  1.00  0.00     0.018 C 
BRANCH  18  19
HETATM   19  C5  UNL     1      23.602   0.337  53.264  1.00  0.00     0.018 C 
HETATM   20  C4  UNL     1      24.612  -0.529  53.417  1.00  0.00     0.087 C 
BRANCH  20  21
HETATM   21  N2  UNL     1      25.932   0.013  53.403  1.00  0.00    -0.363 N 
HETATM   22  C3  UNL     1      26.814   0.454  52.340  1.00  0.00     0.154 C 
HETATM   23  C2  UNL     1      27.762   1.377  53.067  1.00  0.00     0.293 C 
HETATM   24  N1  UNL     1      27.916   0.737  54.349  1.00  0.00     0.103 N 
HETATM   25  C1  UNL     1      28.920  -0.301  54.232  1.00  0.00     0.312 C 
HETATM   26  C20 UNL     1      26.615   0.195  54.691  1.00  0.00     0.396 C 
ENDBRANCH  20  21
ENDBRANCH  18  19
ENDBRANCH  15  17
ENDBRANCH   1  15
BRANCH  11  27
HETATM   27  N6  UNL     1      24.639   6.830  47.967  1.00  0.00     0.092 N 
HETATM   28  H20 UNL     1      24.342   7.694  47.487  1.00  0.00     0.314 HD
HETATM   29  H21 UNL     1      25.024   6.107  47.318  1.00  0.00     0.314 HD
ENDBRANCH  11  27
TORSDOF 5
ENDMDL
MODEL 2
REMARK VINA RESULT:      -7.8      2.183      8.045
REMARK  5 active torsions:
REMARK  status: ('A' for Active; 'I' for Inactive)
REMARK    1  A    between atoms: N2_5  and  C4_6 
REMARK    2  A    between atoms: C5_7  and  C6_8 
REMARK    3  A    between atoms: C7_9  and  N3_10 
REMARK    4  A    between atoms: N3_10  and  C8_11 
REMARK    5  A    between atoms: C16_21  and  N6_23 
ROOT
HETATM    1  C8  UNL     1      26.411   3.512  49.996  1.00  0.00     0.099 C 
HETATM    2  N4  UNL     1      26.851   2.877  51.030  1.00  0.00    -0.271 NA
HETATM    3  C9  UNL     1      25.765   2.494  51.905  1.00  0.00     0.121 C 
HETATM    4  C10 UNL     1      25.866   1.087  52.440  1.00  0.00     0.068 C 
HETATM    5  C11 UNL     1      24.483   0.633  52.791  1.00  0.00    -0.029 C 
HETATM    6  C12 UNL     1      24.373  -0.579  53.318  1.00  0.00     0.125 C 
HETATM    7  N5  UNL     1      23.046  -1.030  53.662  1.00  0.00    -0.257 NA
HETATM    8  C13 UNL     1      22.037  -0.360  53.220  1.00  0.00     0.098 C 
HETATM    9  C14 UNL     1      22.174   0.933  53.183  1.00  0.00     0.018 C 
HETATM   10  C15 UNL     1      23.262   1.410  52.603  1.00  0.00     0.001 C 
HETATM   11  C16 UNL     1      23.359   2.660  51.779  1.00  0.00     0.186 C 
HETATM   12  C17 UNL     1      22.161   2.811  50.874  1.00  0.00     0.054 C 
HETATM   13  C18 UNL     1      24.589   2.478  50.949  1.00  0.00     0.060 C 
HETATM   14  C19 UNL     1      24.912   3.635  50.058  1.00  0.00     0.087 C 
ENDROOT
BRANCH   1  15
HETATM   15  N3  UNL     1      27.242   4.016  48.957  1.00  0.00    -0.355 N 
HETATM   16  H12 UNL     1      27.819   3.317  48.438  1.00  0.00     0.166 HD
BRANCH  15  17
HETATM   17  C7  UNL     1      27.325   5.391  48.599  1.00  0.00     0.089 C 
HETATM   18  C6  UNL     1      28.518   5.877  48.220  1.00  0.00     0.018 C 
BRANCH  18  19
HETATM   19  C5  UNL     1      28.672   7.275  47.840  1.00  0.00     0.018 C 
HETATM   20  C4  UNL     1      29.890   7.811  47.686  1.00  0.00     0.087 C 
BRANCH  20  21
HETATM   21  N2  UNL     1      31.006   6.950  47.911  1.00  0.00    -0.363 N 
HETATM   22  C3  UNL     1      31.638   6.436  49.109  1.00  0.00     0.154 C 
HETATM   23  C2  UNL     1      32.357   5.212  48.598  1.00  0.00     0.293 C 
HETATM   24  N1  UNL     1      32.791   5.617  47.284  1.00  0.00     0.103 N 
HETATM   25  C1  UNL     1      34.026   6.363  47.413  1.00  0.00     0.312 C 
HETATM   26  C20 UNL     1      31.721   6.430  46.738  1.00  0.00     0.396 C 
ENDBRANCH  20  21
ENDBRANCH  18  19
ENDBRANCH  15  17
ENDBRANCH   1  15
BRANCH  11  27
HETATM   27  N6  UNL     1      23.460   3.762  52.685  1.00  0.00     0.092 N 
HETATM   28  H20 UNL     1      22.709   4.468  52.621  1.00  0.00     0.314 HD
HETATM   29  H21 UNL     1      23.563   3.353  53.641  1.00  0.00     0.314 HD
ENDBRANCH  11  27
TORSDOF 5
ENDMDL
MODEL 3
REMARK VINA RESULT:      -7.7      2.108      8.274
REMARK  5 active torsions:
REMARK  status: ('A' for Active; 'I' for Inactive)
REMARK    1  A    between atoms: N2_5  and  C4_6 
REMARK    2  A    between atoms: C5_7  and  C6_8 
REMARK    3  A    between atoms: C7_9  and  N3_10 
REMARK    4  A    between atoms: N3_10  and  C8_11 
REMARK    5  A    between atoms: C16_21  and  N6_23 
ROOT
HETATM    1  C8  UNL     1      26.054   2.853  51.260  1.00  0.00     0.099 C 
HETATM    2  N4  UNL     1      24.940   2.298  50.916  1.00  0.00    -0.271 NA
HETATM    3  C9  UNL     1      24.691   1.105  51.693  1.00  0.00     0.121 C 
HETATM    4  C10 UNL     1      23.270   0.969  52.181  1.00  0.00     0.068 C 
HETATM    5  C11 UNL     1      23.288   0.097  53.399  1.00  0.00    -0.029 C 
HETATM    6  C12 UNL     1      22.113  -0.173  53.953  1.00  0.00     0.125 C 
HETATM    7  N5  UNL     1      22.115  -1.011  55.126  1.00  0.00    -0.257 NA
HETATM    8  C13 UNL     1      23.240  -1.243  55.713  1.00  0.00     0.098 C 
HETATM    9  C14 UNL     1      24.274  -1.397  54.939  1.00  0.00     0.018 C 
HETATM   10  C15 UNL     1      24.482  -0.474  54.015  1.00  0.00     0.001 C 
HETATM   11  C16 UNL     1      25.813   0.036  53.547  1.00  0.00     0.186 C 
HETATM   12  C17 UNL     1      26.766   0.213  54.702  1.00  0.00     0.054 C 
HETATM   13  C18 UNL     1      25.519   1.369  52.936  1.00  0.00     0.060 C 
HETATM   14  C19 UNL     1      26.712   2.062  52.359  1.00  0.00     0.087 C 
ENDROOT
BRANCH   1  15
HETATM   15  N3  UNL     1      26.568   4.042  50.672  1.00  0.00    -0.355 N 
HETATM   16  H12 UNL     1      27.343   4.520  51.183  1.00  0.00     0.166 HD
BRANCH  15  17
HETATM   17  C7  UNL     1      26.090   4.599  49.452  1.00  0.00     0.089 C 
HETATM   18  C6  UNL     1      25.801   5.909  49.423  1.00  0.00     0.018 C 
BRANCH  18  19
HETATM   19  C5  UNL     1      25.308   6.542  48.206  1.00  0.00     0.018 C 
HETATM   20  C4  UNL     1      24.047   6.987  48.130  1.00  0.00     0.087 C 
BRANCH  20  21
HETATM   21  N2  UNL     1      23.231   6.809  49.287  1.00  0.00    -0.363 N 
HETATM   22  C3  UNL     1      22.986   7.617  50.465  1.00  0.00     0.154 C 
HETATM   23  C2  UNL     1      21.659   7.088  50.953  1.00  0.00     0.293 C 
HETATM   24  N1  UNL     1      21.745   5.680  50.657  1.00  0.00     0.103 N 
HETATM   25  C1  UNL     1      22.468   5.024  51.727  1.00  0.00     0.312 C 
HETATM   26  C20 UNL     1      22.440   5.575  49.388  1.00  0.00     0.396 C 
ENDBRANCH  20  21
ENDBRANCH  18  19
ENDBRANCH  15  17
ENDBRANCH   1  15
BRANCH  11  27
HETATM   27  N6  UNL     1      26.322  -0.907  52.600  1.00  0.00     0.092 N 
HETATM   28  H20 UNL     1      25.637  -1.281  51.925  1.00  0.00     0.314 HD
HETATM   29  H21 UNL     1      27.148  -0.457  52.145  1.00  0.00     0.314 HD
ENDBRANCH  11  27
TORSDOF 5
ENDMDL
MODEL 4
REMARK VINA RESULT:      -7.7      2.425      6.935
REMARK  5 active torsions:
REMARK  status: ('A' for Active; 'I' for Inactive)
REMARK    1  A    between atoms: N2_5  and  C4_6 
REMARK    2  A    between atoms: C5_7  and  C6_8 
REMARK    3  A    between atoms: C7_9  and  N3_10 
REMARK    4  A    between atoms: N3_10  and  C8_11 
REMARK    5  A    between atoms: C16_21  and  N6_23 
ROOT
HETATM    1  C8  UNL     1      22.773   0.650  52.528  1.00  0.00     0.099 C 
HETATM    2  N4  UNL     1      23.294   1.657  53.146  1.00  0.00    -0.271 NA
HETATM    3  C9  UNL     1      24.581   1.313  53.707  1.00  0.00     0.121 C 
HETATM    4  C10 UNL     1      25.645   2.364  53.509  1.00  0.00     0.068 C 
HETATM    5  C11 UNL     1      26.977   1.682  53.569  1.00  0.00    -0.029 C 
HETATM    6  C12 UNL     1      28.046   2.457  53.453  1.00  0.00     0.125 C 
HETATM    7  N5  UNL     1      29.336   1.813  53.509  1.00  0.00    -0.257 NA
HETATM    8  C13 UNL     1      29.385   0.528  53.415  1.00  0.00     0.098 C 
HETATM    9  C14 UNL     1      28.428  -0.130  54.002  1.00  0.00     0.018 C 
HETATM   10  C15 UNL     1      27.187   0.248  53.745  1.00  0.00     0.001 C 
HETATM   11  C16 UNL     1      25.990  -0.647  53.618  1.00  0.00     0.186 C 
HETATM   12  C17 UNL     1      26.330  -1.910  52.865  1.00  0.00     0.054 C 
HETATM   13  C18 UNL     1      24.998   0.149  52.830  1.00  0.00     0.060 C 
HETATM   14  C19 UNL     1      23.690  -0.541  52.606  1.00  0.00     0.087 C 
ENDROOT
BRANCH   1  15
HETATM   15  N3  UNL     1      21.510   0.683  51.874  1.00  0.00    -0.355 N 
HETATM   16  H12 UNL     1      20.700   0.285  52.399  1.00  0.00     0.166 HD
BRANCH  15  17
HETATM   17  C7  UNL     1      21.300   1.218  50.571  1.00  0.00     0.089 C 
HETATM   18  C6  UNL     1      22.377   1.527  49.833  1.00  0.00     0.018 C 
BRANCH  18  19
HETATM   19  C5  UNL     1      22.234   2.077  48.491  1.00  0.00     0.018 C 
HETATM   20  C4  UNL     1      22.640   3.324  48.216  1.00  0.00     0.087 C 
BRANCH  20  21
HETATM   21  N2  UNL     1      23.212   4.066  49.293  1.00  0.00    -0.363 N 
HETATM   22  C3  UNL     1      22.643   4.858  50.365  1.00  0.00     0.154 C 
HETATM   23  C2  UNL     1      23.754   4.868  51.386  1.00  0.00     0.293 C 
HETATM   24  N1  UNL     1      24.942   4.920  50.571  1.00  0.00     0.103 N 
HETATM   25  C1  UNL     1      25.189   6.299  50.199  1.00  0.00     0.312 C 
HETATM   26  C20 UNL     1      24.675   4.087  49.414  1.00  0.00     0.396 C 
ENDBRANCH  20  21
ENDBRANCH  18  19
ENDBRANCH  15  17
ENDBRANCH   1  15
BRANCH  11  27
HETATM   27  N6  UNL     1      25.537  -0.944  54.941  1.00  0.00     0.092 N 
HETATM   28  H20 UNL     1      24.875  -1.733  55.024  1.00  0.00     0.314 HD
HETATM   29  H21 UNL     1      26.393  -1.058  55.530  1.00  0.00     0.314 HD
ENDBRANCH  11  27
TORSDOF 5
ENDMDL
MODEL 5
REMARK VINA RESULT:      -7.5      2.700      4.122
REMARK  5 active torsions:
REMARK  status: ('A' for Active; 'I' for Inactive)
REMARK    1  A    between atoms: N2_5  and  C4_6 
REMARK    2  A    between atoms: C5_7  and  C6_8 
REMARK    3  A    between atoms: C7_9  and  N3_10 
REMARK    4  A    between atoms: N3_10  and  C8_11 
REMARK    5  A    between atoms: C16_21  and  N6_23 
ROOT
HETATM    1  C8  UNL     1      22.304   2.306  51.382  1.00  0.00     0.099 C 
HETATM    2  N4  UNL     1      21.338   3.107  51.687  1.00  0.00    -0.271 NA
HETATM    3  C9  UNL     1      21.780   4.483  51.673  1.00  0.00     0.121 C 
HETATM    4  C10 UNL     1      20.817   5.437  51.009  1.00  0.00     0.068 C 
HETATM    5  C11 UNL     1      21.603   6.620  50.534  1.00  0.00    -0.029 C 
HETATM    6  C12 UNL     1      20.915   7.594  49.953  1.00  0.00     0.125 C 
HETATM    7  N5  UNL     1      21.658   8.739  49.490  1.00  0.00    -0.257 NA
HETATM    8  C13 UNL     1      22.944   8.655  49.433  1.00  0.00     0.098 C 
HETATM    9  C14 UNL     1      23.521   7.989  50.390  1.00  0.00     0.018 C 
HETATM   10  C15 UNL     1      23.048   6.783  50.659  1.00  0.00     0.001 C 
HETATM   11  C16 UNL     1      23.846   5.584  51.077  1.00  0.00     0.186 C 
HETATM   12  C17 UNL     1      25.135   5.489  50.300  1.00  0.00     0.054 C 
HETATM   13  C18 UNL     1      22.978   4.412  50.746  1.00  0.00     0.060 C 
HETATM   14  C19 UNL     1      23.563   3.086  51.114  1.00  0.00     0.087 C 
ENDROOT
BRANCH   1  15
HETATM   15  N3  UNL     1      22.174   0.890  51.314  1.00  0.00    -0.355 N 
HETATM   16  H12 UNL     1      22.063   0.475  50.363  1.00  0.00     0.166 HD
BRANCH  15  17
HETATM   17  C7  UNL     1      22.188   0.033  52.451  1.00  0.00     0.089 C 
HETATM   18  C6  UNL     1      23.243   0.096  53.279  1.00  0.00     0.018 C 
BRANCH  18  19
HETATM   19  C5  UNL     1      23.319  -0.753  54.461  1.00  0.00     0.018 C 
HETATM   20  C4  UNL     1      24.505  -1.152  54.940  1.00  0.00     0.087 C 
BRANCH  20  21
HETATM   21  N2  UNL     1      25.665  -0.705  54.239  1.00  0.00    -0.363 N 
HETATM   22  C3  UNL     1      26.303  -1.121  53.006  1.00  0.00     0.154 C 
HETATM   23  C2  UNL     1      27.105   0.100  52.627  1.00  0.00     0.293 C 
HETATM   24  N1  UNL     1      27.540   0.610  53.903  1.00  0.00     0.103 N 
HETATM   25  C1  UNL     1      28.725  -0.116  54.312  1.00  0.00     0.312 C 
HETATM   26  C20 UNL     1      26.435   0.403  54.820  1.00  0.00     0.396 C 
ENDBRANCH  20  21
ENDBRANCH  18  19
ENDBRANCH  15  17
ENDBRANCH   1  15
BRANCH  11  27
HETATM   27  N6  UNL     1      24.100   5.708  52.479  1.00  0.00     0.092 N 
HETATM   28  H20 UNL     1      23.754   4.934  53.069  1.00  0.00     0.314 HD
HETATM   29  H21 UNL     1      25.125   5.882  52.583  1.00  0.00     0.314 HD
ENDBRANCH  11  27
TORSDOF 5
ENDMDL
MODEL 6
REMARK VINA RESULT:      -7.5      1.824      2.731
REMARK  5 active torsions:
REMARK  status: ('A' for Active; 'I' for Inactive)
REMARK    1  A    between atoms: N2_5  and  C4_6 
REMARK    2  A    between atoms: C5_7  and  C6_8 
REMARK    3  A    between atoms: C7_9  and  N3_10 
REMARK    4  A    between atoms: N3_10  and  C8_11 
REMARK    5  A    between atoms: C16_21  and  N6_23 
ROOT
HETATM    1  C8  UNL     1      23.208   2.921  49.886  1.00  0.00     0.099 C 
HETATM    2  N4  UNL     1      22.466   3.962  49.708  1.00  0.00    -0.271 NA
HETATM    3  C9  UNL     1      23.271   5.142  49.487  1.00  0.00     0.121 C 
HETATM    4  C10 UNL     1      22.776   6.031  48.373  1.00  0.00     0.068 C 
HETATM    5  C11 UNL     1      23.943   6.819  47.865  1.00  0.00    -0.029 C 
HETATM    6  C12 UNL     1      23.694   7.693  46.899  1.00  0.00     0.125 C 
HETATM    7  N5  UNL     1      24.809   8.459  46.401  1.00  0.00    -0.257 NA
HETATM    8  C13 UNL     1      26.002   8.090  46.726  1.00  0.00     0.098 C 
HETATM    9  C14 UNL     1      26.156   7.640  47.936  1.00  0.00     0.018 C 
HETATM   10  C15 UNL     1      25.317   6.703  48.345  1.00  0.00     0.001 C 
HETATM   11  C16 UNL     1      25.640   5.546  49.244  1.00  0.00     0.186 C 
HETATM   12  C17 UNL     1      26.982   4.948  48.902  1.00  0.00     0.054 C 
HETATM   13  C18 UNL     1      24.565   4.541  48.976  1.00  0.00     0.060 C 
HETATM   14  C19 UNL     1      24.663   3.297  49.800  1.00  0.00     0.087 C 
ENDROOT
BRANCH   1  15
HETATM   15  N3  UNL     1      22.702   1.613  50.127  1.00  0.00    -0.355 N 
HETATM   16  H12 UNL     1      22.595   0.992  49.295  1.00  0.00     0.166 HD
BRANCH  15  17
HETATM   17  C7  UNL     1      22.344   1.122  51.414  1.00  0.00     0.089 C 
HETATM   18  C6  UNL     1      23.301   0.557  52.167  1.00  0.00     0.018 C 
BRANCH  18  19
HETATM   19  C5  UNL     1      23.001   0.035  53.494  1.00  0.00     0.018 C 
HETATM   20  C4  UNL     1      23.984  -0.388  54.300  1.00  0.00     0.087 C 
BRANCH  20  21
HETATM   21  N2  UNL     1      25.315  -0.298  53.793  1.00  0.00    -0.363 N 
HETATM   22  C3  UNL     1      26.117  -1.160  52.948  1.00  0.00     0.154 C 
HETATM   23  C2  UNL     1      27.154  -0.208  52.403  1.00  0.00     0.293 C 
HETATM   24  N1  UNL     1      27.396   0.676  53.515  1.00  0.00     0.103 N 
HETATM   25  C1  UNL     1      28.352   0.050  54.406  1.00  0.00     0.312 C 
HETATM   26  C20 UNL     1      26.111   0.882  54.156  1.00  0.00     0.396 C 
ENDBRANCH  20  21
ENDBRANCH  18  19
ENDBRANCH  15  17
ENDBRANCH   1  15
BRANCH  11  27
HETATM   27  N6  UNL     1      25.622   6.033  50.588  1.00  0.00     0.092 N 
HETATM   28  H20 UNL     1      26.358   6.715  50.830  1.00  0.00     0.314 HD
HETATM   29  H21 UNL     1      24.654   6.387  50.764  1.00  0.00     0.314 HD
ENDBRANCH  11  27
TORSDOF 5
ENDMDL
MODEL 7
REMARK VINA RESULT:      -7.5      4.186      7.265
REMARK  5 active torsions:
REMARK  status: ('A' for Active; 'I' for Inactive)
REMARK    1  A    between atoms: N2_5  and  C4_6 
REMARK    2  A    between atoms: C5_7  and  C6_8 
REMARK    3  A    between atoms: C7_9  and  N3_10 
REMARK    4  A    between atoms: N3_10  and  C8_11 
REMARK    5  A    between atoms: C16_21  and  N6_23 
ROOT
HETATM    1  C8  UNL     1      21.697  -0.172  53.679  1.00  0.00     0.099 C 
HETATM    2  N4  UNL     1      22.622  -1.031  53.407  1.00  0.00    -0.271 NA
HETATM    3  C9  UNL     1      23.784  -0.384  52.842  1.00  0.00     0.121 C 
HETATM    4  C10 UNL     1      25.099  -0.879  53.393  1.00  0.00     0.068 C 
HETATM    5  C11 UNL     1      26.109   0.212  53.213  1.00  0.00    -0.029 C 
HETATM    6  C12 UNL     1      27.347  -0.055  53.606  1.00  0.00     0.125 C 
HETATM    7  N5  UNL     1      28.330   0.987  53.439  1.00  0.00    -0.257 NA
HETATM    8  C13 UNL     1      27.921   2.179  53.161  1.00  0.00     0.098 C 
HETATM    9  C14 UNL     1      26.901   2.266  52.358  1.00  0.00     0.018 C 
HETATM   10  C15 UNL     1      25.840   1.530  52.645  1.00  0.00     0.001 C 
HETATM   11  C16 UNL     1      24.405   1.916  52.442  1.00  0.00     0.186 C 
HETATM   12  C17 UNL     1      24.171   3.359  52.818  1.00  0.00     0.054 C 
HETATM   13  C18 UNL     1      23.635   1.030  53.369  1.00  0.00     0.060 C 
HETATM   14  C19 UNL     1      22.152   1.215  53.313  1.00  0.00     0.087 C 
ENDROOT
BRANCH   1  15
HETATM   15  N3  UNL     1      20.436  -0.510  54.244  1.00  0.00    -0.355 N 
HETATM   16  H12 UNL     1      20.374  -0.508  55.285  1.00  0.00     0.166 HD
BRANCH  15  17
HETATM   17  C7  UNL     1      19.283  -0.842  53.477  1.00  0.00     0.089 C 
HETATM   18  C6  UNL     1      19.044  -0.144  52.356  1.00  0.00     0.018 C 
BRANCH  18  19
HETATM   19  C5  UNL     1      17.882  -0.434  51.526  1.00  0.00     0.018 C 
HETATM   20  C4  UNL     1      17.568   0.356  50.491  1.00  0.00     0.087 C 
BRANCH  20  21
HETATM   21  N2  UNL     1      18.421   1.476  50.253  1.00  0.00    -0.363 N 
HETATM   22  C3  UNL     1      19.681   1.634  49.556  1.00  0.00     0.154 C 
HETATM   23  C2  UNL     1      19.698   3.111  49.247  1.00  0.00     0.293 C 
HETATM   24  N1  UNL     1      19.071   3.691  50.408  1.00  0.00     0.103 N 
HETATM   25  C1  UNL     1      20.067   3.836  51.450  1.00  0.00     0.312 C 
HETATM   26  C20 UNL     1      18.012   2.779  50.794  1.00  0.00     0.396 C 
ENDBRANCH  20  21
ENDBRANCH  18  19
ENDBRANCH  15  17
ENDBRANCH   1  15
BRANCH  11  27
HETATM   27  N6  UNL     1      24.091   1.686  51.066  1.00  0.00     0.092 N 
HETATM   28  H20 UNL     1      24.243   2.484  50.430  1.00  0.00     0.314 HD
HETATM   29  H21 UNL     1      24.610   0.824  50.782  1.00  0.00     0.314 HD
ENDBRANCH  11  27
TORSDOF 5
ENDMDL
MODEL 8
REMARK VINA RESULT:      -7.3      1.786      8.652
REMARK  5 active torsions:
REMARK  status: ('A' for Active; 'I' for Inactive)
REMARK    1  A    between atoms: N2_5  and  C4_6 
REMARK    2  A    between atoms: C5_7  and  C6_8 
REMARK    3  A    between atoms: C7_9  and  N3_10 
REMARK    4  A    between atoms: N3_10  and  C8_11 
REMARK    5  A    between atoms: C16_21  and  N6_23 
ROOT
HETATM    1  C8  UNL     1      25.425   3.181  51.270  1.00  0.00     0.099 C 
HETATM    2  N4  UNL     1      24.373   2.505  50.949  1.00  0.00    -0.271 NA
HETATM    3  C9  UNL     1      24.299   1.271  51.699  1.00  0.00     0.121 C 
HETATM    4  C10 UNL     1      22.924   0.952  52.232  1.00  0.00     0.068 C 
HETATM    5  C11 UNL     1      23.093   0.057  53.421  1.00  0.00    -0.029 C 
HETATM    6  C12 UNL     1      21.981  -0.366  54.008  1.00  0.00     0.125 C 
HETATM    7  N5  UNL     1      22.129  -1.227  55.155  1.00  0.00    -0.257 NA
HETATM    8  C13 UNL     1      23.295  -1.336  55.695  1.00  0.00     0.098 C 
HETATM    9  C14 UNL     1      24.310  -1.345  54.880  1.00  0.00     0.018 C 
HETATM   10  C15 UNL     1      24.370  -0.380  53.978  1.00  0.00     0.001 C 
HETATM   11  C16 UNL     1      25.611   0.298  53.478  1.00  0.00     0.186 C 
HETATM   12  C17 UNL     1      26.580   0.559  54.604  1.00  0.00     0.054 C 
HETATM   13  C18 UNL     1      25.136   1.601  52.918  1.00  0.00     0.060 C 
HETATM   14  C19 UNL     1      26.215   2.447  52.321  1.00  0.00     0.087 C 
ENDROOT
BRANCH   1  15
HETATM   15  N3  UNL     1      25.770   4.438  50.700  1.00  0.00    -0.355 N 
HETATM   16  H12 UNL     1      26.774   4.718  50.757  1.00  0.00     0.166 HD
BRANCH  15  17
HETATM   17  C7  UNL     1      24.837   5.311  50.072  1.00  0.00     0.089 C 
HETATM   18  C6  UNL     1      25.116   5.753  48.835  1.00  0.00     0.018 C 
BRANCH  18  19
HETATM   19  C5  UNL     1      24.204   6.648  48.135  1.00  0.00     0.018 C 
HETATM   20  C4  UNL     1      24.595   7.878  47.776  1.00  0.00     0.087 C 
BRANCH  20  21
HETATM   21  N2  UNL     1      25.930   8.253  48.112  1.00  0.00    -0.363 N 
HETATM   22  C3  UNL     1      26.537   8.805  49.307  1.00  0.00     0.154 C 
HETATM   23  C2  UNL     1      27.988   8.429  49.138  1.00  0.00     0.293 C 
HETATM   24  N1  UNL     1      28.191   8.552  47.716  1.00  0.00     0.103 N 
HETATM   25  C1  UNL     1      28.452   9.943  47.404  1.00  0.00     0.312 C 
HETATM   26  C20 UNL     1      26.972   8.076  47.091  1.00  0.00     0.396 C 
ENDBRANCH  20  21
ENDBRANCH  18  19
ENDBRANCH  15  17
ENDBRANCH   1  15
BRANCH  11  27
HETATM   27  N6  UNL     1      26.192  -0.552  52.486  1.00  0.00     0.092 N 
HETATM   28  H20 UNL     1      25.613  -1.351  52.182  1.00  0.00     0.314 HD
HETATM   29  H21 UNL     1      26.489   0.068  51.699  1.00  0.00     0.314 HD
ENDBRANCH  11  27
TORSDOF 5
ENDMDL
MODEL 9
REMARK VINA RESULT:      -7.3      1.977      7.765
REMARK  5 active torsions:
REMARK  status: ('A' for Active; 'I' for Inactive)
REMARK    1  A    between atoms: N2_5  and  C4_6 
REMARK    2  A    between atoms: C5_7  and  C6_8 
REMARK    3  A    between atoms: C7_9  and  N3_10 
REMARK    4  A    between atoms: N3_10  and  C8_11 
REMARK    5  A    between atoms: C16_21  and  N6_23 
ROOT
HETATM    1  C8  UNL     1      26.354   3.457  49.994  1.00  0.00     0.099 C 
HETATM    2  N4  UNL     1      26.783   3.024  51.132  1.00  0.00    -0.271 NA
HETATM    3  C9  UNL     1      25.688   2.594  51.972  1.00  0.00     0.121 C 
HETATM    4  C10 UNL     1      25.934   1.292  52.694  1.00  0.00     0.068 C 
HETATM    5  C11 UNL     1      24.601   0.684  53.004  1.00  0.00    -0.029 C 
HETATM    6  C12 UNL     1      24.613  -0.458  53.679  1.00  0.00     0.125 C 
HETATM    7  N5  UNL     1      23.336  -1.055  53.985  1.00  0.00    -0.257 NA
HETATM    8  C13 UNL     1      22.287  -0.601  53.388  1.00  0.00     0.098 C 
HETATM    9  C14 UNL     1      22.247   0.685  53.189  1.00  0.00     0.018 C 
HETATM   10  C15 UNL     1      23.306   1.244  52.629  1.00  0.00     0.001 C 
HETATM   11  C16 UNL     1      23.302   2.385  51.655  1.00  0.00     0.186 C 
HETATM   12  C17 UNL     1      22.180   2.245  50.656  1.00  0.00     0.054 C 
HETATM   13  C18 UNL     1      24.615   2.288  50.945  1.00  0.00     0.060 C 
HETATM   14  C19 UNL     1      24.853   3.363  49.934  1.00  0.00     0.087 C 
ENDROOT
BRANCH   1  15
HETATM   15  N3  UNL     1      27.197   3.948  48.958  1.00  0.00    -0.355 N 
HETATM   16  H12 UNL     1      27.791   3.246  48.465  1.00  0.00     0.166 HD
BRANCH  15  17
HETATM   17  C7  UNL     1      27.268   5.317  48.571  1.00  0.00     0.089 C 
HETATM   18  C6  UNL     1      26.409   6.181  49.134  1.00  0.00     0.018 C 
BRANCH  18  19
HETATM   19  C5  UNL     1      26.429   7.595  48.782  1.00  0.00     0.018 C 
HETATM   20  C4  UNL     1      25.307   8.325  48.822  1.00  0.00     0.087 C 
BRANCH  20  21
HETATM   21  N2  UNL     1      24.114   7.650  49.221  1.00  0.00    -0.363 N 
HETATM   22  C3  UNL     1      23.182   6.785  48.526  1.00  0.00     0.154 C 
HETATM   23  C2  UNL     1      22.524   6.039  49.661  1.00  0.00     0.293 C 
HETATM   24  N1  UNL     1      22.442   7.036  50.699  1.00  0.00     0.103 N 
HETATM   25  C1  UNL     1      21.265   7.849  50.470  1.00  0.00     0.312 C 
HETATM   26  C20 UNL     1      23.663   7.813  50.610  1.00  0.00     0.396 C 
ENDBRANCH  20  21
ENDBRANCH  18  19
ENDBRANCH  15  17
ENDBRANCH   1  15
BRANCH  11  27
HETATM   27  N6  UNL     1      23.169   3.591  52.411  1.00  0.00     0.092 N 
HETATM   28  H20 UNL     1      22.224   3.793  52.774  1.00  0.00     0.314 HD
HETATM   29  H21 UNL     1      23.901   3.557  53.157  1.00  0.00     0.314 HD
ENDBRANCH  11  27
TORSDOF 5
ENDMDL
