MODEL 1
REMARK VINA RESULT:      -8.7      0.000      0.000
REMARK  2 active torsions:
REMARK  status: ('A' for Active; 'I' for Inactive)
REMARK    1  A    between atoms: C7_7  and  N1_8 
REMARK    2  A    between atoms: N4_16  and  C13_17 
ROOT
HETATM    1  N1  UNL     1      24.254   4.686  50.425  1.00  0.00    -0.217 N 
HETATM    2  N2  UNL     1      23.681   4.925  51.676  1.00  0.00    -0.180 NA
HETATM    3  C8  UNL     1      22.646   4.212  51.853  1.00  0.00     0.145 A 
HETATM    4  C9  UNL     1      22.371   3.380  50.684  1.00  0.00     0.203 A 
HETATM    5  C10 UNL     1      23.479   3.678  49.737  1.00  0.00     0.156 A 
HETATM    6  N3  UNL     1      23.216   3.100  48.621  1.00  0.00    -0.242 NA
HETATM    7  C11 UNL     1      22.318   2.035  48.397  1.00  0.00     0.136 C 
HETATM    8  C12 UNL     1      21.680   1.541  49.472  1.00  0.00     0.112 C 
HETATM    9  N4  UNL     1      21.931   2.079  50.793  1.00  0.00    -0.338 N 
ENDROOT
BRANCH   9  10
HETATM   10  C13 UNL     1      21.669   1.134  51.821  1.00  0.00     0.038 A 
HETATM   11  C14 UNL     1      20.419   0.609  52.072  1.00  0.00     0.032 A 
HETATM   12  C15 UNL     1      20.102  -0.289  53.044  1.00  0.00     0.042 A 
HETATM   13  C16 UNL     1      21.074  -0.745  53.875  1.00  0.00     0.105 A 
HETATM   14  C17 UNL     1      22.357  -0.264  53.687  1.00  0.00     0.107 A 
HETATM   15  O2  UNL     1      21.157  -1.620  54.940  1.00  0.00    -0.323 OA
HETATM   16  C18 UNL     1      22.606   0.642  52.685  1.00  0.00     0.069 A 
HETATM   17  O1  UNL     1      23.213  -0.849  54.637  1.00  0.00    -0.323 OA
HETATM   18  C19 UNL     1      22.506  -1.963  55.151  1.00  0.00     0.352 C 
ENDBRANCH   9  10
BRANCH   1  19
HETATM   19  C7  UNL     1      25.378   5.145  49.630  1.00  0.00     0.066 A 
HETATM   20  C5  UNL     1      26.527   4.356  49.557  1.00  0.00    -0.033 A 
HETATM   21  C4  UNL     1      27.643   4.724  48.821  1.00  0.00     0.009 A 
HETATM   22  C6  UNL     1      26.510   3.079  50.314  1.00  0.00     0.050 C 
HETATM   23  C3  UNL     1      27.544   5.927  48.160  1.00  0.00     0.007 A 
HETATM   24  C2  UNL     1      26.429   6.744  48.200  1.00  0.00    -0.060 A 
HETATM   25  C1  UNL     1      26.444   8.030  47.439  1.00  0.00     0.048 C 
HETATM   26  C20 UNL     1      25.352   6.343  48.939  1.00  0.00     0.039 A 
ENDBRANCH   1  19
TORSDOF 2
ENDMDL
MODEL 2
REMARK VINA RESULT:      -8.7      3.432      8.153
REMARK  2 active torsions:
REMARK  status: ('A' for Active; 'I' for Inactive)
REMARK    1  A    between atoms: C7_7  and  N1_8 
REMARK    2  A    between atoms: N4_16  and  C13_17 
ROOT
HETATM    1  N1  UNL     1      21.975   1.541  50.879  1.00  0.00    -0.217 N 
HETATM    2  N2  UNL     1      22.328   1.473  49.529  1.00  0.00    -0.180 NA
HETATM    3  C8  UNL     1      22.736   2.597  49.102  1.00  0.00     0.145 A 
HETATM    4  C9  UNL     1      22.691   3.610  50.154  1.00  0.00     0.203 A 
HETATM    5  C10 UNL     1      22.209   2.884  51.360  1.00  0.00     0.156 A 
HETATM    6  N3  UNL     1      21.993   3.747  52.285  1.00  0.00    -0.242 NA
HETATM    7  C11 UNL     1      22.496   5.063  52.366  1.00  0.00     0.136 C 
HETATM    8  C12 UNL     1      23.321   5.460  51.382  1.00  0.00     0.112 C 
HETATM    9  N4  UNL     1      23.679   4.557  50.307  1.00  0.00    -0.338 N 
ENDROOT
BRANCH   9  10
HETATM   10  C13 UNL     1      24.932   4.883  49.723  1.00  0.00     0.038 A 
HETATM   11  C14 UNL     1      25.960   3.975  49.570  1.00  0.00     0.032 A 
HETATM   12  C15 UNL     1      27.183   4.227  49.030  1.00  0.00     0.042 A 
HETATM   13  C16 UNL     1      27.472   5.476  48.582  1.00  0.00     0.105 A 
HETATM   14  C17 UNL     1      26.491   6.443  48.700  1.00  0.00     0.107 A 
HETATM   15  O2  UNL     1      28.550   6.108  47.994  1.00  0.00    -0.323 OA
HETATM   16  C18 UNL     1      25.277   6.120  49.256  1.00  0.00     0.069 A 
HETATM   17  O1  UNL     1      26.977   7.658  48.185  1.00  0.00    -0.323 OA
HETATM   18  C19 UNL     1      28.117   7.317  47.417  1.00  0.00     0.352 C 
ENDBRANCH   9  10
BRANCH   1  19
HETATM   19  C7  UNL     1      21.452   0.674  51.917  1.00  0.00     0.066 A 
HETATM   20  C5  UNL     1      20.098   0.332  51.902  1.00  0.00    -0.033 A 
HETATM   21  C4  UNL     1      19.521  -0.489  52.858  1.00  0.00     0.009 A 
HETATM   22  C6  UNL     1      19.280   0.895  50.797  1.00  0.00     0.050 C 
HETATM   23  C3  UNL     1      20.375  -0.952  53.832  1.00  0.00     0.007 A 
HETATM   24  C2  UNL     1      21.722  -0.644  53.892  1.00  0.00    -0.060 A 
HETATM   25  C1  UNL     1      22.548  -1.209  55.002  1.00  0.00     0.048 C 
HETATM   26  C20 UNL     1      22.249   0.170  52.928  1.00  0.00     0.039 A 
ENDBRANCH   1  19
TORSDOF 2
ENDMDL
MODEL 3
REMARK VINA RESULT:      -8.6      3.126      7.890
REMARK  2 active torsions:
REMARK  status: ('A' for Active; 'I' for Inactive)
REMARK    1  A    between atoms: C7_7  and  N1_8 
REMARK    2  A    between atoms: N4_16  and  C13_17 
ROOT
HETATM    1  N1  UNL     1      22.440   1.775  50.826  1.00  0.00    -0.217 N 
HETATM    2  N2  UNL     1      22.735   1.742  49.461  1.00  0.00    -0.180 NA
HETATM    3  C8  UNL     1      22.964   2.906  49.011  1.00  0.00     0.145 A 
HETATM    4  C9  UNL     1      22.828   3.915  50.059  1.00  0.00     0.203 A 
HETATM    5  C10 UNL     1      22.508   3.142  51.290  1.00  0.00     0.156 A 
HETATM    6  N3  UNL     1      22.217   3.978  52.220  1.00  0.00    -0.242 NA
HETATM    7  C11 UNL     1      22.537   5.351  52.271  1.00  0.00     0.136 C 
HETATM    8  C12 UNL     1      23.253   5.847  51.247  1.00  0.00     0.112 C 
HETATM    9  N4  UNL     1      23.682   4.991  50.161  1.00  0.00    -0.338 N 
ENDROOT
BRANCH   9  10
HETATM   10  C13 UNL     1      24.849   5.480  49.516  1.00  0.00     0.038 A 
HETATM   11  C14 UNL     1      24.934   6.731  48.940  1.00  0.00     0.032 A 
HETATM   12  C15 UNL     1      26.016   7.252  48.300  1.00  0.00     0.042 A 
HETATM   13  C16 UNL     1      27.148   6.510  48.190  1.00  0.00     0.105 A 
HETATM   14  C17 UNL     1      27.142   5.242  48.743  1.00  0.00     0.107 A 
HETATM   15  O2  UNL     1      28.405   6.671  47.640  1.00  0.00    -0.323 OA
HETATM   16  C18 UNL     1      26.013   4.779  49.375  1.00  0.00     0.069 A 
HETATM   17  O1  UNL     1      28.394   4.639  48.527  1.00  0.00    -0.323 OA
HETATM   18  C19 UNL     1      29.268   5.694  48.172  1.00  0.00     0.352 C 
ENDBRANCH   9  10
BRANCH   1  19
HETATM   19  C7  UNL     1      22.091   0.855  51.892  1.00  0.00     0.066 A 
HETATM   20  C5  UNL     1      23.098   0.369  52.728  1.00  0.00    -0.033 A 
HETATM   21  C4  UNL     1      22.848  -0.513  53.769  1.00  0.00     0.009 A 
HETATM   22  C6  UNL     1      24.480   0.842  52.456  1.00  0.00     0.050 C 
HETATM   23  C3  UNL     1      21.532  -0.881  53.927  1.00  0.00     0.007 A 
HETATM   24  C2  UNL     1      20.499  -0.428  53.127  1.00  0.00    -0.060 A 
HETATM   25  C1  UNL     1      19.108  -0.903  53.399  1.00  0.00     0.048 C 
HETATM   26  C20 UNL     1      20.791   0.440  52.112  1.00  0.00     0.039 A 
ENDBRANCH   1  19
TORSDOF 2
ENDMDL
MODEL 4
REMARK VINA RESULT:      -8.6      4.052      6.135
REMARK  2 active torsions:
REMARK  status: ('A' for Active; 'I' for Inactive)
REMARK    1  A    between atoms: C7_7  and  N1_8 
REMARK    2  A    between atoms: N4_16  and  C13_17 
ROOT
HETATM    1  N1  UNL     1      26.241   1.402  52.986  1.00  0.00    -0.217 N 
HETATM    2  N2  UNL     1      25.100   1.771  53.703  1.00  0.00    -0.180 NA
HETATM    3  C8  UNL     1      24.391   2.596  53.050  1.00  0.00     0.145 A 
HETATM    4  C9  UNL     1      25.001   2.914  51.760  1.00  0.00     0.203 A 
HETATM    5  C10 UNL     1      26.232   2.079  51.708  1.00  0.00     0.156 A 
HETATM    6  N3  UNL     1      26.904   2.426  50.670  1.00  0.00    -0.242 NA
HETATM    7  C11 UNL     1      26.434   3.123  49.538  1.00  0.00     0.136 C 
HETATM    8  C12 UNL     1      25.129   3.443  49.518  1.00  0.00     0.112 C 
HETATM    9  N4  UNL     1      24.258   3.063  50.611  1.00  0.00    -0.338 N 
ENDROOT
BRANCH   9  10
HETATM   10  C13 UNL     1      22.902   2.941  50.204  1.00  0.00     0.038 A 
HETATM   11  C14 UNL     1      22.444   1.941  49.373  1.00  0.00     0.032 A 
HETATM   12  C15 UNL     1      21.165   1.776  48.939  1.00  0.00     0.042 A 
HETATM   13  C16 UNL     1      20.207   2.654  49.335  1.00  0.00     0.105 A 
HETATM   14  C17 UNL     1      20.589   3.687  50.171  1.00  0.00     0.107 A 
HETATM   15  O2  UNL     1      18.853   2.825  49.125  1.00  0.00    -0.323 OA
HETATM   16  C18 UNL     1      21.899   3.794  50.570  1.00  0.00     0.069 A 
HETATM   17  O1  UNL     1      19.466   4.481  50.465  1.00  0.00    -0.323 OA
HETATM   18  C19 UNL     1      18.342   3.700  50.103  1.00  0.00     0.352 C 
ENDBRANCH   9  10
BRANCH   1  19
HETATM   19  C7  UNL     1      27.408   0.557  53.146  1.00  0.00     0.066 A 
HETATM   20  C5  UNL     1      28.626   1.138  53.506  1.00  0.00    -0.033 A 
HETATM   21  C4  UNL     1      29.787   0.400  53.678  1.00  0.00     0.009 A 
HETATM   22  C6  UNL     1      28.631   2.610  53.703  1.00  0.00     0.050 C 
HETATM   23  C3  UNL     1      29.662  -0.954  53.469  1.00  0.00     0.007 A 
HETATM   24  C2  UNL     1      28.481  -1.578  53.112  1.00  0.00    -0.060 A 
HETATM   25  C1  UNL     1      28.472  -3.059  52.913  1.00  0.00     0.048 C 
HETATM   26  C20 UNL     1      27.360  -0.812  52.953  1.00  0.00     0.039 A 
ENDBRANCH   1  19
TORSDOF 2
ENDMDL
MODEL 5
REMARK VINA RESULT:      -8.5      4.325      8.460
REMARK  2 active torsions:
REMARK  status: ('A' for Active; 'I' for Inactive)
REMARK    1  A    between atoms: C7_7  and  N1_8 
REMARK    2  A    between atoms: N4_16  and  C13_17 
ROOT
HETATM    1  N1  UNL     1      25.944   2.262  51.321  1.00  0.00    -0.217 N 
HETATM    2  N2  UNL     1      26.716   2.292  50.157  1.00  0.00    -0.180 NA
HETATM    3  C8  UNL     1      26.427   3.298  49.438  1.00  0.00     0.145 A 
HETATM    4  C9  UNL     1      25.365   4.096  50.047  1.00  0.00     0.203 A 
HETATM    5  C10 UNL     1      25.067   3.411  51.334  1.00  0.00     0.156 A 
HETATM    6  N3  UNL     1      24.031   3.968  51.850  1.00  0.00    -0.242 NA
HETATM    7  C11 UNL     1      23.500   5.239  51.548  1.00  0.00     0.136 C 
HETATM    8  C12 UNL     1      24.161   5.974  50.638  1.00  0.00     0.112 C 
HETATM    9  N4  UNL     1      25.372   5.474  50.020  1.00  0.00    -0.338 N 
ENDROOT
BRANCH   9  10
HETATM   10  C13 UNL     1      26.223   6.519  49.574  1.00  0.00     0.038 A 
HETATM   11  C14 UNL     1      27.150   6.367  48.563  1.00  0.00     0.032 A 
HETATM   12  C15 UNL     1      28.000   7.323  48.099  1.00  0.00     0.042 A 
HETATM   13  C16 UNL     1      27.973   8.565  48.648  1.00  0.00     0.105 A 
HETATM   14  C17 UNL     1      27.069   8.796  49.668  1.00  0.00     0.107 A 
HETATM   15  O2  UNL     1      28.643   9.758  48.465  1.00  0.00    -0.323 OA
HETATM   16  C18 UNL     1      26.240   7.784  50.089  1.00  0.00     0.069 A 
HETATM   17  O1  UNL     1      27.194  10.128  50.101  1.00  0.00    -0.323 OA
HETATM   18  C19 UNL     1      27.915  10.794  49.080  1.00  0.00     0.352 C 
ENDBRANCH   9  10
BRANCH   1  19
HETATM   19  C7  UNL     1      25.768   1.430  52.496  1.00  0.00     0.066 A 
HETATM   20  C5  UNL     1      26.779   1.389  53.458  1.00  0.00    -0.033 A 
HETATM   21  C4  UNL     1      26.689   0.619  54.608  1.00  0.00     0.009 A 
HETATM   22  C6  UNL     1      27.982   2.221  53.199  1.00  0.00     0.050 C 
HETATM   23  C3  UNL     1      25.529  -0.109  54.741  1.00  0.00     0.007 A 
HETATM   24  C2  UNL     1      24.500  -0.103  53.818  1.00  0.00    -0.060 A 
HETATM   25  C1  UNL     1      23.287  -0.939  54.076  1.00  0.00     0.048 C 
HETATM   26  C20 UNL     1      24.631   0.671  52.699  1.00  0.00     0.039 A 
ENDBRANCH   1  19
TORSDOF 2
ENDMDL
MODEL 6
REMARK VINA RESULT:      -8.2      2.707      3.469
REMARK  2 active torsions:
REMARK  status: ('A' for Active; 'I' for Inactive)
REMARK    1  A    between atoms: C7_7  and  N1_8 
REMARK    2  A    between atoms: N4_16  and  C13_17 
ROOT
HETATM    1  N1  UNL     1      23.503   5.540  50.544  1.00  0.00    -0.217 N 
HETATM    2  N2  UNL     1      23.700   5.706  51.917  1.00  0.00    -0.180 NA
HETATM    3  C8  UNL     1      23.452   4.635  52.552  1.00  0.00     0.145 A 
HETATM    4  C9  UNL     1      23.021   3.572  51.647  1.00  0.00     0.203 A 
HETATM    5  C10 UNL     1      23.090   4.178  50.290  1.00  0.00     0.156 A 
HETATM    6  N3  UNL     1      22.572   3.349  49.457  1.00  0.00    -0.242 NA
HETATM    7  C11 UNL     1      22.364   1.966  49.640  1.00  0.00     0.136 C 
HETATM    8  C12 UNL     1      22.777   1.437  50.805  1.00  0.00     0.112 C 
HETATM    9  N4  UNL     1      23.421   2.263  51.805  1.00  0.00    -0.338 N 
ENDROOT
BRANCH   9  10
HETATM   10  C13 UNL     1      24.280   1.515  52.653  1.00  0.00     0.038 A 
HETATM   11  C14 UNL     1      23.942   0.290  53.190  1.00  0.00     0.032 A 
HETATM   12  C15 UNL     1      24.714  -0.469  54.015  1.00  0.00     0.042 A 
HETATM   13  C16 UNL     1      25.945  -0.024  54.376  1.00  0.00     0.105 A 
HETATM   14  C17 UNL     1      26.357   1.199  53.878  1.00  0.00     0.107 A 
HETATM   15  O2  UNL     1      26.987  -0.477  55.160  1.00  0.00    -0.323 OA
HETATM   16  C18 UNL     1      25.526   1.913  53.049  1.00  0.00     0.069 A 
HETATM   17  O1  UNL     1      27.646   1.482  54.361  1.00  0.00    -0.323 OA
HETATM   18  C19 UNL     1      28.150   0.252  54.846  1.00  0.00     0.352 C 
ENDBRANCH   9  10
BRANCH   1  19
HETATM   19  C7  UNL     1      23.589   6.319  49.324  1.00  0.00     0.066 A 
HETATM   20  C5  UNL     1      24.830   6.476  48.702  1.00  0.00    -0.033 A 
HETATM   21  C4  UNL     1      24.996   7.206  47.536  1.00  0.00     0.009 A 
HETATM   22  C6  UNL     1      25.991   5.816  49.353  1.00  0.00     0.050 C 
HETATM   23  C3  UNL     1      23.851   7.771  47.024  1.00  0.00     0.007 A 
HETATM   24  C2  UNL     1      22.600   7.645  47.601  1.00  0.00    -0.060 A 
HETATM   25  C1  UNL     1      21.430   8.308  46.948  1.00  0.00     0.048 C 
HETATM   26  C20 UNL     1      22.482   6.917  48.751  1.00  0.00     0.039 A 
ENDBRANCH   1  19
TORSDOF 2
ENDMDL
MODEL 7
REMARK VINA RESULT:      -7.9      3.617      5.602
REMARK  2 active torsions:
REMARK  status: ('A' for Active; 'I' for Inactive)
REMARK    1  A    between atoms: C7_7  and  N1_8 
REMARK    2  A    between atoms: N4_16  and  C13_17 
ROOT
HETATM    1  N1  UNL     1      22.915   3.111  51.356  1.00  0.00    -0.217 N 
HETATM    2  N2  UNL     1      23.887   3.803  52.083  1.00  0.00    -0.180 NA
HETATM    3  C8  UNL     1      24.369   3.083  53.010  1.00  0.00     0.145 A 
HETATM    4  C9  UNL     1      23.741   1.763  53.035  1.00  0.00     0.203 A 
HETATM    5  C10 UNL     1      22.785   1.776  51.895  1.00  0.00     0.156 A 
HETATM    6  N3  UNL     1      22.082   0.703  51.953  1.00  0.00    -0.242 NA
HETATM    7  C11 UNL     1      22.385  -0.485  52.651  1.00  0.00     0.136 C 
HETATM    8  C12 UNL     1      23.555  -0.521  53.312  1.00  0.00     0.112 C 
HETATM    9  N4  UNL     1      24.457   0.612  53.281  1.00  0.00    -0.338 N 
ENDROOT
BRANCH   9  10
HETATM   10  C13 UNL     1      25.808   0.233  53.499  1.00  0.00     0.038 A 
HETATM   11  C14 UNL     1      26.682   0.948  54.292  1.00  0.00     0.032 A 
HETATM   12  C15 UNL     1      27.986   0.644  54.530  1.00  0.00     0.042 A 
HETATM   13  C16 UNL     1      28.531  -0.460  53.957  1.00  0.00     0.105 A 
HETATM   14  C17 UNL     1      27.718  -1.231  53.147  1.00  0.00     0.107 A 
HETATM   15  O2  UNL     1      29.763  -1.085  53.951  1.00  0.00    -0.323 OA
HETATM   16  C18 UNL     1      26.408  -0.865  52.949  1.00  0.00     0.069 A 
HETATM   17  O1  UNL     1      28.458  -2.319  52.652  1.00  0.00    -0.323 OA
HETATM   18  C19 UNL     1      29.610  -2.399  53.471  1.00  0.00     0.352 C 
ENDBRANCH   9  10
BRANCH   1  19
HETATM   19  C7  UNL     1      22.015   3.338  50.241  1.00  0.00     0.066 A 
HETATM   20  C5  UNL     1      20.693   3.706  50.497  1.00  0.00    -0.033 A 
HETATM   21  C4  UNL     1      19.772   3.940  49.487  1.00  0.00     0.009 A 
HETATM   22  C6  UNL     1      20.302   3.843  51.923  1.00  0.00     0.050 C 
HETATM   23  C3  UNL     1      20.247   3.784  48.206  1.00  0.00     0.007 A 
HETATM   24  C2  UNL     1      21.546   3.421  47.900  1.00  0.00    -0.060 A 
HETATM   25  C1  UNL     1      21.942   3.284  46.465  1.00  0.00     0.048 C 
HETATM   26  C20 UNL     1      22.421   3.200  48.926  1.00  0.00     0.039 A 
ENDBRANCH   1  19
TORSDOF 2
ENDMDL
MODEL 8
REMARK VINA RESULT:      -7.8      7.388     11.894
REMARK  2 active torsions:
REMARK  status: ('A' for Active; 'I' for Inactive)
REMARK    1  A    between atoms: C7_7  and  N1_8 
REMARK    2  A    between atoms: N4_16  and  C13_17 
ROOT
HETATM    1  N1  UNL     1      28.849   6.816  47.593  1.00  0.00    -0.217 N 
HETATM    2  N2  UNL     1      29.022   7.672  46.502  1.00  0.00    -0.180 NA
HETATM    3  C8  UNL     1      30.252   7.834  46.234  1.00  0.00     0.145 A 
HETATM    4  C9  UNL     1      31.099   7.088  47.162  1.00  0.00     0.203 A 
HETATM    5  C10 UNL     1      30.146   6.375  48.055  1.00  0.00     0.156 A 
HETATM    6  N3  UNL     1      30.821   5.824  48.998  1.00  0.00    -0.242 NA
HETATM    7  C11 UNL     1      32.202   5.537  49.010  1.00  0.00     0.136 C 
HETATM    8  C12 UNL     1      32.897   5.846  47.902  1.00  0.00     0.112 C 
HETATM    9  N4  UNL     1      32.237   6.428  46.752  1.00  0.00    -0.338 N 
ENDROOT
BRANCH   9  10
HETATM   10  C13 UNL     1      32.923   6.157  45.539  1.00  0.00     0.038 A 
HETATM   11  C14 UNL     1      32.939   4.917  44.934  1.00  0.00     0.032 A 
HETATM   12  C15 UNL     1      33.584   4.591  43.781  1.00  0.00     0.042 A 
HETATM   13  C16 UNL     1      34.297   5.542  43.123  1.00  0.00     0.105 A 
HETATM   14  C17 UNL     1      34.330   6.812  43.668  1.00  0.00     0.107 A 
HETATM   15  O2  UNL     1      35.059   5.609  41.973  1.00  0.00    -0.323 OA
HETATM   16  C18 UNL     1      33.655   7.072  44.836  1.00  0.00     0.069 A 
HETATM   17  O1  UNL     1      35.111   7.645  42.847  1.00  0.00    -0.323 OA
HETATM   18  C19 UNL     1      35.233   6.960  41.615  1.00  0.00     0.352 C 
ENDBRANCH   9  10
BRANCH   1  19
HETATM   19  C7  UNL     1      27.769   6.252  48.380  1.00  0.00     0.066 A 
HETATM   20  C5  UNL     1      26.830   7.108  48.960  1.00  0.00    -0.033 A 
HETATM   21  C4  UNL     1      25.771   6.649  49.727  1.00  0.00     0.009 A 
HETATM   22  C6  UNL     1      27.013   8.562  48.718  1.00  0.00     0.050 C 
HETATM   23  C3  UNL     1      25.702   5.284  49.882  1.00  0.00     0.007 A 
HETATM   24  C2  UNL     1      26.606   4.394  49.330  1.00  0.00    -0.060 A 
HETATM   25  C1  UNL     1      26.424   2.930  49.572  1.00  0.00     0.048 C 
HETATM   26  C20 UNL     1      27.636   4.891  48.581  1.00  0.00     0.039 A 
ENDBRANCH   1  19
TORSDOF 2
ENDMDL
MODEL 9
REMARK VINA RESULT:      -7.7      4.022      7.424
REMARK  2 active torsions:
REMARK  status: ('A' for Active; 'I' for Inactive)
REMARK    1  A    between atoms: C7_7  and  N1_8 
REMARK    2  A    between atoms: N4_16  and  C13_17 
ROOT
HETATM    1  N1  UNL     1      24.241   3.093  52.310  1.00  0.00    -0.217 N 
HETATM    2  N2  UNL     1      23.277   4.095  52.445  1.00  0.00    -0.180 NA
HETATM    3  C8  UNL     1      23.475   5.040  51.621  1.00  0.00     0.145 A 
HETATM    4  C9  UNL     1      24.659   4.789  50.802  1.00  0.00     0.203 A 
HETATM    5  C10 UNL     1      25.152   3.458  51.248  1.00  0.00     0.156 A 
HETATM    6  N3  UNL     1      26.285   3.243  50.682  1.00  0.00    -0.242 NA
HETATM    7  C11 UNL     1      26.805   3.879  49.535  1.00  0.00     0.136 C 
HETATM    8  C12 UNL     1      26.024   4.798  48.941  1.00  0.00     0.112 C 
HETATM    9  N4  UNL     1      24.703   5.092  49.459  1.00  0.00    -0.338 N 
ENDROOT
BRANCH   9  10
HETATM   10  C13 UNL     1      23.829   5.594  48.459  1.00  0.00     0.038 A 
HETATM   11  C14 UNL     1      23.978   6.832  47.869  1.00  0.00     0.032 A 
HETATM   12  C15 UNL     1      23.171   7.373  46.917  1.00  0.00     0.042 A 
HETATM   13  C16 UNL     1      22.102   6.667  46.466  1.00  0.00     0.105 A 
HETATM   14  C17 UNL     1      21.886   5.413  47.010  1.00  0.00     0.107 A 
HETATM   15  O2  UNL     1      21.088   6.855  45.548  1.00  0.00    -0.323 OA
HETATM   16  C18 UNL     1      22.741   4.929  47.970  1.00  0.00     0.069 A 
HETATM   17  O1  UNL     1      20.742   4.847  46.420  1.00  0.00    -0.323 OA
HETATM   18  C19 UNL     1      20.496   5.612  45.255  1.00  0.00     0.352 C 
ENDBRANCH   9  10
BRANCH   1  19
HETATM   19  C7  UNL     1      24.588   1.820  52.911  1.00  0.00     0.066 A 
HETATM   20  C5  UNL     1      23.720   0.737  52.760  1.00  0.00    -0.033 A 
HETATM   21  C4  UNL     1      23.978  -0.512  53.304  1.00  0.00     0.009 A 
HETATM   22  C6  UNL     1      22.481   0.977  51.975  1.00  0.00     0.050 C 
HETATM   23  C3  UNL     1      25.154  -0.618  54.009  1.00  0.00     0.007 A 
HETATM   24  C2  UNL     1      26.047   0.424  54.188  1.00  0.00    -0.060 A 
HETATM   25  C1  UNL     1      27.294   0.184  54.976  1.00  0.00     0.048 C 
HETATM   26  C20 UNL     1      25.752   1.638  53.634  1.00  0.00     0.039 A 
ENDBRANCH   1  19
TORSDOF 2
ENDMDL
