MODEL 1
REMARK VINA RESULT:      -8.5      0.000      0.000
REMARK  7 active torsions:
REMARK  status: ('A' for Active; 'I' for Inactive)
REMARK    1  A    between atoms: N1_1  and  C1_2 
REMARK    2  A    between atoms: C3_4  and  N2_5 
REMARK    3  A    between atoms: N2_5  and  C4_6 
REMARK    4  A    between atoms: C5_7  and  C6_8 
REMARK    5  A    between atoms: N3_9  and  C7_10 
REMARK    6  A    between atoms: C7_10  and  C8_11 
REMARK    7  A    between atoms: N4_18  and  C14_19 
ROOT
HETATM    1  C4  UNL     1      24.580  -0.112  53.887  1.00  0.00     0.279 A 
HETATM    2  C5  UNL     1      23.420  -0.478  53.972  1.00  0.00     0.018 A 
HETATM    3  C14 UNL     1      23.107   1.045  53.167  1.00  0.00     0.159 A 
ENDROOT
BRANCH   1   4
HETATM    4  N2  UNL     1      25.271  -0.031  52.575  1.00  0.00     0.102 N 
HETATM    5  H5  UNL     1      25.139   0.908  52.174  1.00  0.00     0.317 HD
BRANCH   4   6
HETATM    6  C3  UNL     1      26.676  -0.126  52.915  1.00  0.00     0.249 C 
HETATM    7  C2  UNL     1      27.151  -1.540  52.969  1.00  0.00     0.033 C 
HETATM    8  C1  UNL     1      28.411  -1.894  53.097  1.00  0.00     0.004 C 
HETATM    9  C18 UNL     1      29.639  -1.030  53.215  1.00  0.00     0.083 C 
HETATM   10  C17 UNL     1      29.454  -0.077  54.342  1.00  0.00    -0.025 C 
HETATM   11  C16 UNL     1      28.316   0.522  54.670  1.00  0.00    -0.028 C 
HETATM   12  C15 UNL     1      26.931   0.557  54.202  1.00  0.00     0.066 C 
BRANCH   8  13
HETATM   13  N1  UNL     1      28.515  -3.325  53.114  1.00  0.00    -0.402 N 
HETATM   14  H1  UNL     1      28.674  -3.474  54.143  1.00  0.00     0.156 HD
HETATM   15  H2  UNL     1      28.442  -3.983  52.288  1.00  0.00     0.156 HD
ENDBRANCH   8  13
ENDBRANCH   4   6
ENDBRANCH   1   4
BRANCH   2  16
HETATM   16  C6  UNL     1      22.582  -0.721  54.022  1.00  0.00     0.121 A 
HETATM   17  N3  UNL     1      21.588  -1.022  54.103  1.00  0.00    -0.288 N 
HETATM   18  N4  UNL     1      22.525  -1.420  55.231  1.00  0.00    -0.164 NA
BRANCH  17  19
HETATM   19  C7  UNL     1      20.239  -1.412  54.178  1.00  0.00     0.183 C 
BRANCH  19  20
HETATM   20  C8  UNL     1      19.394  -0.866  53.080  1.00  0.00    -0.039 A 
HETATM   21  C9  UNL     1      18.070  -1.246  53.021  1.00  0.00     0.010 A 
HETATM   22  C10 UNL     1      17.254  -0.761  52.019  1.00  0.00     0.019 A 
HETATM   23  C11 UNL     1      17.753   0.109  51.062  1.00  0.00     0.011 A 
HETATM   24 BR1  UNL     1      16.566   0.727  49.718  1.00  0.00    -0.051 Br
HETATM   25  C12 UNL     1      19.078   0.509  51.093  1.00  0.00     0.019 A 
HETATM   26  C13 UNL     1      19.853  -0.000  52.112  1.00  0.00     0.010 A 
ENDBRANCH  19  20
ENDBRANCH  17  19
ENDBRANCH   2  16
TORSDOF 7
ENDMDL
MODEL 2
REMARK VINA RESULT:      -8.1      1.049      1.809
REMARK  7 active torsions:
REMARK  status: ('A' for Active; 'I' for Inactive)
REMARK    1  A    between atoms: N1_1  and  C1_2 
REMARK    2  A    between atoms: C3_4  and  N2_5 
REMARK    3  A    between atoms: N2_5  and  C4_6 
REMARK    4  A    between atoms: C5_7  and  C6_8 
REMARK    5  A    between atoms: N3_9  and  C7_10 
REMARK    6  A    between atoms: C7_10  and  C8_11 
REMARK    7  A    between atoms: N4_18  and  C14_19 
ROOT
HETATM    1  C4  UNL     1      24.372  -0.424  54.095  1.00  0.00     0.279 A 
HETATM    2  C5  UNL     1      23.189  -0.717  54.102  1.00  0.00     0.018 A 
HETATM    3  C14 UNL     1      23.092   0.546  52.893  1.00  0.00     0.159 A 
ENDROOT
BRANCH   1   4
HETATM    4  N2  UNL     1      25.235  -0.717  52.923  1.00  0.00     0.102 N 
HETATM    5  H5  UNL     1      25.072  -0.013  52.190  1.00  0.00     0.317 HD
BRANCH   4   6
HETATM    6  C3  UNL     1      26.579  -0.481  53.411  1.00  0.00     0.249 C 
HETATM    7  C2  UNL     1      27.045   0.909  53.139  1.00  0.00     0.033 C 
HETATM    8  C1  UNL     1      28.156   1.426  53.617  1.00  0.00     0.004 C 
HETATM    9  C18 UNL     1      29.194   0.799  54.510  1.00  0.00     0.083 C 
HETATM   10  C17 UNL     1      29.665  -0.468  53.891  1.00  0.00    -0.025 C 
HETATM   11  C16 UNL     1      28.910  -1.331  53.222  1.00  0.00    -0.028 C 
HETATM   12  C15 UNL     1      27.510  -1.467  52.821  1.00  0.00     0.066 C 
BRANCH   8  13
HETATM   13  N1  UNL     1      28.299   2.779  53.160  1.00  0.00    -0.402 N 
HETATM   14  H1  UNL     1      29.343   2.877  53.240  1.00  0.00     0.156 HD
HETATM   15  H2  UNL     1      27.530   3.434  52.847  1.00  0.00     0.156 HD
ENDBRANCH   8  13
ENDBRANCH   4   6
ENDBRANCH   1   4
BRANCH   2  16
HETATM   16  C6  UNL     1      22.337  -0.911  54.090  1.00  0.00     0.121 A 
HETATM   17  N3  UNL     1      21.325  -1.156  54.097  1.00  0.00    -0.288 N 
HETATM   18  N4  UNL     1      22.172  -1.691  55.238  1.00  0.00    -0.164 NA
BRANCH  17  19
HETATM   19  C7  UNL     1      19.953  -1.465  54.073  1.00  0.00     0.183 C 
BRANCH  19  20
HETATM   20  C8  UNL     1      19.210  -0.820  52.955  1.00  0.00    -0.039 A 
HETATM   21  C9  UNL     1      17.876  -1.127  52.791  1.00  0.00     0.010 A 
HETATM   22  C10 UNL     1      17.154  -0.550  51.766  1.00  0.00     0.019 A 
HETATM   23  C11 UNL     1      17.756   0.342  50.893  1.00  0.00     0.011 A 
HETATM   24 BR1  UNL     1      16.693   1.090  49.512  1.00  0.00    -0.051 Br
HETATM   25  C12 UNL     1      19.095   0.671  51.031  1.00  0.00     0.019 A 
HETATM   26  C13 UNL     1      19.774   0.070  52.067  1.00  0.00     0.010 A 
ENDBRANCH  19  20
ENDBRANCH  17  19
ENDBRANCH   2  16
TORSDOF 7
ENDMDL
MODEL 3
REMARK VINA RESULT:      -7.9      1.045      1.260
REMARK  7 active torsions:
REMARK  status: ('A' for Active; 'I' for Inactive)
REMARK    1  A    between atoms: N1_1  and  C1_2 
REMARK    2  A    between atoms: C3_4  and  N2_5 
REMARK    3  A    between atoms: N2_5  and  C4_6 
REMARK    4  A    between atoms: C5_7  and  C6_8 
REMARK    5  A    between atoms: N3_9  and  C7_10 
REMARK    6  A    between atoms: C7_10  and  C8_11 
REMARK    7  A    between atoms: N4_18  and  C14_19 
ROOT
HETATM    1  C4  UNL     1      24.788   0.575  53.370  1.00  0.00     0.279 A 
HETATM    2  C5  UNL     1      23.586   0.373  53.408  1.00  0.00     0.018 A 
HETATM    3  C14 UNL     1      23.540   1.750  52.327  1.00  0.00     0.159 A 
ENDROOT
BRANCH   1   4
HETATM    4  N2  UNL     1      25.574   0.330  52.134  1.00  0.00     0.102 N 
HETATM    5  H5  UNL     1      25.613   1.193  51.574  1.00  0.00     0.317 HD
BRANCH   4   6
HETATM    6  C3  UNL     1      26.923   0.106  52.618  1.00  0.00     0.249 C 
HETATM    7  C2  UNL     1      27.237  -1.344  52.768  1.00  0.00     0.033 C 
HETATM    8  C1  UNL     1      28.434  -1.819  53.034  1.00  0.00     0.004 C 
HETATM    9  C18 UNL     1      29.730  -1.081  53.246  1.00  0.00     0.083 C 
HETATM   10  C17 UNL     1      29.539  -0.064  54.314  1.00  0.00    -0.025 C 
HETATM   11  C16 UNL     1      28.445   0.663  54.505  1.00  0.00    -0.028 C 
HETATM   12  C15 UNL     1      27.123   0.818  53.899  1.00  0.00     0.066 C 
BRANCH   8  13
HETATM   13  N1  UNL     1      28.383  -3.251  53.112  1.00  0.00    -0.402 N 
HETATM   14  H1  UNL     1      29.376  -3.443  53.401  1.00  0.00     0.156 HD
HETATM   15  H2  UNL     1      27.550  -3.874  52.920  1.00  0.00     0.156 HD
ENDBRANCH   8  13
ENDBRANCH   4   6
ENDBRANCH   1   4
BRANCH   2  16
HETATM   16  C6  UNL     1      22.722   0.246  53.421  1.00  0.00     0.121 A 
HETATM   17  N3  UNL     1      21.696   0.073  53.447  1.00  0.00    -0.288 N 
HETATM   18  N4  UNL     1      22.594  -1.017  54.006  1.00  0.00    -0.164 NA
BRANCH  17  19
HETATM   19  C7  UNL     1      20.303  -0.127  53.465  1.00  0.00     0.183 C 
BRANCH  19  20
HETATM   20  C8  UNL     1      19.585   0.547  52.347  1.00  0.00    -0.039 A 
HETATM   21  C9  UNL     1      18.695  -0.194  51.599  1.00  0.00     0.010 A 
HETATM   22  C10 UNL     1      18.011   0.395  50.555  1.00  0.00     0.019 A 
HETATM   23  C11 UNL     1      18.207   1.732  50.247  1.00  0.00     0.011 A 
HETATM   24 BR1  UNL     1      17.227   2.463  48.798  1.00  0.00    -0.051 Br
HETATM   25  C12 UNL     1      19.093   2.503  50.980  1.00  0.00     0.019 A 
HETATM   26  C13 UNL     1      19.753   1.873  52.011  1.00  0.00     0.010 A 
ENDBRANCH  19  20
ENDBRANCH  17  19
ENDBRANCH   2  16
TORSDOF 7
ENDMDL
MODEL 4
REMARK VINA RESULT:      -7.7      1.909      2.829
REMARK  7 active torsions:
REMARK  status: ('A' for Active; 'I' for Inactive)
REMARK    1  A    between atoms: N1_1  and  C1_2 
REMARK    2  A    between atoms: C3_4  and  N2_5 
REMARK    3  A    between atoms: N2_5  and  C4_6 
REMARK    4  A    between atoms: C5_7  and  C6_8 
REMARK    5  A    between atoms: N3_9  and  C7_10 
REMARK    6  A    between atoms: C7_10  and  C8_11 
REMARK    7  A    between atoms: N4_18  and  C14_19 
ROOT
HETATM    1  C4  UNL     1      23.742  -0.807  53.316  1.00  0.00     0.279 A 
HETATM    2  C5  UNL     1      22.699  -0.322  52.912  1.00  0.00     0.018 A 
HETATM    3  C14 UNL     1      22.013  -1.237  54.239  1.00  0.00     0.159 A 
ENDROOT
BRANCH   1   4
HETATM    4  N2  UNL     1      24.327  -0.408  54.621  1.00  0.00     0.102 N 
HETATM    5  H5  UNL     1      24.136  -1.137  55.322  1.00  0.00     0.317 HD
BRANCH   4   6
HETATM    6  C3  UNL     1      25.757  -0.442  54.387  1.00  0.00     0.249 C 
HETATM    7  C2  UNL     1      26.337   0.922  54.218  1.00  0.00     0.033 C 
HETATM    8  C1  UNL     1      27.625   1.177  54.154  1.00  0.00     0.004 C 
HETATM    9  C18 UNL     1      28.792   0.228  54.231  1.00  0.00     0.083 C 
HETATM   10  C17 UNL     1      28.621  -0.834  53.204  1.00  0.00    -0.025 C 
HETATM   11  C16 UNL     1      27.469  -1.392  52.852  1.00  0.00    -0.028 C 
HETATM   12  C15 UNL     1      26.055  -1.284  53.208  1.00  0.00     0.066 C 
BRANCH   8  13
HETATM   13  N1  UNL     1      27.834   2.587  53.989  1.00  0.00    -0.402 N 
HETATM   14  H1  UNL     1      26.836   2.898  53.876  1.00  0.00     0.156 HD
HETATM   15  H2  UNL     1      28.759   3.102  53.992  1.00  0.00     0.156 HD
ENDBRANCH   8  13
ENDBRANCH   4   6
ENDBRANCH   1   4
BRANCH   2  16
HETATM   16  C6  UNL     1      21.940   0.015  52.640  1.00  0.00     0.121 A 
HETATM   17  N3  UNL     1      21.048   0.430  52.299  1.00  0.00    -0.288 N 
HETATM   18  N4  UNL     1      22.327   0.888  51.620  1.00  0.00    -0.164 NA
BRANCH  17  19
HETATM   19  C7  UNL     1      19.824   0.969  51.865  1.00  0.00     0.183 C 
BRANCH  19  20
HETATM   20  C8  UNL     1      18.669   0.042  52.022  1.00  0.00    -0.039 A 
HETATM   21  C9  UNL     1      17.667   0.077  51.076  1.00  0.00     0.010 A 
HETATM   22  C10 UNL     1      16.580  -0.767  51.187  1.00  0.00     0.019 A 
HETATM   23  C11 UNL     1      16.482  -1.656  52.246  1.00  0.00     0.011 A 
HETATM   24 BR1  UNL     1      14.957  -2.780  52.324  1.00  0.00    -0.051 Br
HETATM   25  C12 UNL     1      17.472  -1.715  53.213  1.00  0.00     0.019 A 
HETATM   26  C13 UNL     1      18.536  -0.854  53.060  1.00  0.00     0.010 A 
ENDBRANCH  19  20
ENDBRANCH  17  19
ENDBRANCH   2  16
TORSDOF 7
ENDMDL
MODEL 5
REMARK VINA RESULT:      -7.7      5.942      8.061
REMARK  7 active torsions:
REMARK  status: ('A' for Active; 'I' for Inactive)
REMARK    1  A    between atoms: N1_1  and  C1_2 
REMARK    2  A    between atoms: C3_4  and  N2_5 
REMARK    3  A    between atoms: N2_5  and  C4_6 
REMARK    4  A    between atoms: C5_7  and  C6_8 
REMARK    5  A    between atoms: N3_9  and  C7_10 
REMARK    6  A    between atoms: C7_10  and  C8_11 
REMARK    7  A    between atoms: N4_18  and  C14_19 
ROOT
HETATM    1  C4  UNL     1      24.424   2.599  52.316  1.00  0.00     0.279 A 
HETATM    2  C5  UNL     1      24.553   3.382  51.391  1.00  0.00     0.018 A 
HETATM    3  C14 UNL     1      23.699   4.464  52.472  1.00  0.00     0.159 A 
ENDROOT
BRANCH   1   4
HETATM    4  N2  UNL     1      25.154   2.787  53.596  1.00  0.00     0.102 N 
HETATM    5  H5  UNL     1      24.505   2.657  54.385  1.00  0.00     0.317 HD
BRANCH   4   6
HETATM    6  C3  UNL     1      26.070   1.666  53.643  1.00  0.00     0.249 C 
HETATM    7  C2  UNL     1      27.490   2.100  53.791  1.00  0.00     0.033 C 
HETATM    8  C1  UNL     1      28.495   1.283  54.018  1.00  0.00     0.004 C 
HETATM    9  C18 UNL     1      28.491  -0.215  54.181  1.00  0.00     0.083 C 
HETATM   10  C17 UNL     1      27.834  -0.830  52.997  1.00  0.00    -0.025 C 
HETATM   11  C16 UNL     1      26.786  -0.335  52.349  1.00  0.00    -0.028 C 
HETATM   12  C15 UNL     1      25.905   0.829  52.434  1.00  0.00     0.066 C 
BRANCH   8  13
HETATM   13  N1  UNL     1      29.718   2.028  54.105  1.00  0.00    -0.402 N 
HETATM   14  H1  UNL     1      29.549   2.726  53.337  1.00  0.00     0.156 HD
HETATM   15  H2  UNL     1      30.520   1.866  54.776  1.00  0.00     0.156 HD
ENDBRANCH   8  13
ENDBRANCH   4   6
ENDBRANCH   1   4
BRANCH   2  16
HETATM   16  C6  UNL     1      24.634   3.959  50.740  1.00  0.00     0.121 A 
HETATM   17  N3  UNL     1      24.724   4.631  49.949  1.00  0.00    -0.288 N 
HETATM   18  N4  UNL     1      24.247   3.228  49.614  1.00  0.00    -0.164 NA
BRANCH  17  19
HETATM   19  C7  UNL     1      24.858   5.564  48.905  1.00  0.00     0.183 C 
BRANCH  19  20
HETATM   20  C8  UNL     1      26.271   5.866  48.546  1.00  0.00    -0.039 A 
HETATM   21  C9  UNL     1      26.568   7.115  48.045  1.00  0.00     0.010 A 
HETATM   22  C10 UNL     1      27.866   7.433  47.700  1.00  0.00     0.019 A 
HETATM   23  C11 UNL     1      28.884   6.505  47.853  1.00  0.00     0.011 A 
HETATM   24 BR1  UNL     1      30.639   7.022  47.355  1.00  0.00    -0.051 Br
HETATM   25  C12 UNL     1      28.619   5.242  48.354  1.00  0.00     0.019 A 
HETATM   26  C13 UNL     1      27.309   4.971  48.683  1.00  0.00     0.010 A 
ENDBRANCH  19  20
ENDBRANCH  17  19
ENDBRANCH   2  16
TORSDOF 7
ENDMDL
MODEL 6
REMARK VINA RESULT:      -7.6      6.970      9.195
REMARK  7 active torsions:
REMARK  status: ('A' for Active; 'I' for Inactive)
REMARK    1  A    between atoms: N1_1  and  C1_2 
REMARK    2  A    between atoms: C3_4  and  N2_5 
REMARK    3  A    between atoms: N2_5  and  C4_6 
REMARK    4  A    between atoms: C5_7  and  C6_8 
REMARK    5  A    between atoms: N3_9  and  C7_10 
REMARK    6  A    between atoms: C7_10  and  C8_11 
REMARK    7  A    between atoms: N4_18  and  C14_19 
ROOT
HETATM    1  C4  UNL     1      26.148   2.742  50.882  1.00  0.00     0.279 A 
HETATM    2  C5  UNL     1      26.172   3.720  50.155  1.00  0.00     0.018 A 
HETATM    3  C14 UNL     1      24.434   3.643  50.358  1.00  0.00     0.159 A 
ENDROOT
BRANCH   1   4
HETATM    4  N2  UNL     1      25.756   2.849  52.310  1.00  0.00     0.102 N 
HETATM    5  H5  UNL     1      24.763   2.598  52.414  1.00  0.00     0.317 HD
BRANCH   4   6
HETATM    6  C3  UNL     1      26.505   1.790  52.957  1.00  0.00     0.249 C 
HETATM    7  C2  UNL     1      27.849   2.246  53.417  1.00  0.00     0.033 C 
HETATM    8  C1  UNL     1      28.657   1.532  54.169  1.00  0.00     0.004 C 
HETATM    9  C18 UNL     1      28.462   0.150  54.737  1.00  0.00     0.083 C 
HETATM   10  C17 UNL     1      28.136  -0.788  53.630  1.00  0.00    -0.025 C 
HETATM   11  C16 UNL     1      27.383  -0.506  52.573  1.00  0.00    -0.028 C 
HETATM   12  C15 UNL     1      26.632   0.633  52.045  1.00  0.00     0.066 C 
BRANCH   8  13
HETATM   13  N1  UNL     1      29.863   2.267  54.424  1.00  0.00    -0.402 N 
HETATM   14  H1  UNL     1      30.541   1.682  53.874  1.00  0.00     0.156 HD
HETATM   15  H2  UNL     1      29.967   3.142  55.009  1.00  0.00     0.156 HD
ENDBRANCH   8  13
ENDBRANCH   4   6
ENDBRANCH   1   4
BRANCH   2  16
HETATM   16  C6  UNL     1      26.166   4.422  49.636  1.00  0.00     0.121 A 
HETATM   17  N3  UNL     1      26.180   5.253  49.008  1.00  0.00    -0.288 N 
HETATM   18  N4  UNL     1      27.383   4.327  48.956  1.00  0.00    -0.164 NA
BRANCH  17  19
HETATM   19  C7  UNL     1      26.165   6.386  48.174  1.00  0.00     0.183 C 
BRANCH  19  20
HETATM   20  C8  UNL     1      27.211   7.392  48.508  1.00  0.00    -0.039 A 
HETATM   21  C9  UNL     1      28.377   7.395  47.771  1.00  0.00     0.010 A 
HETATM   22  C10 UNL     1      29.370   8.311  48.050  1.00  0.00     0.019 A 
HETATM   23  C11 UNL     1      29.211   9.237  49.069  1.00  0.00     0.011 A 
HETATM   24 BR1  UNL     1      30.623  10.461  49.388  1.00  0.00    -0.051 Br
HETATM   25  C12 UNL     1      28.052   9.260  49.827  1.00  0.00     0.019 A 
HETATM   26  C13 UNL     1      27.089   8.327  49.512  1.00  0.00     0.010 A 
ENDBRANCH  19  20
ENDBRANCH  17  19
ENDBRANCH   2  16
TORSDOF 7
ENDMDL
MODEL 7
REMARK VINA RESULT:      -7.5      5.536      8.265
REMARK  7 active torsions:
REMARK  status: ('A' for Active; 'I' for Inactive)
REMARK    1  A    between atoms: N1_1  and  C1_2 
REMARK    2  A    between atoms: C3_4  and  N2_5 
REMARK    3  A    between atoms: N2_5  and  C4_6 
REMARK    4  A    between atoms: C5_7  and  C6_8 
REMARK    5  A    between atoms: N3_9  and  C7_10 
REMARK    6  A    between atoms: C7_10  and  C8_11 
REMARK    7  A    between atoms: N4_18  and  C14_19 
ROOT
HETATM    1  C4  UNL     1      25.336   1.774  52.718  1.00  0.00     0.279 A 
HETATM    2  C5  UNL     1      25.216   2.582  51.813  1.00  0.00     0.018 A 
HETATM    3  C14 UNL     1      26.928   2.278  51.605  1.00  0.00     0.159 A 
ENDROOT
BRANCH   1   4
HETATM    4  N2  UNL     1      25.611   0.341  52.444  1.00  0.00     0.102 N 
HETATM    5  H5  UNL     1      26.525   0.084  52.841  1.00  0.00     0.317 HD
BRANCH   4   6
HETATM    6  C3  UNL     1      24.620  -0.361  53.235  1.00  0.00     0.249 C 
HETATM    7  C2  UNL     1      23.297   0.327  53.226  1.00  0.00     0.033 C 
HETATM    8  C1  UNL     1      22.193  -0.182  53.729  1.00  0.00     0.004 C 
HETATM    9  C18 UNL     1      21.975  -1.510  54.406  1.00  0.00     0.083 C 
HETATM   10  C17 UNL     1      22.937  -1.642  55.533  1.00  0.00    -0.025 C 
HETATM   11  C16 UNL     1      24.194  -1.214  55.533  1.00  0.00    -0.028 C 
HETATM   12  C15 UNL     1      25.109  -0.530  54.621  1.00  0.00     0.066 C 
BRANCH   8  13
HETATM   13  N1  UNL     1      21.108   0.740  53.553  1.00  0.00    -0.402 N 
HETATM   14  H1  UNL     1      21.278   1.018  52.553  1.00  0.00     0.156 HD
HETATM   15  H2  UNL     1      20.379   1.015  54.269  1.00  0.00     0.156 HD
ENDBRANCH   8  13
ENDBRANCH   4   6
ENDBRANCH   1   4
BRANCH   2  16
HETATM   16  C6  UNL     1      25.152   3.158  51.159  1.00  0.00     0.121 A 
HETATM   17  N3  UNL     1      25.055   3.853  50.389  1.00  0.00    -0.288 N 
HETATM   18  N4  UNL     1      23.965   3.837  51.448  1.00  0.00    -0.164 NA
BRANCH  17  19
HETATM   19  C7  UNL     1      24.956   4.778  49.335  1.00  0.00     0.183 C 
BRANCH  19  20
HETATM   20  C8  UNL     1      26.263   5.366  48.927  1.00  0.00    -0.039 A 
HETATM   21  C9  UNL     1      26.330   6.726  48.709  1.00  0.00     0.010 A 
HETATM   22  C10 UNL     1      27.522   7.308  48.330  1.00  0.00     0.019 A 
HETATM   23  C11 UNL     1      28.663   6.538  48.166  1.00  0.00     0.011 A 
HETATM   24 BR1  UNL     1      30.261   7.416  47.644  1.00  0.00    -0.051 Br
HETATM   25  C12 UNL     1      28.629   5.170  48.378  1.00  0.00     0.019 A 
HETATM   26  C13 UNL     1      27.417   4.634  48.754  1.00  0.00     0.010 A 
ENDBRANCH  19  20
ENDBRANCH  17  19
ENDBRANCH   2  16
TORSDOF 7
ENDMDL
MODEL 8
REMARK VINA RESULT:      -7.4      5.818      8.769
REMARK  7 active torsions:
REMARK  status: ('A' for Active; 'I' for Inactive)
REMARK    1  A    between atoms: N1_1  and  C1_2 
REMARK    2  A    between atoms: C3_4  and  N2_5 
REMARK    3  A    between atoms: N2_5  and  C4_6 
REMARK    4  A    between atoms: C5_7  and  C6_8 
REMARK    5  A    between atoms: N3_9  and  C7_10 
REMARK    6  A    between atoms: C7_10  and  C8_11 
REMARK    7  A    between atoms: N4_18  and  C14_19 
ROOT
HETATM    1  C4  UNL     1      24.854   2.421  52.424  1.00  0.00     0.279 A 
HETATM    2  C5  UNL     1      24.902   3.227  51.510  1.00  0.00     0.018 A 
HETATM    3  C14 UNL     1      26.390   2.386  51.133  1.00  0.00     0.159 A 
ENDROOT
BRANCH   1   4
HETATM    4  N2  UNL     1      24.621   0.977  52.169  1.00  0.00     0.102 N 
HETATM    5  H5  UNL     1      25.332   0.420  52.663  1.00  0.00     0.317 HD
BRANCH   4   6
HETATM    6  C3  UNL     1      23.364   0.703  52.837  1.00  0.00     0.249 C 
HETATM    7  C2  UNL     1      23.485  -0.390  53.845  1.00  0.00     0.033 C 
HETATM    8  C1  UNL     1      22.539  -0.721  54.697  1.00  0.00     0.004 C 
HETATM    9  C18 UNL     1      21.166  -0.128  54.878  1.00  0.00     0.083 C 
HETATM   10  C17 UNL     1      20.452  -0.152  53.573  1.00  0.00    -0.025 C 
HETATM   11  C16 UNL     1      21.003   0.065  52.385  1.00  0.00    -0.028 C 
HETATM   12  C15 UNL     1      22.323   0.378  51.839  1.00  0.00     0.066 C 
BRANCH   8  13
HETATM   13  N1  UNL     1      22.984  -1.809  55.520  1.00  0.00    -0.402 N 
HETATM   14  H1  UNL     1      23.794  -1.342  56.000  1.00  0.00     0.156 HD
HETATM   15  H2  UNL     1      22.567  -2.780  55.578  1.00  0.00     0.156 HD
ENDBRANCH   8  13
ENDBRANCH   4   6
ENDBRANCH   1   4
BRANCH   2  16
HETATM   16  C6  UNL     1      24.955   3.795  50.849  1.00  0.00     0.121 A 
HETATM   17  N3  UNL     1      25.003   4.487  50.072  1.00  0.00    -0.288 N 
HETATM   18  N4  UNL     1      24.103   4.829  51.247  1.00  0.00    -0.164 NA
BRANCH  17  19
HETATM   19  C7  UNL     1      25.092   5.398  49.004  1.00  0.00     0.183 C 
BRANCH  19  20
HETATM   20  C8  UNL     1      26.481   5.849  48.713  1.00  0.00    -0.039 A 
HETATM   21  C9  UNL     1      27.473   4.896  48.620  1.00  0.00     0.010 A 
HETATM   22  C10 UNL     1      28.773   5.274  48.352  1.00  0.00     0.019 A 
HETATM   23  C11 UNL     1      29.098   6.610  48.174  1.00  0.00     0.011 A 
HETATM   24 BR1  UNL     1      30.907   7.044  47.809  1.00  0.00    -0.051 Br
HETATM   25  C12 UNL     1      28.124   7.591  48.261  1.00  0.00     0.019 A 
HETATM   26  C13 UNL     1      26.842   7.166  48.531  1.00  0.00     0.010 A 
ENDBRANCH  19  20
ENDBRANCH  17  19
ENDBRANCH   2  16
TORSDOF 7
ENDMDL
MODEL 9
REMARK VINA RESULT:      -7.4      6.099      7.727
REMARK  7 active torsions:
REMARK  status: ('A' for Active; 'I' for Inactive)
REMARK    1  A    between atoms: N1_1  and  C1_2 
REMARK    2  A    between atoms: C3_4  and  N2_5 
REMARK    3  A    between atoms: N2_5  and  C4_6 
REMARK    4  A    between atoms: C5_7  and  C6_8 
REMARK    5  A    between atoms: N3_9  and  C7_10 
REMARK    6  A    between atoms: C7_10  and  C8_11 
REMARK    7  A    between atoms: N4_18  and  C14_19 
ROOT
HETATM    1  C4  UNL     1      26.521   2.801  50.439  1.00  0.00     0.279 A 
HETATM    2  C5  UNL     1      26.580   3.845  49.813  1.00  0.00     0.018 A 
HETATM    3  C14 UNL     1      24.884   3.943  50.238  1.00  0.00     0.159 A 
ENDROOT
BRANCH   1   4
HETATM    4  N2  UNL     1      26.321   2.791  51.911  1.00  0.00     0.102 N 
HETATM    5  H5  UNL     1      25.393   2.403  52.129  1.00  0.00     0.317 HD
BRANCH   4   6
HETATM    6  C3  UNL     1      27.283   1.818  52.387  1.00  0.00     0.249 C 
HETATM    7  C2  UNL     1      26.636   0.544  52.815  1.00  0.00     0.033 C 
HETATM    8  C1  UNL     1      27.292  -0.550  53.134  1.00  0.00     0.004 C 
HETATM    9  C18 UNL     1      28.777  -0.803  53.154  1.00  0.00     0.083 C 
HETATM   10  C17 UNL     1      29.432   0.228  54.003  1.00  0.00    -0.025 C 
HETATM   11  C16 UNL     1      29.081   1.506  54.078  1.00  0.00    -0.028 C 
HETATM   12  C15 UNL     1      28.078   2.395  53.494  1.00  0.00     0.066 C 
BRANCH   8  13
HETATM   13  N1  UNL     1      26.366  -1.585  53.498  1.00  0.00    -0.402 N 
HETATM   14  H1  UNL     1      26.921  -2.053  54.259  1.00  0.00     0.156 HD
HETATM   15  H2  UNL     1      25.412  -1.767  53.078  1.00  0.00     0.156 HD
ENDBRANCH   8  13
ENDBRANCH   4   6
ENDBRANCH   1   4
BRANCH   2  16
HETATM   16  C6  UNL     1      26.600   4.597  49.370  1.00  0.00     0.121 A 
HETATM   17  N3  UNL     1      26.646   5.488  48.832  1.00  0.00    -0.288 N 
HETATM   18  N4  UNL     1      27.851   4.568  48.748  1.00  0.00    -0.164 NA
BRANCH  17  19
HETATM   19  C7  UNL     1      26.673   6.701  48.120  1.00  0.00     0.183 C 
BRANCH  19  20
HETATM   20  C8  UNL     1      25.388   7.452  48.164  1.00  0.00    -0.039 A 
HETATM   21  C9  UNL     1      24.911   7.864  49.391  1.00  0.00     0.010 A 
HETATM   22  C10 UNL     1      23.724   8.563  49.473  1.00  0.00     0.019 A 
HETATM   23  C11 UNL     1      22.998   8.859  48.330  1.00  0.00     0.011 A 
HETATM   24 BR1  UNL     1      21.378   9.823  48.531  1.00  0.00    -0.051 Br
HETATM   25  C12 UNL     1      23.450   8.460  47.083  1.00  0.00     0.019 A 
HETATM   26  C13 UNL     1      24.639   7.765  47.051  1.00  0.00     0.010 A 
ENDBRANCH  19  20
ENDBRANCH  17  19
ENDBRANCH   2  16
TORSDOF 7
ENDMDL
