MODEL 1
REMARK VINA RESULT:      -8.5      0.000      0.000
REMARK  1 active torsions:
REMARK  status: ('A' for Active; 'I' for Inactive)
REMARK    1  A    between atoms: C4_4  and  N1_5 
ROOT
HETATM    1  N1  UNL     1      25.773   1.220  53.052  1.00  0.00    -0.259 N 
HETATM    2  N2  UNL     1      25.557   2.522  52.592  1.00  0.00    -0.228 NA
HETATM    3  C5  UNL     1      24.876   2.515  51.312  1.00  0.00     0.139 C 
HETATM    4  C6  UNL     1      23.547   1.856  51.548  1.00  0.00     0.010 C 
HETATM    5  C7  UNL     1      23.371   0.939  52.491  1.00  0.00     0.076 A 
HETATM    6  C8  UNL     1      22.118   0.249  52.791  1.00  0.00     0.258 A 
HETATM    7  O1  UNL     1      21.118   0.561  52.085  1.00  0.00    -0.267 OA
HETATM    8  N3  UNL     1      22.095  -0.715  53.836  1.00  0.00    -0.334 N 
HETATM    9  C9  UNL     1      20.843  -1.364  54.075  1.00  0.00     0.154 C 
HETATM   10  C10 UNL     1      23.249  -1.051  54.636  1.00  0.00     0.278 A 
HETATM   11  N4  UNL     1      24.426  -0.329  54.269  1.00  0.00    -0.251 NA
HETATM   12  C11 UNL     1      24.523   0.552  53.333  1.00  0.00     0.157 A 
HETATM   13  H5  UNL     1      26.341   3.165  52.670  1.00  0.00     0.147 HD
ENDROOT
BRANCH   1  14
HETATM   14  C4  UNL     1      26.995   0.564  53.254  1.00  0.00     0.054 A 
HETATM   15  C3  UNL     1      27.357  -0.745  53.030  1.00  0.00     0.041 A 
HETATM   16  C2  UNL     1      28.590  -1.259  53.278  1.00  0.00    -0.021 A 
HETATM   17  C1  UNL     1      28.822  -2.682  52.985  1.00  0.00     0.051 C 
HETATM   18  C14 UNL     1      29.595  -0.466  53.791  1.00  0.00     0.122 A 
HETATM   19  C13 UNL     1      29.271   0.865  54.033  1.00  0.00     0.045 A 
HETATM   20  F1  UNL     1      30.784  -1.052  54.009  1.00  0.00    -0.206 F 
HETATM   21  C12 UNL     1      28.015   1.371  53.776  1.00  0.00     0.034 A 
ENDBRANCH   1  14
TORSDOF 1
ENDMDL
MODEL 2
REMARK VINA RESULT:      -8.2      2.205      2.711
REMARK  1 active torsions:
REMARK  status: ('A' for Active; 'I' for Inactive)
REMARK    1  A    between atoms: C4_4  and  N1_5 
ROOT
HETATM    1  N1  UNL     1      26.353   2.462  51.560  1.00  0.00    -0.259 N 
HETATM    2  N2  UNL     1      26.876   3.554  50.863  1.00  0.00    -0.228 NA
HETATM    3  C5  UNL     1      26.493   3.511  49.465  1.00  0.00     0.139 C 
HETATM    4  C6  UNL     1      24.993   3.591  49.439  1.00  0.00     0.010 C 
HETATM    5  C7  UNL     1      24.244   3.127  50.431  1.00  0.00     0.076 A 
HETATM    6  C8  UNL     1      22.785   3.163  50.490  1.00  0.00     0.258 A 
HETATM    7  O1  UNL     1      22.191   3.685  49.505  1.00  0.00    -0.267 OA
HETATM    8  N3  UNL     1      22.127   2.619  51.628  1.00  0.00    -0.334 N 
HETATM    9  C9  UNL     1      20.698   2.675  51.624  1.00  0.00     0.154 C 
HETATM   10  C10 UNL     1      22.825   2.034  52.749  1.00  0.00     0.278 A 
HETATM   11  N4  UNL     1      24.246   2.042  52.600  1.00  0.00    -0.251 NA
HETATM   12  C11 UNL     1      24.910   2.510  51.599  1.00  0.00     0.157 A 
HETATM   13  H5  UNL     1      27.849   3.783  51.046  1.00  0.00     0.147 HD
ENDROOT
BRANCH   1  14
HETATM   14  C4  UNL     1      27.049   1.414  52.179  1.00  0.00     0.054 A 
HETATM   15  C3  UNL     1      26.860   0.053  52.117  1.00  0.00     0.041 A 
HETATM   16  C2  UNL     1      27.612  -0.863  52.780  1.00  0.00    -0.021 A 
HETATM   17  C1  UNL     1      27.284  -2.287  52.612  1.00  0.00     0.051 C 
HETATM   18  C14 UNL     1      28.657  -0.466  53.589  1.00  0.00     0.122 A 
HETATM   19  C13 UNL     1      28.883   0.904  53.680  1.00  0.00     0.045 A 
HETATM   20  F1  UNL     1      29.351  -1.434  54.210  1.00  0.00    -0.206 F 
HETATM   21  C12 UNL     1      28.110   1.820  53.001  1.00  0.00     0.034 A 
ENDBRANCH   1  14
TORSDOF 1
ENDMDL
MODEL 3
REMARK VINA RESULT:      -7.9      1.802      3.538
REMARK  1 active torsions:
REMARK  status: ('A' for Active; 'I' for Inactive)
REMARK    1  A    between atoms: C4_4  and  N1_5 
ROOT
HETATM    1  N1  UNL     1      24.128   0.101  52.883  1.00  0.00    -0.259 N 
HETATM    2  N2  UNL     1      23.277  -0.961  53.199  1.00  0.00    -0.228 NA
HETATM    3  C5  UNL     1      22.384  -0.607  54.285  1.00  0.00     0.139 C 
HETATM    4  C6  UNL     1      21.558   0.547  53.789  1.00  0.00     0.010 C 
HETATM    5  C7  UNL     1      22.016   1.408  52.891  1.00  0.00     0.076 A 
HETATM    6  C8  UNL     1      21.286   2.553  52.353  1.00  0.00     0.258 A 
HETATM    7  O1  UNL     1      20.114   2.731  52.788  1.00  0.00    -0.267 OA
HETATM    8  N3  UNL     1      21.922   3.388  51.393  1.00  0.00    -0.334 N 
HETATM    9  C9  UNL     1      21.160   4.498  50.911  1.00  0.00     0.154 C 
HETATM   10  C10 UNL     1      23.261   3.162  50.903  1.00  0.00     0.278 A 
HETATM   11  N4  UNL     1      23.896   2.022  51.486  1.00  0.00    -0.251 NA
HETATM   12  C11 UNL     1      23.386   1.227  52.363  1.00  0.00     0.157 A 
HETATM   13  H5  UNL     1      23.706  -1.880  53.265  1.00  0.00     0.147 HD
ENDROOT
BRANCH   1  14
HETATM   14  C4  UNL     1      25.522   0.162  53.010  1.00  0.00     0.054 A 
HETATM   15  C3  UNL     1      26.353   1.229  53.263  1.00  0.00     0.041 A 
HETATM   16  C2  UNL     1      27.706   1.150  53.356  1.00  0.00    -0.021 A 
HETATM   17  C1  UNL     1      28.459   2.383  53.632  1.00  0.00     0.051 C 
HETATM   18  C14 UNL     1      28.355  -0.057  53.195  1.00  0.00     0.122 A 
HETATM   19  C13 UNL     1      27.552  -1.162  52.937  1.00  0.00     0.045 A 
HETATM   20  F1  UNL     1      29.695  -0.048  53.301  1.00  0.00    -0.206 F 
HETATM   21  C12 UNL     1      26.180  -1.065  52.846  1.00  0.00     0.034 A 
ENDBRANCH   1  14
TORSDOF 1
ENDMDL
MODEL 4
REMARK VINA RESULT:      -7.8      1.392      1.523
REMARK  1 active torsions:
REMARK  status: ('A' for Active; 'I' for Inactive)
REMARK    1  A    between atoms: C4_4  and  N1_5 
ROOT
HETATM    1  N1  UNL     1      24.689   1.856  53.126  1.00  0.00    -0.259 N 
HETATM    2  N2  UNL     1      24.627   3.252  53.098  1.00  0.00    -0.228 NA
HETATM    3  C5  UNL     1      24.035   3.722  51.861  1.00  0.00     0.139 C 
HETATM    4  C6  UNL     1      22.636   3.173  51.831  1.00  0.00     0.010 C 
HETATM    5  C7  UNL     1      22.313   2.032  52.425  1.00  0.00     0.076 A 
HETATM    6  C8  UNL     1      20.984   1.426  52.448  1.00  0.00     0.258 A 
HETATM    7  O1  UNL     1      20.067   2.052  51.846  1.00  0.00    -0.267 OA
HETATM    8  N3  UNL     1      20.801   0.191  53.130  1.00  0.00    -0.334 N 
HETATM    9  C9  UNL     1      19.480  -0.357  53.109  1.00  0.00     0.154 C 
HETATM   10  C10 UNL     1      21.862  -0.504  53.818  1.00  0.00     0.278 A 
HETATM   11  N4  UNL     1      23.124   0.162  53.740  1.00  0.00    -0.251 NA
HETATM   12  C11 UNL     1      23.366   1.276  53.137  1.00  0.00     0.157 A 
HETATM   13  H5  UNL     1      25.461   3.748  53.402  1.00  0.00     0.147 HD
ENDROOT
BRANCH   1  14
HETATM   14  C4  UNL     1      25.827   1.039  53.148  1.00  0.00     0.054 A 
HETATM   15  C3  UNL     1      25.995  -0.273  52.771  1.00  0.00     0.041 A 
HETATM   16  C2  UNL     1      27.167  -0.957  52.851  1.00  0.00    -0.021 A 
HETATM   17  C1  UNL     1      27.187  -2.359  52.407  1.00  0.00     0.051 C 
HETATM   18  C14 UNL     1      28.306  -0.349  53.336  1.00  0.00     0.122 A 
HETATM   19  C13 UNL     1      28.180   0.979  53.729  1.00  0.00     0.045 A 
HETATM   20  F1  UNL     1      29.423  -1.094  53.383  1.00  0.00    -0.206 F 
HETATM   21  C12 UNL     1      26.984   1.658  53.641  1.00  0.00     0.034 A 
ENDBRANCH   1  14
TORSDOF 1
ENDMDL
MODEL 5
REMARK VINA RESULT:      -7.7      3.562      6.358
REMARK  1 active torsions:
REMARK  status: ('A' for Active; 'I' for Inactive)
REMARK    1  A    between atoms: C4_4  and  N1_5 
ROOT
HETATM    1  N1  UNL     1      24.234   0.596  53.115  1.00  0.00    -0.259 N 
HETATM    2  N2  UNL     1      25.433   0.098  53.633  1.00  0.00    -0.228 NA
HETATM    3  C5  UNL     1      26.327  -0.315  52.569  1.00  0.00     0.139 C 
HETATM    4  C6  UNL     1      26.621   0.920  51.766  1.00  0.00     0.010 C 
HETATM    5  C7  UNL     1      25.755   1.920  51.665  1.00  0.00     0.076 A 
HETATM    6  C8  UNL     1      25.956   3.154  50.910  1.00  0.00     0.258 A 
HETATM    7  O1  UNL     1      27.057   3.272  50.302  1.00  0.00    -0.267 OA
HETATM    8  N3  UNL     1      24.923   4.132  50.899  1.00  0.00    -0.334 N 
HETATM    9  C9  UNL     1      25.175   5.314  50.134  1.00  0.00     0.154 C 
HETATM   10  C10 UNL     1      23.674   3.980  51.607  1.00  0.00     0.278 A 
HETATM   11  N4  UNL     1      23.567   2.743  52.313  1.00  0.00    -0.251 NA
HETATM   12  C11 UNL     1      24.456   1.810  52.364  1.00  0.00     0.157 A 
HETATM   13  H5  UNL     1      25.355  -0.546  54.415  1.00  0.00     0.147 HD
ENDROOT
BRANCH   1  14
HETATM   14  C4  UNL     1      22.944   0.069  53.256  1.00  0.00     0.054 A 
HETATM   15  C3  UNL     1      21.787   0.333  52.559  1.00  0.00     0.041 A 
HETATM   16  C2  UNL     1      20.586  -0.252  52.804  1.00  0.00    -0.021 A 
HETATM   17  C1  UNL     1      19.439   0.136  51.970  1.00  0.00     0.051 C 
HETATM   18  C14 UNL     1      20.449  -1.186  53.810  1.00  0.00     0.122 A 
HETATM   19  C13 UNL     1      21.594  -1.482  54.541  1.00  0.00     0.045 A 
HETATM   20  F1  UNL     1      19.227  -1.716  53.988  1.00  0.00    -0.206 F 
HETATM   21  C12 UNL     1      22.805  -0.879  54.279  1.00  0.00     0.034 A 
ENDBRANCH   1  14
TORSDOF 1
ENDMDL
MODEL 6
REMARK VINA RESULT:      -7.7      2.696      4.932
REMARK  1 active torsions:
REMARK  status: ('A' for Active; 'I' for Inactive)
REMARK    1  A    between atoms: C4_4  and  N1_5 
ROOT
HETATM    1  N1  UNL     1      25.419   1.930  51.621  1.00  0.00    -0.259 N 
HETATM    2  N2  UNL     1      24.067   1.578  51.637  1.00  0.00    -0.228 NA
HETATM    3  C5  UNL     1      23.265   2.620  52.247  1.00  0.00     0.139 C 
HETATM    4  C6  UNL     1      23.439   3.840  51.386  1.00  0.00     0.010 C 
HETATM    5  C7  UNL     1      24.548   4.063  50.693  1.00  0.00     0.076 A 
HETATM    6  C8  UNL     1      24.803   5.216  49.833  1.00  0.00     0.258 A 
HETATM    7  O1  UNL     1      23.878   6.072  49.747  1.00  0.00    -0.267 OA
HETATM    8  N3  UNL     1      26.051   5.309  49.157  1.00  0.00    -0.334 N 
HETATM    9  C9  UNL     1      26.245   6.465  48.338  1.00  0.00     0.154 C 
HETATM   10  C10 UNL     1      27.092   4.315  49.264  1.00  0.00     0.278 A 
HETATM   11  N4  UNL     1      26.754   3.227  50.127  1.00  0.00    -0.251 NA
HETATM   12  C11 UNL     1      25.649   3.078  50.775  1.00  0.00     0.157 A 
HETATM   13  H5  UNL     1      23.851   0.629  51.931  1.00  0.00     0.147 HD
ENDROOT
BRANCH   1  14
HETATM   14  C4  UNL     1      26.484   1.315  52.294  1.00  0.00     0.054 A 
HETATM   15  C3  UNL     1      27.482   1.853  53.073  1.00  0.00     0.041 A 
HETATM   16  C2  UNL     1      28.469   1.135  53.670  1.00  0.00    -0.021 A 
HETATM   17  C1  UNL     1      29.467   1.857  54.474  1.00  0.00     0.051 C 
HETATM   18  C14 UNL     1      28.531  -0.235  53.524  1.00  0.00     0.122 A 
HETATM   19  C13 UNL     1      27.540  -0.820  52.743  1.00  0.00     0.045 A 
HETATM   20  F1  UNL     1      29.539  -0.871  54.146  1.00  0.00    -0.206 F 
HETATM   21  C12 UNL     1      26.546  -0.077  52.145  1.00  0.00     0.034 A 
ENDBRANCH   1  14
TORSDOF 1
ENDMDL
MODEL 7
REMARK VINA RESULT:      -7.5      3.237      4.951
REMARK  1 active torsions:
REMARK  status: ('A' for Active; 'I' for Inactive)
REMARK    1  A    between atoms: C4_4  and  N1_5 
ROOT
HETATM    1  N1  UNL     1      25.562   2.869  51.755  1.00  0.00    -0.259 N 
HETATM    2  N2  UNL     1      26.755   3.210  51.111  1.00  0.00    -0.228 NA
HETATM    3  C5  UNL     1      26.599   3.167  49.670  1.00  0.00     0.139 C 
HETATM    4  C6  UNL     1      25.554   4.193  49.332  1.00  0.00     0.010 C 
HETATM    5  C7  UNL     1      24.585   4.519  50.177  1.00  0.00     0.076 A 
HETATM    6  C8  UNL     1      23.532   5.502  49.934  1.00  0.00     0.258 A 
HETATM    7  O1  UNL     1      23.555   6.090  48.816  1.00  0.00    -0.267 OA
HETATM    8  N3  UNL     1      22.560   5.736  50.945  1.00  0.00    -0.334 N 
HETATM    9  C9  UNL     1      21.549   6.702  50.644  1.00  0.00     0.154 C 
HETATM   10  C10 UNL     1      22.557   5.058  52.220  1.00  0.00     0.278 A 
HETATM   11  N4  UNL     1      23.621   4.116  52.366  1.00  0.00    -0.251 NA
HETATM   12  C11 UNL     1      24.532   3.847  51.494  1.00  0.00     0.157 A 
HETATM   13  H5  UNL     1      27.603   2.782  51.474  1.00  0.00     0.147 HD
ENDROOT
BRANCH   1  14
HETATM   14  C4  UNL     1      25.303   1.759  52.570  1.00  0.00     0.054 A 
HETATM   15  C3  UNL     1      24.231   0.897  52.594  1.00  0.00     0.041 A 
HETATM   16  C2  UNL     1      24.100  -0.150  53.450  1.00  0.00    -0.021 A 
HETATM   17  C1  UNL     1      22.892  -0.983  53.353  1.00  0.00     0.051 C 
HETATM   18  C14 UNL     1      25.077  -0.422  54.386  1.00  0.00     0.122 A 
HETATM   19  C13 UNL     1      26.179   0.426  54.395  1.00  0.00     0.045 A 
HETATM   20  F1  UNL     1      24.870  -1.475  55.195  1.00  0.00    -0.206 F 
HETATM   21  C12 UNL     1      26.296   1.483  53.520  1.00  0.00     0.034 A 
ENDBRANCH   1  14
TORSDOF 1
ENDMDL
MODEL 8
REMARK VINA RESULT:      -7.5      3.723      6.582
REMARK  1 active torsions:
REMARK  status: ('A' for Active; 'I' for Inactive)
REMARK    1  A    between atoms: C4_4  and  N1_5 
ROOT
HETATM    1  N1  UNL     1      22.838   1.455  51.966  1.00  0.00    -0.259 N 
HETATM    2  N2  UNL     1      21.925   1.334  53.016  1.00  0.00    -0.228 NA
HETATM    3  C5  UNL     1      21.760  -0.053  53.406  1.00  0.00     0.139 C 
HETATM    4  C6  UNL     1      23.109  -0.517  53.879  1.00  0.00     0.010 C 
HETATM    5  C7  UNL     1      24.238  -0.005  53.407  1.00  0.00     0.076 A 
HETATM    6  C8  UNL     1      25.588  -0.393  53.808  1.00  0.00     0.258 A 
HETATM    7  O1  UNL     1      25.679  -1.298  54.684  1.00  0.00    -0.267 OA
HETATM    8  N3  UNL     1      26.700   0.253  53.202  1.00  0.00    -0.334 N 
HETATM    9  C9  UNL     1      27.996  -0.177  53.629  1.00  0.00     0.154 C 
HETATM   10  C10 UNL     1      26.574   1.292  52.208  1.00  0.00     0.278 A 
HETATM   11  N4  UNL     1      25.218   1.603  51.878  1.00  0.00    -0.251 NA
HETATM   12  C11 UNL     1      24.164   1.057  52.380  1.00  0.00     0.157 A 
HETATM   13  H5  UNL     1      21.066   1.872  52.933  1.00  0.00     0.147 HD
ENDROOT
BRANCH   1  14
HETATM   14  C4  UNL     1      22.601   1.899  50.658  1.00  0.00     0.054 A 
HETATM   15  C3  UNL     1      22.963   3.068  50.029  1.00  0.00     0.041 A 
HETATM   16  C2  UNL     1      22.660   3.379  48.742  1.00  0.00    -0.021 A 
HETATM   17  C1  UNL     1      23.118   4.672  48.211  1.00  0.00     0.051 C 
HETATM   18  C14 UNL     1      21.941   2.503  47.955  1.00  0.00     0.122 A 
HETATM   19  C13 UNL     1      21.555   1.308  48.553  1.00  0.00     0.045 A 
HETATM   20  F1  UNL     1      21.682   2.887  46.693  1.00  0.00    -0.206 F 
HETATM   21  C12 UNL     1      21.871   1.008  49.860  1.00  0.00     0.034 A 
ENDBRANCH   1  14
TORSDOF 1
ENDMDL
MODEL 9
REMARK VINA RESULT:      -7.4      2.949      4.820
REMARK  1 active torsions:
REMARK  status: ('A' for Active; 'I' for Inactive)
REMARK    1  A    between atoms: C4_4  and  N1_5 
ROOT
HETATM    1  N1  UNL     1      25.309   0.980  52.251  1.00  0.00    -0.259 N 
HETATM    2  N2  UNL     1      26.382   0.159  52.606  1.00  0.00    -0.228 NA
HETATM    3  C5  UNL     1      26.528   0.087  54.047  1.00  0.00     0.139 C 
HETATM    4  C6  UNL     1      25.256  -0.522  54.567  1.00  0.00     0.010 C 
HETATM    5  C7  UNL     1      24.096  -0.375  53.942  1.00  0.00     0.076 A 
HETATM    6  C8  UNL     1      22.815  -0.930  54.372  1.00  0.00     0.258 A 
HETATM    7  O1  UNL     1      22.823  -1.612  55.436  1.00  0.00    -0.267 OA
HETATM    8  N3  UNL     1      21.655  -0.677  53.589  1.00  0.00    -0.334 N 
HETATM    9  C9  UNL     1      20.430  -1.240  54.066  1.00  0.00     0.154 C 
HETATM   10  C10 UNL     1      21.669   0.098  52.371  1.00  0.00     0.278 A 
HETATM   11  N4  UNL     1      22.963   0.602  52.032  1.00  0.00    -0.251 NA
HETATM   12  C11 UNL     1      24.054   0.419  52.694  1.00  0.00     0.157 A 
HETATM   13  H5  UNL     1      27.244   0.290  52.084  1.00  0.00     0.147 HD
ENDROOT
BRANCH   1  14
HETATM   14  C4  UNL     1      25.341   2.196  51.554  1.00  0.00     0.054 A 
HETATM   15  C3  UNL     1      24.504   3.286  51.615  1.00  0.00     0.041 A 
HETATM   16  C2  UNL     1      24.647   4.413  50.870  1.00  0.00    -0.021 A 
HETATM   17  C1  UNL     1      23.667   5.495  51.050  1.00  0.00     0.051 C 
HETATM   18  C14 UNL     1      25.685   4.537  49.971  1.00  0.00     0.122 A 
HETATM   19  C13 UNL     1      26.556   3.456  49.877  1.00  0.00     0.045 A 
HETATM   20  F1  UNL     1      25.755   5.683  49.273  1.00  0.00    -0.206 F 
HETATM   21  C12 UNL     1      26.396   2.320  50.640  1.00  0.00     0.034 A 
ENDBRANCH   1  14
TORSDOF 1
ENDMDL
