MODEL 1
REMARK VINA RESULT:      -7.7      0.000      0.000
REMARK  7 active torsions:
REMARK  status: ('A' for Active; 'I' for Inactive)
REMARK    1  A    between atoms: O1_2  and  C2_3 
REMARK    2  A    between atoms: C4_5  and  S1_6 
REMARK    3  A    between atoms: C5_7  and  N1_8 
REMARK    4  A    between atoms: N1_8  and  C6_9 
REMARK    5  A    between atoms: C11_15  and  O2_16 
REMARK    6  A    between atoms: C13_18  and  O3_19 
REMARK    7  A    between atoms: C18_24  and  O4_25 
ROOT
HETATM    1  C6  UNL     1      23.320  -0.082  53.447  1.00  0.00     0.046 A 
HETATM    2  C7  UNL     1      22.808  -0.912  54.419  1.00  0.00     0.049 A 
HETATM    3  C8  UNL     1      23.624  -1.449  55.401  1.00  0.00     0.119 A 
HETATM    4  N2  UNL     1      24.936  -1.141  55.384  1.00  0.00    -0.260 NA
HETATM    5  C9  UNL     1      25.435  -0.321  54.421  1.00  0.00     0.071 A 
HETATM    6  C10 UNL     1      26.792  -0.070  54.495  1.00  0.00     0.072 A 
HETATM    7  C11 UNL     1      27.368   0.749  53.556  1.00  0.00     0.103 A 
HETATM    8  C13 UNL     1      26.611   1.327  52.538  1.00  0.00     0.102 A 
HETATM    9  C15 UNL     1      25.261   1.053  52.497  1.00  0.00     0.055 A 
HETATM   10  C16 UNL     1      24.652   0.243  53.412  1.00  0.00     0.022 A 
ENDROOT
BRANCH   1  11
HETATM   11  N1  UNL     1      22.477   0.462  52.460  1.00  0.00    -0.354 N 
HETATM   12  H6  UNL     1      22.660   1.128  51.706  1.00  0.00     0.166 HD
BRANCH  11  13
HETATM   13  C5  UNL     1      21.095   0.248  52.212  1.00  0.00     0.052 A 
HETATM   14  C4  UNL     1      20.674   0.644  50.936  1.00  0.00     0.027 A 
HETATM   15  C3  UNL     1      19.356   0.484  50.561  1.00  0.00     0.060 A 
HETATM   16  C2  UNL     1      18.419  -0.056  51.392  1.00  0.00     0.102 A 
HETATM   17  C18 UNL     1      18.826  -0.452  52.661  1.00  0.00     0.103 A 
HETATM   18  C17 UNL     1      20.140  -0.295  53.044  1.00  0.00     0.070 A 
BRANCH  14  19
HETATM   19  S1  UNL     1      21.690   1.369  49.629  1.00  0.00    -0.141 SA
HETATM   20  H5  UNL     1      22.792   0.580  49.318  1.00  0.00     0.107 HD
ENDBRANCH  14  19
BRANCH  16  21
HETATM   21  O1  UNL     1      17.073  -0.263  51.119  1.00  0.00    -0.353 OA
HETATM   22  C1  UNL     1      16.675  -0.281  49.761  1.00  0.00     0.210 C 
ENDBRANCH  16  21
BRANCH  17  23
HETATM   23  O4  UNL     1      17.938  -1.011  53.572  1.00  0.00    -0.353 OA
HETATM   24  C19 UNL     1      17.919  -2.407  53.716  1.00  0.00     0.210 C 
ENDBRANCH  17  23
ENDBRANCH  11  13
ENDBRANCH   1  11
BRANCH   8  25
HETATM   25  O3  UNL     1      27.233   2.141  51.620  1.00  0.00    -0.353 OA
HETATM   26  C14 UNL     1      26.495   2.960  50.766  1.00  0.00     0.210 C 
ENDBRANCH   8  25
BRANCH   7  27
HETATM   27  O2  UNL     1      28.723   1.027  53.592  1.00  0.00    -0.353 OA
HETATM   28  C12 UNL     1      29.677  -0.020  53.638  1.00  0.00     0.210 C 
ENDBRANCH   7  27
TORSDOF 7
ENDMDL
MODEL 2
REMARK VINA RESULT:      -7.6      2.121      3.249
REMARK  7 active torsions:
REMARK  status: ('A' for Active; 'I' for Inactive)
REMARK    1  A    between atoms: O1_2  and  C2_3 
REMARK    2  A    between atoms: C4_5  and  S1_6 
REMARK    3  A    between atoms: C5_7  and  N1_8 
REMARK    4  A    between atoms: N1_8  and  C6_9 
REMARK    5  A    between atoms: C11_15  and  O2_16 
REMARK    6  A    between atoms: C13_18  and  O3_19 
REMARK    7  A    between atoms: C18_24  and  O4_25 
ROOT
HETATM    1  C6  UNL     1      22.914   1.493  52.313  1.00  0.00     0.046 A 
HETATM    2  C7  UNL     1      22.422   2.772  52.181  1.00  0.00     0.049 A 
HETATM    3  C8  UNL     1      23.158   3.867  52.607  1.00  0.00     0.119 A 
HETATM    4  N2  UNL     1      24.369   3.651  53.156  1.00  0.00    -0.260 NA
HETATM    5  C9  UNL     1      24.848   2.384  53.284  1.00  0.00     0.071 A 
HETATM    6  C10 UNL     1      26.100   2.274  53.860  1.00  0.00     0.072 A 
HETATM    7  C11 UNL     1      26.648   1.027  54.022  1.00  0.00     0.103 A 
HETATM    8  C13 UNL     1      25.970  -0.121  53.617  1.00  0.00     0.102 A 
HETATM    9  C15 UNL     1      24.723   0.029  53.047  1.00  0.00     0.055 A 
HETATM   10  C16 UNL     1      24.144   1.252  52.869  1.00  0.00     0.022 A 
ENDROOT
BRANCH   1  11
HETATM   11  N1  UNL     1      22.158   0.392  51.869  1.00  0.00    -0.354 N 
HETATM   12  H6  UNL     1      22.436  -0.478  51.409  1.00  0.00     0.166 HD
BRANCH  11  13
HETATM   13  C5  UNL     1      20.759   0.155  51.924  1.00  0.00     0.052 A 
HETATM   14  C4  UNL     1      20.329  -0.467  53.102  1.00  0.00     0.027 A 
HETATM   15  C3  UNL     1      18.991  -0.747  53.288  1.00  0.00     0.060 A 
HETATM   16  C2  UNL     1      18.042  -0.441  52.357  1.00  0.00     0.102 A 
HETATM   17  C18 UNL     1      18.458   0.176  51.184  1.00  0.00     0.103 A 
HETATM   18  C17 UNL     1      19.792   0.459  50.990  1.00  0.00     0.070 A 
BRANCH  14  19
HETATM   19  S1  UNL     1      21.350  -0.970  54.505  1.00  0.00    -0.141 SA
HETATM   20  H5  UNL     1      22.592  -0.345  54.506  1.00  0.00     0.107 HD
ENDBRANCH  14  19
BRANCH  16  21
HETATM   21  O1  UNL     1      16.676  -0.677  52.441  1.00  0.00    -0.353 OA
HETATM   22  C1  UNL     1      16.244  -2.023  52.489  1.00  0.00     0.210 C 
ENDBRANCH  16  21
BRANCH  17  23
HETATM   23  O4  UNL     1      17.560   0.523  50.182  1.00  0.00    -0.353 OA
HETATM   24  C19 UNL     1      17.290   1.884  49.969  1.00  0.00     0.210 C 
ENDBRANCH  17  23
ENDBRANCH  11  13
ENDBRANCH   1  11
BRANCH   8  25
HETATM   25  O3  UNL     1      26.560  -1.349  53.800  1.00  0.00    -0.353 OA
HETATM   26  C14 UNL     1      27.053  -2.082  52.720  1.00  0.00     0.210 C 
ENDBRANCH   8  25
BRANCH   7  27
HETATM   27  O2  UNL     1      27.899   0.870  54.594  1.00  0.00    -0.353 OA
HETATM   28  C12 UNL     1      29.069   1.269  53.899  1.00  0.00     0.210 C 
ENDBRANCH   7  27
TORSDOF 7
ENDMDL
MODEL 3
REMARK VINA RESULT:      -7.6      3.764      5.553
REMARK  7 active torsions:
REMARK  status: ('A' for Active; 'I' for Inactive)
REMARK    1  A    between atoms: O1_2  and  C2_3 
REMARK    2  A    between atoms: C4_5  and  S1_6 
REMARK    3  A    between atoms: C5_7  and  N1_8 
REMARK    4  A    between atoms: N1_8  and  C6_9 
REMARK    5  A    between atoms: C11_15  and  O2_16 
REMARK    6  A    between atoms: C13_18  and  O3_19 
REMARK    7  A    between atoms: C18_24  and  O4_25 
ROOT
HETATM    1  C6  UNL     1      23.247   1.900  52.678  1.00  0.00     0.046 A 
HETATM    2  C7  UNL     1      22.177   1.075  52.417  1.00  0.00     0.049 A 
HETATM    3  C8  UNL     1      22.246  -0.286  52.668  1.00  0.00     0.119 A 
HETATM    4  N2  UNL     1      23.389  -0.786  53.177  1.00  0.00    -0.260 NA
HETATM    5  C9  UNL     1      24.443   0.035  53.433  1.00  0.00     0.071 A 
HETATM    6  C10 UNL     1      25.566  -0.580  53.953  1.00  0.00     0.072 A 
HETATM    7  C11 UNL     1      26.670   0.184  54.237  1.00  0.00     0.103 A 
HETATM    8  C13 UNL     1      26.676   1.560  54.011  1.00  0.00     0.102 A 
HETATM    9  C15 UNL     1      25.537   2.137  53.491  1.00  0.00     0.055 A 
HETATM   10  C16 UNL     1      24.419   1.410  53.196  1.00  0.00     0.022 A 
ENDROOT
BRANCH   1  11
HETATM   11  N1  UNL     1      23.159   3.281  52.424  1.00  0.00    -0.354 N 
HETATM   12  H6  UNL     1      22.912   4.067  53.031  1.00  0.00     0.166 HD
BRANCH  11  13
HETATM   13  C5  UNL     1      23.388   4.013  51.229  1.00  0.00     0.052 A 
HETATM   14  C4  UNL     1      22.224   4.506  50.626  1.00  0.00     0.027 A 
HETATM   15  C3  UNL     1      22.305   5.242  49.462  1.00  0.00     0.060 A 
HETATM   16  C2  UNL     1      23.493   5.522  48.854  1.00  0.00     0.102 A 
HETATM   17  C18 UNL     1      24.655   5.039  49.444  1.00  0.00     0.103 A 
HETATM   18  C17 UNL     1      24.583   4.301  50.606  1.00  0.00     0.070 A 
BRANCH  14  19
HETATM   19  S1  UNL     1      20.526   4.306  51.210  1.00  0.00    -0.141 SA
HETATM   20  H5  UNL     1      19.590   4.658  50.244  1.00  0.00     0.107 HD
ENDBRANCH  14  19
BRANCH  16  21
HETATM   21  O1  UNL     1      23.689   6.250  47.688  1.00  0.00    -0.353 OA
HETATM   22  C1  UNL     1      22.613   6.324  46.772  1.00  0.00     0.210 C 
ENDBRANCH  16  21
BRANCH  17  23
HETATM   23  O4  UNL     1      25.908   5.275  48.893  1.00  0.00    -0.353 OA
HETATM   24  C19 UNL     1      26.932   4.346  49.138  1.00  0.00     0.210 C 
ENDBRANCH  17  23
ENDBRANCH  11  13
ENDBRANCH   1  11
BRANCH   8  25
HETATM   25  O3  UNL     1      27.805   2.285  54.311  1.00  0.00    -0.353 OA
HETATM   26  C14 UNL     1      28.741   2.603  53.326  1.00  0.00     0.210 C 
ENDBRANCH   8  25
BRANCH   7  27
HETATM   27  O2  UNL     1      27.816  -0.389  54.758  1.00  0.00    -0.353 OA
HETATM   28  C12 UNL     1      28.812  -0.925  53.903  1.00  0.00     0.210 C 
ENDBRANCH   7  27
TORSDOF 7
ENDMDL
MODEL 4
REMARK VINA RESULT:      -7.6      2.001      7.793
REMARK  7 active torsions:
REMARK  status: ('A' for Active; 'I' for Inactive)
REMARK    1  A    between atoms: O1_2  and  C2_3 
REMARK    2  A    between atoms: C4_5  and  S1_6 
REMARK    3  A    between atoms: C5_7  and  N1_8 
REMARK    4  A    between atoms: N1_8  and  C6_9 
REMARK    5  A    between atoms: C11_15  and  O2_16 
REMARK    6  A    between atoms: C13_18  and  O3_19 
REMARK    7  A    between atoms: C18_24  and  O4_25 
ROOT
HETATM    1  C6  UNL     1      22.426  -0.082  52.774  1.00  0.00     0.046 A 
HETATM    2  C7  UNL     1      22.347  -0.705  53.998  1.00  0.00     0.049 A 
HETATM    3  C8  UNL     1      21.124  -1.082  54.531  1.00  0.00     0.119 A 
HETATM    4  N2  UNL     1      20.009  -0.823  53.819  1.00  0.00    -0.260 NA
HETATM    5  C9  UNL     1      20.094  -0.207  52.610  1.00  0.00     0.071 A 
HETATM    6  C10 UNL     1      18.892   0.011  51.965  1.00  0.00     0.072 A 
HETATM    7  C11 UNL     1      18.899   0.629  50.739  1.00  0.00     0.103 A 
HETATM    8  C13 UNL     1      20.090   1.036  50.140  1.00  0.00     0.102 A 
HETATM    9  C15 UNL     1      21.269   0.802  50.815  1.00  0.00     0.055 A 
HETATM   10  C16 UNL     1      21.303   0.190  52.035  1.00  0.00     0.022 A 
ENDROOT
BRANCH   1  11
HETATM   11  N1  UNL     1      23.676   0.288  52.244  1.00  0.00    -0.354 N 
HETATM   12  H6  UNL     1      23.973   0.484  51.285  1.00  0.00     0.166 HD
BRANCH  11  13
HETATM   13  C5  UNL     1      24.922   0.502  52.891  1.00  0.00     0.052 A 
HETATM   14  C4  UNL     1      25.183   1.842  53.204  1.00  0.00     0.027 A 
HETATM   15  C3  UNL     1      26.356   2.188  53.842  1.00  0.00     0.060 A 
HETATM   16  C2  UNL     1      27.298   1.266  54.193  1.00  0.00     0.102 A 
HETATM   17  C18 UNL     1      27.050  -0.066  53.887  1.00  0.00     0.103 A 
HETATM   18  C17 UNL     1      25.881  -0.421  53.249  1.00  0.00     0.070 A 
BRANCH  14  19
HETATM   19  S1  UNL     1      24.118   3.264  52.877  1.00  0.00    -0.141 SA
HETATM   20  H5  UNL     1      23.741   3.347  51.542  1.00  0.00     0.107 HD
ENDBRANCH  14  19
BRANCH  16  21
HETATM   21  O1  UNL     1      28.506   1.503  54.835  1.00  0.00    -0.353 OA
HETATM   22  C1  UNL     1      29.490   2.239  54.132  1.00  0.00     0.210 C 
ENDBRANCH  16  21
BRANCH  17  23
HETATM   23  O4  UNL     1      27.955  -1.071  54.206  1.00  0.00    -0.353 OA
HETATM   24  C19 UNL     1      28.842  -1.512  53.211  1.00  0.00     0.210 C 
ENDBRANCH  17  23
ENDBRANCH  11  13
ENDBRANCH   1  11
BRANCH   8  25
HETATM   25  O3  UNL     1      20.047   1.651  48.911  1.00  0.00    -0.353 OA
HETATM   26  C14 UNL     1      21.177   2.262  48.369  1.00  0.00     0.210 C 
ENDBRANCH   8  25
BRANCH   7  27
HETATM   27  O2  UNL     1      17.719   0.868  50.057  1.00  0.00    -0.353 OA
HETATM   28  C12 UNL     1      16.845  -0.199  49.726  1.00  0.00     0.210 C 
ENDBRANCH   7  27
TORSDOF 7
ENDMDL
MODEL 5
REMARK VINA RESULT:      -7.6      1.977      3.356
REMARK  7 active torsions:
REMARK  status: ('A' for Active; 'I' for Inactive)
REMARK    1  A    between atoms: O1_2  and  C2_3 
REMARK    2  A    between atoms: C4_5  and  S1_6 
REMARK    3  A    between atoms: C5_7  and  N1_8 
REMARK    4  A    between atoms: N1_8  and  C6_9 
REMARK    5  A    between atoms: C11_15  and  O2_16 
REMARK    6  A    between atoms: C13_18  and  O3_19 
REMARK    7  A    between atoms: C18_24  and  O4_25 
ROOT
HETATM    1  C6  UNL     1      24.608   2.626  52.201  1.00  0.00     0.046 A 
HETATM    2  C7  UNL     1      24.953   3.339  51.075  1.00  0.00     0.049 A 
HETATM    3  C8  UNL     1      26.227   3.251  50.537  1.00  0.00     0.119 A 
HETATM    4  N2  UNL     1      27.125   2.449  51.143  1.00  0.00    -0.260 NA
HETATM    5  C9  UNL     1      26.777   1.748  52.255  1.00  0.00     0.071 A 
HETATM    6  C10 UNL     1      27.772   0.957  52.798  1.00  0.00     0.072 A 
HETATM    7  C11 UNL     1      27.496   0.221  53.922  1.00  0.00     0.103 A 
HETATM    8  C13 UNL     1      26.237   0.256  54.520  1.00  0.00     0.102 A 
HETATM    9  C15 UNL     1      25.270   1.058  53.950  1.00  0.00     0.055 A 
HETATM   10  C16 UNL     1      25.507   1.805  52.833  1.00  0.00     0.022 A 
ENDROOT
BRANCH   1  11
HETATM   11  N1  UNL     1      23.308   2.721  52.731  1.00  0.00    -0.354 N 
HETATM   12  H6  UNL     1      22.884   3.402  53.366  1.00  0.00     0.166 HD
BRANCH  11  13
HETATM   13  C5  UNL     1      22.175   1.886  52.543  1.00  0.00     0.052 A 
HETATM   14  C4  UNL     1      21.292   2.332  51.553  1.00  0.00     0.027 A 
HETATM   15  C3  UNL     1      20.153   1.608  51.263  1.00  0.00     0.060 A 
HETATM   16  C2  UNL     1      19.839   0.449  51.909  1.00  0.00     0.102 A 
HETATM   17  C18 UNL     1      20.709  -0.004  52.893  1.00  0.00     0.103 A 
HETATM   18  C17 UNL     1      21.847   0.713  53.190  1.00  0.00     0.070 A 
BRANCH  14  19
HETATM   19  S1  UNL     1      21.457   3.814  50.532  1.00  0.00    -0.141 SA
HETATM   20  H5  UNL     1      22.548   4.591  50.902  1.00  0.00     0.107 HD
ENDBRANCH  14  19
BRANCH  16  21
HETATM   21  O1  UNL     1      18.726  -0.355  51.698  1.00  0.00    -0.353 OA
HETATM   22  C1  UNL     1      17.750   0.103  50.781  1.00  0.00     0.210 C 
ENDBRANCH  16  21
BRANCH  17  23
HETATM   23  O4  UNL     1      20.466  -1.174  53.602  1.00  0.00    -0.353 OA
HETATM   24  C19 UNL     1      21.459  -1.642  54.478  1.00  0.00     0.210 C 
ENDBRANCH  17  23
ENDBRANCH  11  13
ENDBRANCH   1  11
BRANCH   8  25
HETATM   25  O3  UNL     1      26.007  -0.499  55.645  1.00  0.00    -0.353 OA
HETATM   26  C14 UNL     1      24.848  -1.265  55.777  1.00  0.00     0.210 C 
ENDBRANCH   8  25
BRANCH   7  27
HETATM   27  O2  UNL     1      28.461  -0.585  54.499  1.00  0.00    -0.353 OA
HETATM   28  C12 UNL     1      29.619  -0.962  53.772  1.00  0.00     0.210 C 
ENDBRANCH   7  27
TORSDOF 7
ENDMDL
MODEL 6
REMARK VINA RESULT:      -7.6      3.490      8.097
REMARK  7 active torsions:
REMARK  status: ('A' for Active; 'I' for Inactive)
REMARK    1  A    between atoms: O1_2  and  C2_3 
REMARK    2  A    between atoms: C4_5  and  S1_6 
REMARK    3  A    between atoms: C5_7  and  N1_8 
REMARK    4  A    between atoms: N1_8  and  C6_9 
REMARK    5  A    between atoms: C11_15  and  O2_16 
REMARK    6  A    between atoms: C13_18  and  O3_19 
REMARK    7  A    between atoms: C18_24  and  O4_25 
ROOT
HETATM    1  C6  UNL     1      25.493   2.374  51.179  1.00  0.00     0.046 A 
HETATM    2  C7  UNL     1      26.794   2.319  51.624  1.00  0.00     0.049 A 
HETATM    3  C8  UNL     1      27.166   1.450  52.637  1.00  0.00     0.119 A 
HETATM    4  N2  UNL     1      26.222   0.656  53.180  1.00  0.00    -0.260 NA
HETATM    5  C9  UNL     1      24.938   0.716  52.736  1.00  0.00     0.071 A 
HETATM    6  C10 UNL     1      24.050  -0.139  53.360  1.00  0.00     0.072 A 
HETATM    7  C11 UNL     1      22.736  -0.135  52.965  1.00  0.00     0.103 A 
HETATM    8  C13 UNL     1      22.286   0.710  51.951  1.00  0.00     0.102 A 
HETATM    9  C15 UNL     1      23.202   1.550  51.353  1.00  0.00     0.055 A 
HETATM   10  C16 UNL     1      24.517   1.575  51.718  1.00  0.00     0.022 A 
ENDROOT
BRANCH   1  11
HETATM   11  N1  UNL     1      25.132   3.256  50.144  1.00  0.00    -0.354 N 
HETATM   12  H6  UNL     1      24.422   3.185  49.411  1.00  0.00     0.166 HD
BRANCH  11  13
HETATM   13  C5  UNL     1      25.654   4.531  49.799  1.00  0.00     0.052 A 
HETATM   14  C4  UNL     1      24.983   5.606  50.393  1.00  0.00     0.027 A 
HETATM   15  C3  UNL     1      25.394   6.900  50.148  1.00  0.00     0.060 A 
HETATM   16  C2  UNL     1      26.450   7.192  49.336  1.00  0.00     0.102 A 
HETATM   17  C18 UNL     1      27.124   6.132  48.741  1.00  0.00     0.103 A 
HETATM   18  C17 UNL     1      26.720   4.837  48.979  1.00  0.00     0.070 A 
BRANCH  14  19
HETATM   19  S1  UNL     1      23.571   5.522  51.518  1.00  0.00    -0.141 SA
HETATM   20  H5  UNL     1      22.946   6.753  51.675  1.00  0.00     0.107 HD
ENDBRANCH  14  19
BRANCH  16  21
HETATM   21  O1  UNL     1      26.946   8.450  49.022  1.00  0.00    -0.353 OA
HETATM   22  C1  UNL     1      27.484   9.225  50.077  1.00  0.00     0.210 C 
ENDBRANCH  16  21
BRANCH  17  23
HETATM   23  O4  UNL     1      28.210   6.337  47.898  1.00  0.00    -0.353 OA
HETATM   24  C19 UNL     1      29.435   5.737  48.230  1.00  0.00     0.210 C 
ENDBRANCH  17  23
ENDBRANCH  11  13
ENDBRANCH   1  11
BRANCH   8  25
HETATM   25  O3  UNL     1      20.960   0.679  51.590  1.00  0.00    -0.353 OA
HETATM   26  C14 UNL     1      20.088   1.705  51.954  1.00  0.00     0.210 C 
ENDBRANCH   8  25
BRANCH   7  27
HETATM   27  O2  UNL     1      21.812  -0.975  53.562  1.00  0.00    -0.353 OA
HETATM   28  C12 UNL     1      22.062  -1.536  54.840  1.00  0.00     0.210 C 
ENDBRANCH   7  27
TORSDOF 7
ENDMDL
MODEL 7
REMARK VINA RESULT:      -7.4      2.394      3.063
REMARK  7 active torsions:
REMARK  status: ('A' for Active; 'I' for Inactive)
REMARK    1  A    between atoms: O1_2  and  C2_3 
REMARK    2  A    between atoms: C4_5  and  S1_6 
REMARK    3  A    between atoms: C5_7  and  N1_8 
REMARK    4  A    between atoms: N1_8  and  C6_9 
REMARK    5  A    between atoms: C11_15  and  O2_16 
REMARK    6  A    between atoms: C13_18  and  O3_19 
REMARK    7  A    between atoms: C18_24  and  O4_25 
ROOT
HETATM    1  C6  UNL     1      23.219  -0.505  53.570  1.00  0.00     0.046 A 
HETATM    2  C7  UNL     1      22.781  -1.179  54.687  1.00  0.00     0.049 A 
HETATM    3  C8  UNL     1      23.647  -1.473  55.728  1.00  0.00     0.119 A 
HETATM    4  N2  UNL     1      24.933  -1.084  55.622  1.00  0.00    -0.260 NA
HETATM    5  C9  UNL     1      25.358  -0.418  54.515  1.00  0.00     0.071 A 
HETATM    6  C10 UNL     1      26.694  -0.065  54.507  1.00  0.00     0.072 A 
HETATM    7  C11 UNL     1      27.196   0.609  53.422  1.00  0.00     0.103 A 
HETATM    8  C13 UNL     1      26.386   0.941  52.337  1.00  0.00     0.102 A 
HETATM    9  C15 UNL     1      25.059   0.571  52.381  1.00  0.00     0.055 A 
HETATM   10  C16 UNL     1      24.523  -0.100  53.442  1.00  0.00     0.022 A 
ENDROOT
BRANCH   1  11
HETATM   11  N1  UNL     1      22.325  -0.207  52.524  1.00  0.00    -0.354 N 
HETATM   12  H6  UNL     1      22.061  -0.735  51.689  1.00  0.00     0.166 HD
BRANCH  11  13
HETATM   13  C5  UNL     1      21.508   0.934  52.310  1.00  0.00     0.052 A 
HETATM   14  C4  UNL     1      20.145   0.717  52.547  1.00  0.00     0.027 A 
HETATM   15  C3  UNL     1      19.241   1.746  52.384  1.00  0.00     0.060 A 
HETATM   16  C2  UNL     1      19.619   2.998  51.995  1.00  0.00     0.102 A 
HETATM   17  C18 UNL     1      20.968   3.225  51.757  1.00  0.00     0.103 A 
HETATM   18  C17 UNL     1      21.878   2.202  51.916  1.00  0.00     0.070 A 
BRANCH  14  19
HETATM   19  S1  UNL     1      19.364  -0.822  53.084  1.00  0.00    -0.141 SA
HETATM   20  H5  UNL     1      18.229  -1.125  52.341  1.00  0.00     0.107 HD
ENDBRANCH  14  19
BRANCH  16  21
HETATM   21  O1  UNL     1      18.797   4.101  51.802  1.00  0.00    -0.353 OA
HETATM   22  C1  UNL     1      17.910   4.074  50.699  1.00  0.00     0.210 C 
ENDBRANCH  16  21
BRANCH  17  23
HETATM   23  O4  UNL     1      21.442   4.468  51.356  1.00  0.00    -0.353 OA
HETATM   24  C19 UNL     1      22.545   5.013  52.033  1.00  0.00     0.210 C 
ENDBRANCH  17  23
ENDBRANCH  11  13
ENDBRANCH   1  11
BRANCH   8  25
HETATM   25  O3  UNL     1      26.935   1.617  51.273  1.00  0.00    -0.353 OA
HETATM   26  C14 UNL     1      26.383   2.813  50.815  1.00  0.00     0.210 C 
ENDBRANCH   8  25
BRANCH   7  27
HETATM   27  O2  UNL     1      28.528   0.982  53.372  1.00  0.00    -0.353 OA
HETATM   28  C12 UNL     1      29.552   0.060  53.702  1.00  0.00     0.210 C 
ENDBRANCH   7  27
TORSDOF 7
ENDMDL
MODEL 8
REMARK VINA RESULT:      -7.3      1.576      7.451
REMARK  7 active torsions:
REMARK  status: ('A' for Active; 'I' for Inactive)
REMARK    1  A    between atoms: O1_2  and  C2_3 
REMARK    2  A    between atoms: C4_5  and  S1_6 
REMARK    3  A    between atoms: C5_7  and  N1_8 
REMARK    4  A    between atoms: N1_8  and  C6_9 
REMARK    5  A    between atoms: C11_15  and  O2_16 
REMARK    6  A    between atoms: C13_18  and  O3_19 
REMARK    7  A    between atoms: C18_24  and  O4_25 
ROOT
HETATM    1  C6  UNL     1      22.524   0.693  53.184  1.00  0.00     0.046 A 
HETATM    2  C7  UNL     1      23.516   0.129  53.953  1.00  0.00     0.049 A 
HETATM    3  C8  UNL     1      23.275  -1.006  54.711  1.00  0.00     0.119 A 
HETATM    4  N2  UNL     1      22.042  -1.548  54.678  1.00  0.00    -0.260 NA
HETATM    5  C9  UNL     1      21.065  -0.985  53.916  1.00  0.00     0.071 A 
HETATM    6  C10 UNL     1      19.838  -1.619  53.955  1.00  0.00     0.072 A 
HETATM    7  C11 UNL     1      18.804  -1.108  53.212  1.00  0.00     0.103 A 
HETATM    8  C13 UNL     1      18.970   0.030  52.424  1.00  0.00     0.102 A 
HETATM    9  C15 UNL     1      20.209   0.635  52.412  1.00  0.00     0.055 A 
HETATM   10  C16 UNL     1      21.262   0.157  53.138  1.00  0.00     0.022 A 
ENDROOT
BRANCH   1  11
HETATM   11  N1  UNL     1      22.787   1.842  52.415  1.00  0.00    -0.354 N 
HETATM   12  H6  UNL     1      22.209   2.658  52.199  1.00  0.00     0.166 HD
BRANCH  11  13
HETATM   13  C5  UNL     1      23.951   2.220  51.694  1.00  0.00     0.052 A 
HETATM   14  C4  UNL     1      23.699   2.666  50.392  1.00  0.00     0.027 A 
HETATM   15  C3  UNL     1      24.742   3.072  49.585  1.00  0.00     0.060 A 
HETATM   16  C2  UNL     1      26.039   3.061  50.005  1.00  0.00     0.102 A 
HETATM   17  C18 UNL     1      26.301   2.620  51.296  1.00  0.00     0.103 A 
HETATM   18  C17 UNL     1      25.265   2.212  52.109  1.00  0.00     0.070 A 
BRANCH  14  19
HETATM   19  S1  UNL     1      22.091   2.803  49.578  1.00  0.00    -0.141 SA
HETATM   20  H5  UNL     1      21.267   1.718  49.851  1.00  0.00     0.107 HD
ENDBRANCH  14  19
BRANCH  16  21
HETATM   21  O1  UNL     1      27.160   3.446  49.281  1.00  0.00    -0.353 OA
HETATM   22  C1  UNL     1      27.256   4.804  48.892  1.00  0.00     0.210 C 
ENDBRANCH  16  21
BRANCH  17  23
HETATM   23  O4  UNL     1      27.593   2.574  51.806  1.00  0.00    -0.353 OA
HETATM   24  C19 UNL     1      27.771   2.168  53.138  1.00  0.00     0.210 C 
ENDBRANCH  17  23
ENDBRANCH  11  13
ENDBRANCH   1  11
BRANCH   8  25
HETATM   25  O3  UNL     1      17.904   0.505  51.697  1.00  0.00    -0.353 OA
HETATM   26  C14 UNL     1      17.849   0.349  50.312  1.00  0.00     0.210 C 
ENDBRANCH   8  25
BRANCH   7  27
HETATM   27  O2  UNL     1      17.558  -1.710  53.220  1.00  0.00    -0.353 OA
HETATM   28  C12 UNL     1      17.421  -3.089  53.525  1.00  0.00     0.210 C 
ENDBRANCH   7  27
TORSDOF 7
ENDMDL
MODEL 9
REMARK VINA RESULT:      -7.2      2.161      3.842
REMARK  7 active torsions:
REMARK  status: ('A' for Active; 'I' for Inactive)
REMARK    1  A    between atoms: O1_2  and  C2_3 
REMARK    2  A    between atoms: C4_5  and  S1_6 
REMARK    3  A    between atoms: C5_7  and  N1_8 
REMARK    4  A    between atoms: N1_8  and  C6_9 
REMARK    5  A    between atoms: C11_15  and  O2_16 
REMARK    6  A    between atoms: C13_18  and  O3_19 
REMARK    7  A    between atoms: C18_24  and  O4_25 
ROOT
HETATM    1  C6  UNL     1      24.012   2.103  51.914  1.00  0.00     0.046 A 
HETATM    2  C7  UNL     1      24.331   2.961  50.886  1.00  0.00     0.049 A 
HETATM    3  C8  UNL     1      25.625   3.038  50.396  1.00  0.00     0.119 A 
HETATM    4  N2  UNL     1      26.568   2.251  50.951  1.00  0.00    -0.260 NA
HETATM    5  C9  UNL     1      26.246   1.406  51.967  1.00  0.00     0.071 A 
HETATM    6  C10 UNL     1      27.287   0.645  52.464  1.00  0.00     0.072 A 
HETATM    7  C11 UNL     1      27.038  -0.230  53.490  1.00  0.00     0.103 A 
HETATM    8  C13 UNL     1      25.761  -0.364  54.035  1.00  0.00     0.102 A 
HETATM    9  C15 UNL     1      24.748   0.412  53.513  1.00  0.00     0.055 A 
HETATM   10  C16 UNL     1      24.957   1.295  52.492  1.00  0.00     0.022 A 
ENDROOT
BRANCH   1  11
HETATM   11  N1  UNL     1      22.691   2.031  52.396  1.00  0.00    -0.354 N 
HETATM   12  H6  UNL     1      22.291   2.259  53.309  1.00  0.00     0.166 HD
BRANCH  11  13
HETATM   13  C5  UNL     1      21.498   1.613  51.749  1.00  0.00     0.052 A 
HETATM   14  C4  UNL     1      20.727   0.713  52.495  1.00  0.00     0.027 A 
HETATM   15  C3  UNL     1      19.537   0.234  51.987  1.00  0.00     0.060 A 
HETATM   16  C2  UNL     1      19.062   0.603  50.763  1.00  0.00     0.102 A 
HETATM   17  C18 UNL     1      19.819   1.496  50.014  1.00  0.00     0.103 A 
HETATM   18  C17 UNL     1      21.009   1.979  50.514  1.00  0.00     0.070 A 
BRANCH  14  19
HETATM   19  S1  UNL     1      21.096   0.065  54.141  1.00  0.00    -0.141 SA
HETATM   20  H5  UNL     1      20.850  -1.300  54.238  1.00  0.00     0.107 HD
ENDBRANCH  14  19
BRANCH  16  21
HETATM   21  O1  UNL     1      17.884   0.185  50.158  1.00  0.00    -0.353 OA
HETATM   22  C1  UNL     1      16.745   0.021  50.982  1.00  0.00     0.210 C 
ENDBRANCH  16  21
BRANCH  17  23
HETATM   23  O4  UNL     1      19.412   1.926  48.757  1.00  0.00    -0.353 OA
HETATM   24  C19 UNL     1      20.272   2.760  48.026  1.00  0.00     0.210 C 
ENDBRANCH  17  23
ENDBRANCH  11  13
ENDBRANCH   1  11
BRANCH   8  25
HETATM   25  O3  UNL     1      25.560  -1.255  55.063  1.00  0.00    -0.353 OA
HETATM   26  C14 UNL     1      24.325  -1.352  55.703  1.00  0.00     0.210 C 
ENDBRANCH   8  25
BRANCH   7  27
HETATM   27  O2  UNL     1      28.050  -1.012  54.019  1.00  0.00    -0.353 OA
HETATM   28  C12 UNL     1      29.402  -0.593  53.946  1.00  0.00     0.210 C 
ENDBRANCH   7  27
TORSDOF 7
ENDMDL
