MODEL 1
REMARK VINA RESULT:      -7.6      0.000      0.000
REMARK  6 active torsions:
REMARK  status: ('A' for Active; 'I' for Inactive)
REMARK    1  A    between atoms: O1_2  and  C2_3 
REMARK    2  A    between atoms: C2_3  and  C3_4 
REMARK    3  A    between atoms: C4_5  and  C5_6 
REMARK       I    between atoms: C5_6  and  N1_8 
REMARK    4  A    between atoms: N1_8  and  C6_9 
REMARK    5  A    between atoms: N4_19  and  C14_20 
REMARK    6  A    between atoms: C20_27  and  O3_28 
ROOT
HETATM    1  C6  UNL     1      21.118   0.712  51.428  1.00  0.00     0.048 A 
HETATM    2  C7  UNL     1      21.553   1.677  50.599  1.00  0.00     0.030 A 
HETATM    3  C8  UNL     1      22.905   2.195  50.662  1.00  0.00     0.034 A 
HETATM    4  C9  UNL     1      23.781   1.737  51.544  1.00  0.00     0.068 A 
HETATM    5  C10 UNL     1      23.327   0.689  52.451  1.00  0.00     0.096 A 
HETATM    6  N2  UNL     1      24.156   0.205  53.339  1.00  0.00    -0.257 NA
HETATM    7  C11 UNL     1      25.501   0.680  53.444  1.00  0.00     0.158 A 
HETATM    8  C12 UNL     1      26.000   1.627  52.663  1.00  0.00     0.139 A 
HETATM    9  C13 UNL     1      27.356   2.103  52.772  1.00  0.00     0.119 C 
HETATM   10  N3  UNL     1      28.448   2.472  52.872  1.00  0.00    -0.190 NA
HETATM   11  N4  UNL     1      25.125   2.193  51.667  1.00  0.00    -0.300 N 
HETATM   12  C20 UNL     1      21.945   0.094  52.458  1.00  0.00     0.224 A 
ENDROOT
BRANCH  11  13
HETATM   13  C14 UNL     1      25.572   3.212  50.787  1.00  0.00     0.042 A 
HETATM   14  C15 UNL     1      26.520   2.974  49.810  1.00  0.00     0.030 A 
HETATM   15  C16 UNL     1      26.884   4.035  49.008  1.00  0.00     0.004 A 
HETATM   16  C17 UNL     1      26.357   5.311  49.129  1.00  0.00     0.019 A 
HETATM   17  C18 UNL     1      25.416   5.467  50.127  1.00  0.00     0.013 A 
HETATM   18 BR1  UNL     1      24.637   7.208  50.360  1.00  0.00    -0.051 Br
HETATM   19  C19 UNL     1      24.988   4.463  50.981  1.00  0.00     0.049 A 
ENDBRANCH  11  13
BRANCH  12  20
HETATM   20  O3  UNL     1      21.474   0.151  53.742  1.00  0.00    -0.378 OA
HETATM   21  C21 UNL     1      21.107  -1.079  54.266  1.00  0.00     0.203 C 
ENDBRANCH  12  20
BRANCH   1  22
HETATM   22  N1  UNL     1      19.784   0.222  51.346  1.00  0.00    -0.317 N 
HETATM   23  C5  UNL     1      18.492   0.807  51.474  1.00  0.00     0.300 C 
HETATM   24  O2  UNL     1      18.285   2.024  51.717  1.00  0.00    -0.258 OA
HETATM   25  H6  UNL     1      19.892  -0.816  51.140  1.00  0.00     0.169 HD
BRANCH  23  26
HETATM   26  C4  UNL     1      17.369  -0.075  51.312  1.00  0.00    -0.003 C 
HETATM   27  C3  UNL     1      16.425  -0.824  51.192  1.00  0.00    -0.070 C 
BRANCH  27  28
HETATM   28  C2  UNL     1      15.266  -1.727  51.068  1.00  0.00     0.261 C 
BRANCH  28  29
HETATM   29  O1  UNL     1      15.384  -2.679  52.053  1.00  0.00    -0.384 OA
HETATM   30  C1  UNL     1      14.590  -3.793  51.758  1.00  0.00     0.202 C 
ENDBRANCH  28  29
ENDBRANCH  27  28
ENDBRANCH  23  26
ENDBRANCH   1  22
TORSDOF 6
ENDMDL
MODEL 2
REMARK VINA RESULT:      -7.5      6.243     11.281
REMARK  6 active torsions:
REMARK  status: ('A' for Active; 'I' for Inactive)
REMARK    1  A    between atoms: O1_2  and  C2_3 
REMARK    2  A    between atoms: C2_3  and  C3_4 
REMARK    3  A    between atoms: C4_5  and  C5_6 
REMARK       I    between atoms: C5_6  and  N1_8 
REMARK    4  A    between atoms: N1_8  and  C6_9 
REMARK    5  A    between atoms: N4_19  and  C14_20 
REMARK    6  A    between atoms: C20_27  and  O3_28 
ROOT
HETATM    1  C6  UNL     1      28.352   5.819  48.262  1.00  0.00     0.048 A 
HETATM    2  C7  UNL     1      27.775   4.684  48.692  1.00  0.00     0.030 A 
HETATM    3  C8  UNL     1      26.444   4.665  49.265  1.00  0.00     0.034 A 
HETATM    4  C9  UNL     1      25.729   5.774  49.390  1.00  0.00     0.068 A 
HETATM    5  C10 UNL     1      26.340   7.015  48.928  1.00  0.00     0.096 A 
HETATM    6  N2  UNL     1      25.673   8.135  49.031  1.00  0.00    -0.257 NA
HETATM    7  C11 UNL     1      24.356   8.174  49.589  1.00  0.00     0.158 A 
HETATM    8  C12 UNL     1      23.723   7.098  50.033  1.00  0.00     0.139 A 
HETATM    9  C13 UNL     1      22.396   7.141  50.594  1.00  0.00     0.119 C 
HETATM   10  N3  UNL     1      21.331   7.194  51.040  1.00  0.00    -0.190 NA
HETATM   11  N4  UNL     1      24.417   5.837  49.941  1.00  0.00    -0.300 N 
HETATM   12  C20 UNL     1      27.712   7.128  48.323  1.00  0.00     0.224 A 
ENDROOT
BRANCH  11  13
HETATM   13  C14 UNL     1      23.819   4.633  50.392  1.00  0.00     0.042 A 
HETATM   14  C15 UNL     1      23.860   4.246  51.719  1.00  0.00     0.030 A 
HETATM   15  C16 UNL     1      23.247   3.056  52.051  1.00  0.00     0.004 A 
HETATM   16  C17 UNL     1      22.600   2.239  51.138  1.00  0.00     0.019 A 
HETATM   17  C18 UNL     1      22.603   2.695  49.834  1.00  0.00     0.013 A 
HETATM   18 BR1  UNL     1      21.727   1.618  48.506  1.00  0.00    -0.051 Br
HETATM   19  C19 UNL     1      23.192   3.874  49.406  1.00  0.00     0.049 A 
ENDBRANCH  11  13
BRANCH  12  20
HETATM   20  O3  UNL     1      28.385   8.110  48.998  1.00  0.00    -0.378 OA
HETATM   21  C21 UNL     1      28.915   9.098  48.180  1.00  0.00     0.203 C 
ENDBRANCH  12  20
BRANCH   1  22
HETATM   22  N1  UNL     1      29.662   5.808  47.704  1.00  0.00    -0.317 N 
HETATM   23  C5  UNL     1      30.975   5.647  48.232  1.00  0.00     0.300 C 
HETATM   24  O2  UNL     1      31.232   5.462  49.449  1.00  0.00    -0.258 OA
HETATM   25  H6  UNL     1      29.510   5.962  46.662  1.00  0.00     0.169 HD
BRANCH  23  26
HETATM   26  C4  UNL     1      32.057   5.705  47.288  1.00  0.00    -0.003 C 
HETATM   27  C3  UNL     1      32.960   5.744  46.483  1.00  0.00    -0.070 C 
BRANCH  27  28
HETATM   28  C2  UNL     1      34.043   5.796  45.482  1.00  0.00     0.261 C 
BRANCH  28  29
HETATM   29  O1  UNL     1      34.140   4.545  44.921  1.00  0.00    -0.384 OA
HETATM   30  C1  UNL     1      35.068   3.763  45.619  1.00  0.00     0.202 C 
ENDBRANCH  28  29
ENDBRANCH  27  28
ENDBRANCH  23  26
ENDBRANCH   1  22
TORSDOF 6
ENDMDL
MODEL 3
REMARK VINA RESULT:      -7.4      4.408      6.726
REMARK  6 active torsions:
REMARK  status: ('A' for Active; 'I' for Inactive)
REMARK    1  A    between atoms: O1_2  and  C2_3 
REMARK    2  A    between atoms: C2_3  and  C3_4 
REMARK    3  A    between atoms: C4_5  and  C5_6 
REMARK       I    between atoms: C5_6  and  N1_8 
REMARK    4  A    between atoms: N1_8  and  C6_9 
REMARK    5  A    between atoms: N4_19  and  C14_20 
REMARK    6  A    between atoms: C20_27  and  O3_28 
ROOT
HETATM    1  C6  UNL     1      23.857   3.266  49.587  1.00  0.00     0.048 A 
HETATM    2  C7  UNL     1      25.159   3.262  49.923  1.00  0.00     0.030 A 
HETATM    3  C8  UNL     1      25.669   2.471  51.024  1.00  0.00     0.034 A 
HETATM    4  C9  UNL     1      24.869   1.707  51.755  1.00  0.00     0.068 A 
HETATM    5  C10 UNL     1      23.454   1.698  51.404  1.00  0.00     0.096 A 
HETATM    6  N2  UNL     1      22.626   0.959  52.097  1.00  0.00    -0.257 NA
HETATM    7  C11 UNL     1      23.076   0.159  53.193  1.00  0.00     0.158 A 
HETATM    8  C12 UNL     1      24.341   0.104  53.583  1.00  0.00     0.139 A 
HETATM    9  C13 UNL     1      24.790  -0.704  54.689  1.00  0.00     0.119 C 
HETATM   10  N3  UNL     1      25.133  -1.359  55.578  1.00  0.00    -0.190 NA
HETATM   11  N4  UNL     1      25.293   0.901  52.850  1.00  0.00    -0.300 N 
HETATM   12  C20 UNL     1      22.838   2.486  50.281  1.00  0.00     0.224 A 
ENDROOT
BRANCH  11  13
HETATM   13  C14 UNL     1      26.669   0.907  53.196  1.00  0.00     0.042 A 
HETATM   14  C15 UNL     1      27.312   2.052  53.624  1.00  0.00     0.030 A 
HETATM   15  C16 UNL     1      28.653   1.948  53.935  1.00  0.00     0.004 A 
HETATM   16  C17 UNL     1      29.377   0.771  53.841  1.00  0.00     0.019 A 
HETATM   17  C18 UNL     1      28.663  -0.328  53.407  1.00  0.00     0.013 A 
HETATM   18 BR1  UNL     1      29.596  -1.999  53.250  1.00  0.00    -0.051 Br
HETATM   19  C19 UNL     1      27.318  -0.320  53.071  1.00  0.00     0.049 A 
ENDBRANCH  11  13
BRANCH  12  20
HETATM   20  O3  UNL     1      21.776   3.181  50.792  1.00  0.00    -0.378 OA
HETATM   21  C21 UNL     1      22.129   4.163  51.706  1.00  0.00     0.203 C 
ENDBRANCH  12  20
BRANCH   1  22
HETATM   22  N1  UNL     1      23.383   4.054  48.500  1.00  0.00    -0.317 N 
HETATM   23  C5  UNL     1      23.158   5.445  48.294  1.00  0.00     0.300 C 
HETATM   24  O2  UNL     1      23.370   6.333  49.160  1.00  0.00    -0.258 OA
HETATM   25  H6  UNL     1      23.184   3.351  47.726  1.00  0.00     0.169 HD
BRANCH  23  26
HETATM   26  C4  UNL     1      22.656   5.830  47.004  1.00  0.00    -0.003 C 
HETATM   27  C3  UNL     1      22.221   6.165  45.925  1.00  0.00    -0.070 C 
BRANCH  27  28
HETATM   28  C2  UNL     1      21.692   6.598  44.618  1.00  0.00     0.261 C 
BRANCH  28  29
HETATM   29  O1  UNL     1      21.364   5.463  43.916  1.00  0.00    -0.384 OA
HETATM   30  C1  UNL     1      20.110   4.984  44.313  1.00  0.00     0.202 C 
ENDBRANCH  28  29
ENDBRANCH  27  28
ENDBRANCH  23  26
ENDBRANCH   1  22
TORSDOF 6
ENDMDL
MODEL 4
REMARK VINA RESULT:      -7.4      5.322     10.579
REMARK  6 active torsions:
REMARK  status: ('A' for Active; 'I' for Inactive)
REMARK    1  A    between atoms: O1_2  and  C2_3 
REMARK    2  A    between atoms: C2_3  and  C3_4 
REMARK    3  A    between atoms: C4_5  and  C5_6 
REMARK       I    between atoms: C5_6  and  N1_8 
REMARK    4  A    between atoms: N1_8  and  C6_9 
REMARK    5  A    between atoms: N4_19  and  C14_20 
REMARK    6  A    between atoms: C20_27  and  O3_28 
ROOT
HETATM    1  C6  UNL     1      26.950   5.248  49.159  1.00  0.00     0.048 A 
HETATM    2  C7  UNL     1      26.521   3.985  49.327  1.00  0.00     0.030 A 
HETATM    3  C8  UNL     1      25.124   3.667  49.542  1.00  0.00     0.034 A 
HETATM    4  C9  UNL     1      24.198   4.614  49.582  1.00  0.00     0.068 A 
HETATM    5  C10 UNL     1      24.645   5.991  49.401  1.00  0.00     0.096 A 
HETATM    6  N2  UNL     1      23.767   6.960  49.432  1.00  0.00    -0.257 NA
HETATM    7  C11 UNL     1      22.376   6.702  49.641  1.00  0.00     0.158 A 
HETATM    8  C12 UNL     1      21.879   5.486  49.813  1.00  0.00     0.139 A 
HETATM    9  C13 UNL     1      20.476   5.231  50.023  1.00  0.00     0.119 C 
HETATM   10  N3  UNL     1      19.347   5.045  50.189  1.00  0.00    -0.190 NA
HETATM   11  N4  UNL     1      22.807   4.383  49.787  1.00  0.00    -0.300 N 
HETATM   12  C20 UNL     1      26.071   6.412  49.174  1.00  0.00     0.224 A 
ENDROOT
BRANCH  11  13
HETATM   13  C14 UNL     1      22.367   3.046  49.964  1.00  0.00     0.042 A 
HETATM   14  C15 UNL     1      21.936   2.270  48.904  1.00  0.00     0.030 A 
HETATM   15  C16 UNL     1      21.528   0.983  49.187  1.00  0.00     0.004 A 
HETATM   16  C17 UNL     1      21.529   0.434  50.459  1.00  0.00     0.019 A 
HETATM   17  C18 UNL     1      21.974   1.272  51.461  1.00  0.00     0.013 A 
HETATM   18 BR1  UNL     1      22.005   0.586  53.255  1.00  0.00    -0.051 Br
HETATM   19  C19 UNL     1      22.402   2.578  51.276  1.00  0.00     0.049 A 
ENDBRANCH  11  13
BRANCH  12  20
HETATM   20  O3  UNL     1      26.365   7.393  50.081  1.00  0.00    -0.378 OA
HETATM   21  C21 UNL     1      26.644   8.626  49.511  1.00  0.00     0.203 C 
ENDBRANCH  12  20
BRANCH   1  22
HETATM   22  N1  UNL     1      28.329   5.531  48.950  1.00  0.00    -0.317 N 
HETATM   23  C5  UNL     1      29.060   6.316  48.012  1.00  0.00     0.300 C 
HETATM   24  O2  UNL     1      28.535   6.981  47.083  1.00  0.00    -0.258 OA
HETATM   25  H6  UNL     1      28.833   4.991  49.715  1.00  0.00     0.169 HD
BRANCH  23  26
HETATM   26  C4  UNL     1      30.489   6.329  48.162  1.00  0.00    -0.003 C 
HETATM   27  C3  UNL     1      31.692   6.353  48.300  1.00  0.00    -0.070 C 
BRANCH  27  28
HETATM   28  C2  UNL     1      33.154   6.382  48.494  1.00  0.00     0.261 C 
BRANCH  28  29
HETATM   29  O1  UNL     1      33.628   5.125  48.207  1.00  0.00    -0.384 OA
HETATM   30  C1  UNL     1      34.970   5.007  48.586  1.00  0.00     0.202 C 
ENDBRANCH  28  29
ENDBRANCH  27  28
ENDBRANCH  23  26
ENDBRANCH   1  22
TORSDOF 6
ENDMDL
MODEL 5
REMARK VINA RESULT:      -7.2      4.315      7.489
REMARK  6 active torsions:
REMARK  status: ('A' for Active; 'I' for Inactive)
REMARK    1  A    between atoms: O1_2  and  C2_3 
REMARK    2  A    between atoms: C2_3  and  C3_4 
REMARK    3  A    between atoms: C4_5  and  C5_6 
REMARK       I    between atoms: C5_6  and  N1_8 
REMARK    4  A    between atoms: N1_8  and  C6_9 
REMARK    5  A    between atoms: N4_19  and  C14_20 
REMARK    6  A    between atoms: C20_27  and  O3_28 
ROOT
HETATM    1  C6  UNL     1      25.755   2.897  51.389  1.00  0.00     0.048 A 
HETATM    2  C7  UNL     1      26.097   3.560  50.270  1.00  0.00     0.030 A 
HETATM    3  C8  UNL     1      25.280   4.627  49.727  1.00  0.00     0.034 A 
HETATM    4  C9  UNL     1      24.152   5.001  50.313  1.00  0.00     0.068 A 
HETATM    5  C10 UNL     1      23.766   4.293  51.529  1.00  0.00     0.096 A 
HETATM    6  N2  UNL     1      22.661   4.628  52.143  1.00  0.00    -0.257 NA
HETATM    7  C11 UNL     1      21.819   5.673  51.650  1.00  0.00     0.158 A 
HETATM    8  C12 UNL     1      22.089   6.370  50.556  1.00  0.00     0.139 A 
HETATM    9  C13 UNL     1      21.236   7.423  50.062  1.00  0.00     0.119 C 
HETATM   10  N3  UNL     1      20.542   8.265  49.682  1.00  0.00    -0.190 NA
HETATM   11  N4  UNL     1      23.297   6.039  49.843  1.00  0.00    -0.300 N 
HETATM   12  C20 UNL     1      24.550   3.177  52.162  1.00  0.00     0.224 A 
ENDROOT
BRANCH  11  13
HETATM   13  C14 UNL     1      23.667   6.730  48.661  1.00  0.00     0.042 A 
HETATM   14  C15 UNL     1      23.151   6.395  47.423  1.00  0.00     0.030 A 
HETATM   15  C16 UNL     1      23.578   7.132  46.338  1.00  0.00     0.004 A 
HETATM   16  C17 UNL     1      24.485   8.176  46.421  1.00  0.00     0.019 A 
HETATM   17  C18 UNL     1      24.954   8.448  47.691  1.00  0.00     0.013 A 
HETATM   18 BR1  UNL     1      26.216   9.882  47.893  1.00  0.00    -0.051 Br
HETATM   19  C19 UNL     1      24.584   7.764  48.839  1.00  0.00     0.049 A 
ENDBRANCH  11  13
BRANCH  12  20
HETATM   20  O3  UNL     1      23.693   2.129  52.364  1.00  0.00    -0.378 OA
HETATM   21  C21 UNL     1      23.283   1.500  51.198  1.00  0.00     0.203 C 
ENDBRANCH  12  20
BRANCH   1  22
HETATM   22  N1  UNL     1      26.576   1.853  51.900  1.00  0.00    -0.317 N 
HETATM   23  C5  UNL     1      27.389   1.693  53.059  1.00  0.00     0.300 C 
HETATM   24  O2  UNL     1      27.537   2.572  53.948  1.00  0.00    -0.258 OA
HETATM   25  H6  UNL     1      26.492   1.070  51.185  1.00  0.00     0.169 HD
BRANCH  23  26
HETATM   26  C4  UNL     1      28.072   0.437  53.196  1.00  0.00    -0.003 C 
HETATM   27  C3  UNL     1      28.659  -0.617  53.299  1.00  0.00    -0.070 C 
BRANCH  27  28
HETATM   28  C2  UNL     1      29.396  -1.889  53.424  1.00  0.00     0.261 C 
BRANCH  28  29
HETATM   29  O1  UNL     1      28.485  -2.905  53.265  1.00  0.00    -0.384 OA
HETATM   30  C1  UNL     1      27.364  -2.455  52.558  1.00  0.00     0.202 C 
ENDBRANCH  28  29
ENDBRANCH  27  28
ENDBRANCH  23  26
ENDBRANCH   1  22
TORSDOF 6
ENDMDL
MODEL 6
REMARK VINA RESULT:      -7.1      4.794      7.716
REMARK  6 active torsions:
REMARK  status: ('A' for Active; 'I' for Inactive)
REMARK    1  A    between atoms: O1_2  and  C2_3 
REMARK    2  A    between atoms: C2_3  and  C3_4 
REMARK    3  A    between atoms: C4_5  and  C5_6 
REMARK       I    between atoms: C5_6  and  N1_8 
REMARK    4  A    between atoms: N1_8  and  C6_9 
REMARK    5  A    between atoms: N4_19  and  C14_20 
REMARK    6  A    between atoms: C20_27  and  O3_28 
ROOT
HETATM    1  C6  UNL     1      25.691   5.094  49.685  1.00  0.00     0.048 A 
HETATM    2  C7  UNL     1      26.777   4.846  48.932  1.00  0.00     0.030 A 
HETATM    3  C8  UNL     1      27.668   5.902  48.494  1.00  0.00     0.034 A 
HETATM    4  C9  UNL     1      27.452   7.169  48.820  1.00  0.00     0.068 A 
HETATM    5  C10 UNL     1      26.279   7.455  49.638  1.00  0.00     0.096 A 
HETATM    6  N2  UNL     1      26.025   8.690  49.985  1.00  0.00    -0.257 NA
HETATM    7  C11 UNL     1      26.871   9.770  49.580  1.00  0.00     0.158 A 
HETATM    8  C12 UNL     1      27.956   9.605  48.838  1.00  0.00     0.139 A 
HETATM    9  C13 UNL     1      28.806  10.696  48.432  1.00  0.00     0.119 C 
HETATM   10  N3  UNL     1      29.478  11.583  48.117  1.00  0.00    -0.190 NA
HETATM   11  N4  UNL     1      28.279   8.260  48.430  1.00  0.00    -0.300 N 
HETATM   12  C20 UNL     1      25.302   6.425  50.136  1.00  0.00     0.224 A 
ENDROOT
BRANCH  11  13
HETATM   13  C14 UNL     1      29.422   7.987  47.634  1.00  0.00     0.042 A 
HETATM   14  C15 UNL     1      29.383   8.040  46.253  1.00  0.00     0.030 A 
HETATM   15  C16 UNL     1      30.550   7.756  45.575  1.00  0.00     0.004 A 
HETATM   16  C17 UNL     1      31.743   7.426  46.196  1.00  0.00     0.019 A 
HETATM   17  C18 UNL     1      31.700   7.395  47.576  1.00  0.00     0.013 A 
HETATM   18 BR1  UNL     1      33.315   6.944  48.514  1.00  0.00    -0.051 Br
HETATM   19  C19 UNL     1      30.576   7.663  48.343  1.00  0.00     0.049 A 
ENDBRANCH  11  13
BRANCH  12  20
HETATM   20  O3  UNL     1      24.045   6.846  49.797  1.00  0.00    -0.378 OA
HETATM   21  C21 UNL     1      23.167   6.927  50.868  1.00  0.00     0.203 C 
ENDBRANCH  12  20
BRANCH   1  22
HETATM   22  N1  UNL     1      24.833   4.037  50.101  1.00  0.00    -0.317 N 
HETATM   23  C5  UNL     1      24.975   2.909  50.959  1.00  0.00     0.300 C 
HETATM   24  O2  UNL     1      26.031   2.618  51.578  1.00  0.00    -0.258 OA
HETATM   25  H6  UNL     1      23.912   4.229  49.605  1.00  0.00     0.169 HD
BRANCH  23  26
HETATM   26  C4  UNL     1      23.821   2.066  51.108  1.00  0.00    -0.003 C 
HETATM   27  C3  UNL     1      22.857   1.347  51.247  1.00  0.00    -0.070 C 
BRANCH  27  28
HETATM   28  C2  UNL     1      21.684   0.474  51.441  1.00  0.00     0.261 C 
BRANCH  28  29
HETATM   29  O1  UNL     1      21.591   0.210  52.786  1.00  0.00    -0.384 OA
HETATM   30  C1  UNL     1      22.431  -0.853  53.138  1.00  0.00     0.202 C 
ENDBRANCH  28  29
ENDBRANCH  27  28
ENDBRANCH  23  26
ENDBRANCH   1  22
TORSDOF 6
ENDMDL
MODEL 7
REMARK VINA RESULT:      -7.1      6.716     10.158
REMARK  6 active torsions:
REMARK  status: ('A' for Active; 'I' for Inactive)
REMARK    1  A    between atoms: O1_2  and  C2_3 
REMARK    2  A    between atoms: C2_3  and  C3_4 
REMARK    3  A    between atoms: C4_5  and  C5_6 
REMARK       I    between atoms: C5_6  and  N1_8 
REMARK    4  A    between atoms: N1_8  and  C6_9 
REMARK    5  A    between atoms: N4_19  and  C14_20 
REMARK    6  A    between atoms: C20_27  and  O3_28 
ROOT
HETATM    1  C6  UNL     1      28.091   6.385  48.458  1.00  0.00     0.048 A 
HETATM    2  C7  UNL     1      28.948   5.417  48.092  1.00  0.00     0.030 A 
HETATM    3  C8  UNL     1      30.341   5.689  47.801  1.00  0.00     0.034 A 
HETATM    4  C9  UNL     1      30.838   6.915  47.885  1.00  0.00     0.068 A 
HETATM    5  C10 UNL     1      29.923   7.979  48.282  1.00  0.00     0.096 A 
HETATM    6  N2  UNL     1      30.368   9.205  48.380  1.00  0.00    -0.257 NA
HETATM    7  C11 UNL     1      31.733   9.529  48.104  1.00  0.00     0.158 A 
HETATM    8  C12 UNL     1      32.635   8.629  47.738  1.00  0.00     0.139 A 
HETATM    9  C13 UNL     1      34.010   8.960  47.461  1.00  0.00     0.119 C 
HETATM   10  N3  UNL     1      35.110   9.244  47.244  1.00  0.00    -0.190 NA
HETATM   11  N4  UNL     1      32.193   7.262  47.617  1.00  0.00    -0.300 N 
HETATM   12  C20 UNL     1      28.465   7.788  48.602  1.00  0.00     0.224 A 
ENDROOT
BRANCH  11  13
HETATM   13  C14 UNL     1      33.087   6.231  47.229  1.00  0.00     0.042 A 
HETATM   14  C15 UNL     1      33.794   5.488  48.155  1.00  0.00     0.030 A 
HETATM   15  C16 UNL     1      34.638   4.510  47.672  1.00  0.00     0.004 A 
HETATM   16  C17 UNL     1      34.811   4.236  46.325  1.00  0.00     0.019 A 
HETATM   17  C18 UNL     1      34.069   5.021  45.464  1.00  0.00     0.013 A 
HETATM   18 BR1  UNL     1      34.253   4.704  43.579  1.00  0.00    -0.051 Br
HETATM   19  C19 UNL     1      33.199   6.026  45.856  1.00  0.00     0.049 A 
ENDBRANCH  11  13
BRANCH  12  20
HETATM   20  O3  UNL     1      27.755   8.693  47.861  1.00  0.00    -0.378 OA
HETATM   21  C21 UNL     1      26.956   9.539  48.615  1.00  0.00     0.203 C 
ENDBRANCH  12  20
BRANCH   1  22
HETATM   22  N1  UNL     1      26.727   6.090  48.738  1.00  0.00    -0.317 N 
HETATM   23  C5  UNL     1      26.032   4.955  49.247  1.00  0.00     0.300 C 
HETATM   24  O2  UNL     1      26.585   3.875  49.580  1.00  0.00    -0.258 OA
HETATM   25  H6  UNL     1      26.201   6.976  48.474  1.00  0.00     0.169 HD
BRANCH  23  26
HETATM   26  C4  UNL     1      24.606   5.082  49.377  1.00  0.00    -0.003 C 
HETATM   27  C3  UNL     1      23.405   5.173  49.497  1.00  0.00    -0.070 C 
BRANCH  27  28
HETATM   28  C2  UNL     1      21.944   5.281  49.668  1.00  0.00     0.261 C 
BRANCH  28  29
HETATM   29  O1  UNL     1      21.715   5.698  50.958  1.00  0.00    -0.384 OA
HETATM   30  C1  UNL     1      21.723   4.607  51.836  1.00  0.00     0.202 C 
ENDBRANCH  28  29
ENDBRANCH  27  28
ENDBRANCH  23  26
ENDBRANCH   1  22
TORSDOF 6
ENDMDL
MODEL 8
REMARK VINA RESULT:      -7.1      5.337      8.329
REMARK  6 active torsions:
REMARK  status: ('A' for Active; 'I' for Inactive)
REMARK    1  A    between atoms: O1_2  and  C2_3 
REMARK    2  A    between atoms: C2_3  and  C3_4 
REMARK    3  A    between atoms: C4_5  and  C5_6 
REMARK       I    between atoms: C5_6  and  N1_8 
REMARK    4  A    between atoms: N1_8  and  C6_9 
REMARK    5  A    between atoms: N4_19  and  C14_20 
REMARK    6  A    between atoms: C20_27  and  O3_28 
ROOT
HETATM    1  C6  UNL     1      26.318   5.447  49.283  1.00  0.00     0.048 A 
HETATM    2  C7  UNL     1      27.413   5.104  48.583  1.00  0.00     0.030 A 
HETATM    3  C8  UNL     1      28.429   6.071  48.219  1.00  0.00     0.034 A 
HETATM    4  C9  UNL     1      28.326   7.346  48.564  1.00  0.00     0.068 A 
HETATM    5  C10 UNL     1      27.145   7.736  49.326  1.00  0.00     0.096 A 
HETATM    6  N2  UNL     1      26.999   8.984  49.690  1.00  0.00    -0.257 NA
HETATM    7  C11 UNL     1      27.972   9.978  49.357  1.00  0.00     0.158 A 
HETATM    8  C12 UNL     1      29.074   9.716  48.670  1.00  0.00     0.139 A 
HETATM    9  C13 UNL     1      30.051  10.722  48.338  1.00  0.00     0.119 C 
HETATM   10  N3  UNL     1      30.826  11.541  48.081  1.00  0.00    -0.190 NA
HETATM   11  N4  UNL     1      29.280   8.354  48.246  1.00  0.00    -0.300 N 
HETATM   12  C20 UNL     1      26.043   6.802  49.746  1.00  0.00     0.224 A 
ENDROOT
BRANCH  11  13
HETATM   13  C14 UNL     1      30.431   7.980  47.505  1.00  0.00     0.042 A 
HETATM   14  C15 UNL     1      30.474   8.064  46.126  1.00  0.00     0.030 A 
HETATM   15  C16 UNL     1      31.642   7.674  45.504  1.00  0.00     0.004 A 
HETATM   16  C17 UNL     1      32.759   7.211  46.179  1.00  0.00     0.019 A 
HETATM   17  C18 UNL     1      32.637   7.158  47.553  1.00  0.00     0.013 A 
HETATM   18 BR1  UNL     1      34.143   6.525  48.564  1.00  0.00    -0.051 Br
HETATM   19  C19 UNL     1      31.506   7.526  48.266  1.00  0.00     0.049 A 
ENDBRANCH  11  13
BRANCH  12  20
HETATM   20  O3  UNL     1      24.855   7.357  49.351  1.00  0.00    -0.378 OA
HETATM   21  C21 UNL     1      23.962   7.580  50.389  1.00  0.00     0.203 C 
ENDBRANCH  12  20
BRANCH   1  22
HETATM   22  N1  UNL     1      25.335   4.476  49.627  1.00  0.00    -0.317 N 
HETATM   23  C5  UNL     1      25.311   3.331  50.473  1.00  0.00     0.300 C 
HETATM   24  O2  UNL     1      26.291   2.931  51.153  1.00  0.00    -0.258 OA
HETATM   25  H6  UNL     1      24.471   4.764  49.077  1.00  0.00     0.169 HD
BRANCH  23  26
HETATM   26  C4  UNL     1      24.072   2.605  50.535  1.00  0.00    -0.003 C 
HETATM   27  C3  UNL     1      23.037   1.979  50.581  1.00  0.00    -0.070 C 
BRANCH  27  28
HETATM   28  C2  UNL     1      21.788   1.197  50.647  1.00  0.00     0.261 C 
BRANCH  28  29
HETATM   29  O1  UNL     1      21.535   0.725  49.381  1.00  0.00    -0.384 OA
HETATM   30  C1  UNL     1      20.982   1.732  48.582  1.00  0.00     0.202 C 
ENDBRANCH  28  29
ENDBRANCH  27  28
ENDBRANCH  23  26
ENDBRANCH   1  22
TORSDOF 6
ENDMDL
MODEL 9
REMARK VINA RESULT:      -6.9      3.742      6.294
REMARK  6 active torsions:
REMARK  status: ('A' for Active; 'I' for Inactive)
REMARK    1  A    between atoms: O1_2  and  C2_3 
REMARK    2  A    between atoms: C2_3  and  C3_4 
REMARK    3  A    between atoms: C4_5  and  C5_6 
REMARK       I    between atoms: C5_6  and  N1_8 
REMARK    4  A    between atoms: N1_8  and  C6_9 
REMARK    5  A    between atoms: N4_19  and  C14_20 
REMARK    6  A    between atoms: C20_27  and  O3_28 
ROOT
HETATM    1  C6  UNL     1      24.610   3.965  50.403  1.00  0.00     0.048 A 
HETATM    2  C7  UNL     1      24.111   5.185  50.141  1.00  0.00     0.030 A 
HETATM    3  C8  UNL     1      24.877   6.197  49.441  1.00  0.00     0.034 A 
HETATM    4  C9  UNL     1      26.112   5.963  49.022  1.00  0.00     0.068 A 
HETATM    5  C10 UNL     1      26.670   4.644  49.297  1.00  0.00     0.096 A 
HETATM    6  N2  UNL     1      27.885   4.366  48.903  1.00  0.00    -0.257 NA
HETATM    7  C11 UNL     1      28.684   5.328  48.208  1.00  0.00     0.158 A 
HETATM    8  C12 UNL     1      28.262   6.549  47.915  1.00  0.00     0.139 A 
HETATM    9  C13 UNL     1      29.070   7.515  47.215  1.00  0.00     0.119 C 
HETATM   10  N3  UNL     1      29.732   8.277  46.651  1.00  0.00    -0.190 NA
HETATM   11  N4  UNL     1      26.927   6.903  48.329  1.00  0.00    -0.300 N 
HETATM   12  C20 UNL     1      25.949   3.536  50.016  1.00  0.00     0.224 A 
ENDROOT
BRANCH  11  13
HETATM   13  C14 UNL     1      26.390   8.188  48.059  1.00  0.00     0.042 A 
HETATM   14  C15 UNL     1      26.506   9.234  48.955  1.00  0.00     0.030 A 
HETATM   15  C16 UNL     1      25.947  10.443  48.595  1.00  0.00     0.004 A 
HETATM   16  C17 UNL     1      25.284  10.661  47.398  1.00  0.00     0.019 A 
HETATM   17  C18 UNL     1      25.211   9.567  46.558  1.00  0.00     0.013 A 
HETATM   18 BR1  UNL     1      24.306   9.787  44.877  1.00  0.00    -0.051 Br
HETATM   19  C19 UNL     1      25.740   8.316  46.833  1.00  0.00     0.049 A 
ENDBRANCH  11  13
BRANCH  12  20
HETATM   20  O3  UNL     1      26.766   3.091  51.019  1.00  0.00    -0.378 OA
HETATM   21  C21 UNL     1      26.694   1.724  51.244  1.00  0.00     0.203 C 
ENDBRANCH  12  20
BRANCH   1  22
HETATM   22  N1  UNL     1      23.836   2.990  51.093  1.00  0.00    -0.317 N 
HETATM   23  C5  UNL     1      22.928   1.967  50.696  1.00  0.00     0.300 C 
HETATM   24  O2  UNL     1      22.616   1.720  49.502  1.00  0.00    -0.258 OA
HETATM   25  H6  UNL     1      24.059   3.149  52.121  1.00  0.00     0.169 HD
BRANCH  23  26
HETATM   26  C4  UNL     1      22.347   1.181  51.748  1.00  0.00    -0.003 C 
HETATM   27  C3  UNL     1      21.864   0.504  52.629  1.00  0.00    -0.070 C 
BRANCH  27  28
HETATM   28  C2  UNL     1      21.299  -0.332  53.705  1.00  0.00     0.261 C 
BRANCH  28  29
HETATM   29  O1  UNL     1      22.147  -1.399  53.879  1.00  0.00    -0.384 OA
HETATM   30  C1  UNL     1      22.753  -1.345  55.140  1.00  0.00     0.202 C 
ENDBRANCH  28  29
ENDBRANCH  27  28
ENDBRANCH  23  26
ENDBRANCH   1  22
TORSDOF 6
ENDMDL
