MODEL 1
REMARK VINA RESULT:      -8.1      0.000      0.000
REMARK  3 active torsions:
REMARK  status: ('A' for Active; 'I' for Inactive)
REMARK    1  A    between atoms: N1_2  and  C2_3 
REMARK    2  A    between atoms: N1_2  and  C14_20 
REMARK    3  A    between atoms: C2_3  and  C3_4 
ROOT
HETATM    1  C3  UNL     1      24.760   3.240  50.583  1.00  0.00     0.179 A 
HETATM    2  C4  UNL     1      24.486   2.257  51.621  1.00  0.00     0.044 A 
HETATM    3  N2  UNL     1      25.735   2.260  51.376  1.00  0.00    -0.319 N 
HETATM    4  C5  UNL     1      26.620   1.409  52.055  1.00  0.00     0.109 C 
HETATM    5  C6  UNL     1      26.740   0.078  51.920  1.00  0.00     0.051 C 
HETATM    6  C7  UNL     1      27.053  -0.940  52.960  1.00  0.00     0.132 C 
HETATM    7  C8  UNL     1      28.251  -0.654  53.745  1.00  0.00     0.008 C 
HETATM    8  C9  UNL     1      28.957   0.444  54.007  1.00  0.00     0.073 C 
HETATM    9  C10 UNL     1      28.546   1.812  53.706  1.00  0.00     0.246 C 
HETATM   10  O1  UNL     1      29.267   2.757  54.152  1.00  0.00    -0.268 OA
HETATM   11  N3  UNL     1      27.396   2.238  52.946  1.00  0.00    -0.310 N 
HETATM   12  N4  UNL     1      25.848  -1.095  53.763  1.00  0.00    -0.373 N 
HETATM   13  C11 UNL     1      24.520  -0.673  53.486  1.00  0.00     0.203 C 
HETATM   14  N5  UNL     1      24.275   0.570  53.349  1.00  0.00    -0.256 NA
HETATM   15  C12 UNL     1      22.989   1.097  53.072  1.00  0.00     0.120 C 
HETATM   16  C13 UNL     1      23.170   2.002  52.131  1.00  0.00     0.047 C 
HETATM   17  H10 UNL     1      27.102   3.232  53.052  1.00  0.00     0.170 HD
HETATM   18  H11 UNL     1      25.810  -1.558  54.690  1.00  0.00     0.161 HD
ENDROOT
BRANCH   1  19
HETATM   19  C2  UNL     1      25.978   3.456  50.132  1.00  0.00     0.090 C 
BRANCH  19  20
HETATM   20  N1  UNL     1      26.450   4.613  49.459  1.00  0.00    -0.382 N 
HETATM   21  C1  UNL     1      25.636   5.806  49.583  1.00  0.00     0.150 C 
BRANCH  20  22
HETATM   22  C14 UNL     1      27.653   4.770  48.651  1.00  0.00     0.236 C 
HETATM   23 CL1  UNL     1      27.926   6.454  48.163  1.00  0.00    -0.109 Cl
ENDBRANCH  20  22
ENDBRANCH  19  20
ENDBRANCH   1  19
TORSDOF 3
ENDMDL
MODEL 2
REMARK VINA RESULT:      -7.3      3.282      5.468
REMARK  3 active torsions:
REMARK  status: ('A' for Active; 'I' for Inactive)
REMARK    1  A    between atoms: N1_2  and  C2_3 
REMARK    2  A    between atoms: N1_2  and  C14_20 
REMARK    3  A    between atoms: C2_3  and  C3_4 
ROOT
HETATM    1  C3  UNL     1      22.063   1.179  52.327  1.00  0.00     0.179 A 
HETATM    2  C4  UNL     1      23.199   1.735  51.607  1.00  0.00     0.044 A 
HETATM    3  N2  UNL     1      23.625   1.128  52.642  1.00  0.00    -0.319 N 
HETATM    4  C5  UNL     1      24.993   1.065  52.948  1.00  0.00     0.109 C 
HETATM    5  C6  UNL     1      25.780   2.062  53.383  1.00  0.00     0.051 C 
HETATM    6  C7  UNL     1      27.213   2.321  53.075  1.00  0.00     0.132 C 
HETATM    7  C8  UNL     1      28.096   1.180  53.303  1.00  0.00     0.008 C 
HETATM    8  C9  UNL     1      27.918  -0.136  53.397  1.00  0.00     0.073 C 
HETATM    9  C10 UNL     1      26.695  -0.856  53.057  1.00  0.00     0.246 C 
HETATM   10  O1  UNL     1      26.735  -2.125  53.062  1.00  0.00    -0.268 OA
HETATM   11  N3  UNL     1      25.413  -0.294  52.705  1.00  0.00    -0.310 N 
HETATM   12  N4  UNL     1      27.256   2.833  51.712  1.00  0.00    -0.373 N 
HETATM   13  C11 UNL     1      26.202   3.334  50.904  1.00  0.00     0.203 C 
HETATM   14  N5  UNL     1      25.237   2.563  50.588  1.00  0.00    -0.256 NA
HETATM   15  C12 UNL     1      24.137   2.961  49.788  1.00  0.00     0.120 C 
HETATM   16  C13 UNL     1      23.067   2.483  50.391  1.00  0.00     0.047 C 
HETATM   17  H10 UNL     1      24.733  -0.929  52.235  1.00  0.00     0.170 HD
HETATM   18  H11 UNL     1      28.113   2.899  51.132  1.00  0.00     0.161 HD
ENDROOT
BRANCH   1  19
HETATM   19  C2  UNL     1      22.212   0.495  53.442  1.00  0.00     0.090 C 
BRANCH  19  20
HETATM   20  N1  UNL     1      21.406  -0.579  53.903  1.00  0.00    -0.382 N 
HETATM   21  C1  UNL     1      20.004  -0.534  53.537  1.00  0.00     0.150 C 
BRANCH  20  22
HETATM   22  C14 UNL     1      21.796  -1.734  54.702  1.00  0.00     0.236 C 
HETATM   23 CL1  UNL     1      23.307  -1.462  55.591  1.00  0.00    -0.109 Cl
ENDBRANCH  20  22
ENDBRANCH  19  20
ENDBRANCH   1  19
TORSDOF 3
ENDMDL
MODEL 3
REMARK VINA RESULT:      -7.3      3.477      5.768
REMARK  3 active torsions:
REMARK  status: ('A' for Active; 'I' for Inactive)
REMARK    1  A    between atoms: N1_2  and  C2_3 
REMARK    2  A    between atoms: N1_2  and  C14_20 
REMARK    3  A    between atoms: C2_3  and  C3_4 
ROOT
HETATM    1  C3  UNL     1      25.752   1.659  52.051  1.00  0.00     0.179 A 
HETATM    2  C4  UNL     1      24.443   2.258  52.266  1.00  0.00     0.044 A 
HETATM    3  N2  UNL     1      24.339   0.993  52.366  1.00  0.00    -0.319 N 
HETATM    4  C5  UNL     1      23.110   0.376  52.641  1.00  0.00     0.109 C 
HETATM    5  C6  UNL     1      22.052   0.256  51.822  1.00  0.00     0.051 C 
HETATM    6  C7  UNL     1      20.603   0.297  52.157  1.00  0.00     0.132 C 
HETATM    7  C8  UNL     1      20.204  -0.618  53.223  1.00  0.00     0.008 C 
HETATM    8  C9  UNL     1      20.845  -1.243  54.208  1.00  0.00     0.073 C 
HETATM    9  C10 UNL     1      22.216  -0.979  54.633  1.00  0.00     0.246 C 
HETATM   10  O1  UNL     1      22.632  -1.558  55.684  1.00  0.00    -0.268 OA
HETATM   11  N3  UNL     1      23.185  -0.120  53.994  1.00  0.00    -0.310 N 
HETATM   12  N4  UNL     1      20.280   1.691  52.429  1.00  0.00    -0.373 N 
HETATM   13  C11 UNL     1      21.025   2.863  52.131  1.00  0.00     0.203 C 
HETATM   14  N5  UNL     1      22.176   3.022  52.657  1.00  0.00    -0.256 NA
HETATM   15  C12 UNL     1      23.000   4.151  52.427  1.00  0.00     0.120 C 
HETATM   16  C13 UNL     1      24.211   3.672  52.224  1.00  0.00     0.047 C 
HETATM   17  H10 UNL     1      24.011   0.165  54.564  1.00  0.00     0.170 HD
HETATM   18  H11 UNL     1      19.417   2.017  52.901  1.00  0.00     0.161 HD
ENDROOT
BRANCH   1  19
HETATM   19  C2  UNL     1      25.939   0.357  52.096  1.00  0.00     0.090 C 
BRANCH  19  20
HETATM   20  N1  UNL     1      27.032  -0.332  52.683  1.00  0.00    -0.382 N 
HETATM   21  C1  UNL     1      26.981  -1.780  52.634  1.00  0.00     0.150 C 
BRANCH  20  22
HETATM   22  C14 UNL     1      28.212   0.219  53.338  1.00  0.00     0.236 C 
HETATM   23 CL1  UNL     1      29.552  -0.942  53.410  1.00  0.00    -0.109 Cl
ENDBRANCH  20  22
ENDBRANCH  19  20
ENDBRANCH   1  19
TORSDOF 3
ENDMDL
MODEL 4
REMARK VINA RESULT:      -7.2      2.916      5.416
REMARK  3 active torsions:
REMARK  status: ('A' for Active; 'I' for Inactive)
REMARK    1  A    between atoms: N1_2  and  C2_3 
REMARK    2  A    between atoms: N1_2  and  C14_20 
REMARK    3  A    between atoms: C2_3  and  C3_4 
ROOT
HETATM    1  C3  UNL     1      25.209  -0.359  54.099  1.00  0.00     0.179 A 
HETATM    2  C4  UNL     1      24.055   0.138  53.363  1.00  0.00     0.044 A 
HETATM    3  N2  UNL     1      24.986   1.003  53.301  1.00  0.00    -0.319 N 
HETATM    4  C5  UNL     1      24.823   2.213  52.609  1.00  0.00     0.109 C 
HETATM    5  C6  UNL     1      24.064   3.262  52.964  1.00  0.00     0.051 C 
HETATM    6  C7  UNL     1      23.289   4.189  52.095  1.00  0.00     0.132 C 
HETATM    7  C8  UNL     1      24.062   4.788  51.010  1.00  0.00     0.008 C 
HETATM    8  C9  UNL     1      25.194   4.474  50.385  1.00  0.00     0.073 C 
HETATM    9  C10 UNL     1      25.911   3.209  50.506  1.00  0.00     0.246 C 
HETATM   10  O1  UNL     1      26.897   3.011  49.731  1.00  0.00    -0.268 OA
HETATM   11  N3  UNL     1      25.635   2.126  51.419  1.00  0.00    -0.310 N 
HETATM   12  N4  UNL     1      22.118   3.449  51.642  1.00  0.00    -0.373 N 
HETATM   13  C11 UNL     1      21.572   2.236  52.138  1.00  0.00     0.203 C 
HETATM   14  N5  UNL     1      22.271   1.170  52.087  1.00  0.00    -0.256 NA
HETATM   15  C12 UNL     1      21.822  -0.091  52.554  1.00  0.00     0.120 C 
HETATM   16  C13 UNL     1      22.831  -0.598  53.234  1.00  0.00     0.047 C 
HETATM   17  H10 UNL     1      26.061   1.201  51.197  1.00  0.00     0.170 HD
HETATM   18  H11 UNL     1      21.505   3.735  50.856  1.00  0.00     0.161 HD
ENDROOT
BRANCH   1  19
HETATM   19  C2  UNL     1      26.322   0.336  54.201  1.00  0.00     0.090 C 
BRANCH  19  20
HETATM   20  N1  UNL     1      27.649  -0.142  54.042  1.00  0.00    -0.382 N 
HETATM   21  C1  UNL     1      28.640   0.396  54.952  1.00  0.00     0.150 C 
BRANCH  20  22
HETATM   22  C14 UNL     1      28.160  -1.110  53.079  1.00  0.00     0.236 C 
HETATM   23 CL1  UNL     1      29.812  -1.634  53.458  1.00  0.00    -0.109 Cl
ENDBRANCH  20  22
ENDBRANCH  19  20
ENDBRANCH   1  19
TORSDOF 3
ENDMDL
MODEL 5
REMARK VINA RESULT:      -7.0      3.278      6.050
REMARK  3 active torsions:
REMARK  status: ('A' for Active; 'I' for Inactive)
REMARK    1  A    between atoms: N1_2  and  C2_3 
REMARK    2  A    between atoms: N1_2  and  C14_20 
REMARK    3  A    between atoms: C2_3  and  C3_4 
ROOT
HETATM    1  C3  UNL     1      23.519  -0.601  53.817  1.00  0.00     0.179 A 
HETATM    2  C4  UNL     1      24.746   0.179  53.753  1.00  0.00     0.044 A 
HETATM    3  N2  UNL     1      23.900   0.676  52.942  1.00  0.00    -0.319 N 
HETATM    4  C5  UNL     1      24.204   1.798  52.156  1.00  0.00     0.109 C 
HETATM    5  C6  UNL     1      25.036   1.859  51.104  1.00  0.00     0.051 C 
HETATM    6  C7  UNL     1      25.932   2.972  50.686  1.00  0.00     0.132 C 
HETATM    7  C8  UNL     1      25.269   4.267  50.562  1.00  0.00     0.008 C 
HETATM    8  C9  UNL     1      24.144   4.791  51.044  1.00  0.00     0.073 C 
HETATM    9  C10 UNL     1      23.312   4.206  52.091  1.00  0.00     0.246 C 
HETATM   10  O1  UNL     1      22.351   4.903  52.541  1.00  0.00    -0.268 OA
HETATM   11  N3  UNL     1      23.446   2.902  52.694  1.00  0.00    -0.310 N 
HETATM   12  N4  UNL     1      27.052   2.972  51.618  1.00  0.00    -0.373 N 
HETATM   13  C11 UNL     1      27.463   1.968  52.533  1.00  0.00     0.203 C 
HETATM   14  N5  UNL     1      26.676   1.621  53.474  1.00  0.00    -0.256 NA
HETATM   15  C12 UNL     1      26.986   0.631  54.440  1.00  0.00     0.120 C 
HETATM   16  C13 UNL     1      25.904  -0.115  54.545  1.00  0.00     0.047 C 
HETATM   17  H10 UNL     1      22.950   2.747  53.598  1.00  0.00     0.170 HD
HETATM   18  H11 UNL     1      27.726   3.752  51.732  1.00  0.00     0.161 HD
ENDROOT
BRANCH   1  19
HETATM   19  C2  UNL     1      22.469  -0.309  53.078  1.00  0.00     0.090 C 
BRANCH  19  20
HETATM   20  N1  UNL     1      21.106  -0.550  53.394  1.00  0.00    -0.382 N 
HETATM   21  C1  UNL     1      20.841  -1.637  54.315  1.00  0.00     0.150 C 
BRANCH  20  22
HETATM   22  C14 UNL     1      19.922   0.152  52.914  1.00  0.00     0.236 C 
HETATM   23 CL1  UNL     1      20.193   1.896  52.737  1.00  0.00    -0.109 Cl
ENDBRANCH  20  22
ENDBRANCH  19  20
ENDBRANCH   1  19
TORSDOF 3
ENDMDL
MODEL 6
REMARK VINA RESULT:      -6.9      2.634      4.508
REMARK  3 active torsions:
REMARK  status: ('A' for Active; 'I' for Inactive)
REMARK    1  A    between atoms: N1_2  and  C2_3 
REMARK    2  A    between atoms: N1_2  and  C14_20 
REMARK    3  A    between atoms: C2_3  and  C3_4 
ROOT
HETATM    1  C3  UNL     1      26.084   3.175  50.873  1.00  0.00     0.179 A 
HETATM    2  C4  UNL     1      25.831   1.906  51.540  1.00  0.00     0.044 A 
HETATM    3  N2  UNL     1      24.717   2.466  51.283  1.00  0.00    -0.319 N 
HETATM    4  C5  UNL     1      23.496   1.869  51.631  1.00  0.00     0.109 C 
HETATM    5  C6  UNL     1      22.978   1.724  52.861  1.00  0.00     0.051 C 
HETATM    6  C7  UNL     1      22.168   0.600  53.406  1.00  0.00     0.132 C 
HETATM    7  C8  UNL     1      21.005   0.246  52.596  1.00  0.00     0.008 C 
HETATM    8  C9  UNL     1      20.657   0.438  51.326  1.00  0.00     0.073 C 
HETATM    9  C10 UNL     1      21.536   0.923  50.266  1.00  0.00     0.246 C 
HETATM   10  O1  UNL     1      21.091   0.912  49.077  1.00  0.00    -0.268 OA
HETATM   11  N3  UNL     1      22.881   1.429  50.402  1.00  0.00    -0.310 N 
HETATM   12  N4  UNL     1      23.090  -0.507  53.624  1.00  0.00    -0.373 N 
HETATM   13  C11 UNL     1      24.509  -0.501  53.667  1.00  0.00     0.203 C 
HETATM   14  N5  UNL     1      25.164  -0.154  52.629  1.00  0.00    -0.256 NA
HETATM   15  C12 UNL     1      26.580  -0.114  52.565  1.00  0.00     0.120 C 
HETATM   16  C13 UNL     1      26.876   1.022  51.965  1.00  0.00     0.047 C 
HETATM   17  H10 UNL     1      23.456   1.479  49.534  1.00  0.00     0.170 HD
HETATM   18  H11 UNL     1      22.806  -1.491  53.784  1.00  0.00     0.161 HD
ENDROOT
BRANCH   1  19
HETATM   19  C2  UNL     1      25.106   3.969  50.491  1.00  0.00     0.090 C 
BRANCH  19  20
HETATM   20  N1  UNL     1      25.172   5.007  49.526  1.00  0.00    -0.382 N 
HETATM   21  C1  UNL     1      23.998   5.191  48.696  1.00  0.00     0.150 C 
BRANCH  20  22
HETATM   22  C14 UNL     1      26.271   5.925  49.247  1.00  0.00     0.236 C 
HETATM   23 CL1  UNL     1      27.648   5.117  48.475  1.00  0.00    -0.109 Cl
ENDBRANCH  20  22
ENDBRANCH  19  20
ENDBRANCH   1  19
TORSDOF 3
ENDMDL
MODEL 7
REMARK VINA RESULT:      -6.5      3.564      5.901
REMARK  3 active torsions:
REMARK  status: ('A' for Active; 'I' for Inactive)
REMARK    1  A    between atoms: N1_2  and  C2_3 
REMARK    2  A    between atoms: N1_2  and  C14_20 
REMARK    3  A    between atoms: C2_3  and  C3_4 
ROOT
HETATM    1  C3  UNL     1      24.661   0.896  53.150  1.00  0.00     0.179 A 
HETATM    2  C4  UNL     1      23.374   0.230  53.293  1.00  0.00     0.044 A 
HETATM    3  N2  UNL     1      23.267   1.150  52.420  1.00  0.00    -0.319 N 
HETATM    4  C5  UNL     1      22.054   1.400  51.761  1.00  0.00     0.109 C 
HETATM    5  C6  UNL     1      20.943   1.952  52.274  1.00  0.00     0.051 C 
HETATM    6  C7  UNL     1      19.520   1.641  51.968  1.00  0.00     0.132 C 
HETATM    7  C8  UNL     1      19.187   1.671  50.547  1.00  0.00     0.008 C 
HETATM    8  C9  UNL     1      19.889   1.576  49.420  1.00  0.00     0.073 C 
HETATM    9  C10 UNL     1      21.288   1.172  49.319  1.00  0.00     0.246 C 
HETATM   10  O1  UNL     1      21.769   0.990  48.159  1.00  0.00    -0.268 OA
HETATM   11  N3  UNL     1      22.217   0.948  50.400  1.00  0.00    -0.310 N 
HETATM   12  N4  UNL     1      19.228   0.368  52.613  1.00  0.00    -0.373 N 
HETATM   13  C11 UNL     1      19.960  -0.325  53.613  1.00  0.00     0.203 C 
HETATM   14  N5  UNL     1      21.145  -0.720  53.358  1.00  0.00    -0.256 NA
HETATM   15  C12 UNL     1      21.962  -1.418  54.283  1.00  0.00     0.120 C 
HETATM   16  C13 UNL     1      23.152  -0.858  54.200  1.00  0.00     0.047 C 
HETATM   17  H10 UNL     1      23.082   0.411  50.175  1.00  0.00     0.170 HD
HETATM   18  H11 UNL     1      18.401  -0.224  52.408  1.00  0.00     0.161 HD
ENDROOT
BRANCH   1  19
HETATM   19  C2  UNL     1      24.839   1.893  52.309  1.00  0.00     0.090 C 
BRANCH  19  20
HETATM   20  N1  UNL     1      26.061   2.304  51.714  1.00  0.00    -0.382 N 
HETATM   21  C1  UNL     1      27.262   2.090  52.497  1.00  0.00     0.150 C 
BRANCH  20  22
HETATM   22  C14 UNL     1      26.278   2.919  50.410  1.00  0.00     0.236 C 
HETATM   23 CL1  UNL     1      24.758   3.329  49.593  1.00  0.00    -0.109 Cl
ENDBRANCH  20  22
ENDBRANCH  19  20
ENDBRANCH   1  19
TORSDOF 3
ENDMDL
MODEL 8
REMARK VINA RESULT:      -6.4      3.030      5.875
REMARK  3 active torsions:
REMARK  status: ('A' for Active; 'I' for Inactive)
REMARK    1  A    between atoms: N1_2  and  C2_3 
REMARK    2  A    between atoms: N1_2  and  C14_20 
REMARK    3  A    between atoms: C2_3  and  C3_4 
ROOT
HETATM    1  C3  UNL     1      22.880   0.397  53.153  1.00  0.00     0.179 A 
HETATM    2  C4  UNL     1      22.136   1.411  52.419  1.00  0.00     0.044 A 
HETATM    3  N2  UNL     1      23.346   1.790  52.533  1.00  0.00    -0.319 N 
HETATM    4  C5  UNL     1      23.788   3.010  52.000  1.00  0.00     0.109 C 
HETATM    5  C6  UNL     1      23.508   4.246  52.444  1.00  0.00     0.051 C 
HETATM    6  C7  UNL     1      23.301   5.494  51.660  1.00  0.00     0.132 C 
HETATM    7  C8  UNL     1      24.373   5.799  50.716  1.00  0.00     0.008 C 
HETATM    8  C9  UNL     1      25.330   5.087  50.126  1.00  0.00     0.073 C 
HETATM    9  C10 UNL     1      25.427   3.630  50.121  1.00  0.00     0.246 C 
HETATM   10  O1  UNL     1      26.318   3.099  49.389  1.00  0.00    -0.268 OA
HETATM   11  N3  UNL     1      24.617   2.693  50.862  1.00  0.00    -0.310 N 
HETATM   12  N4  UNL     1      21.988   5.380  51.040  1.00  0.00    -0.373 N 
HETATM   13  C11 UNL     1      20.928   4.482  51.334  1.00  0.00     0.203 C 
HETATM   14  N5  UNL     1      21.112   3.229  51.185  1.00  0.00    -0.256 NA
HETATM   15  C12 UNL     1      20.123   2.248  51.449  1.00  0.00     0.120 C 
HETATM   16  C13 UNL     1      20.739   1.293  52.117  1.00  0.00     0.047 C 
HETATM   17  H10 UNL     1      24.635   1.700  50.545  1.00  0.00     0.170 HD
HETATM   18  H11 UNL     1      21.646   5.976  50.263  1.00  0.00     0.161 HD
ENDROOT
BRANCH   1  19
HETATM   19  C2  UNL     1      24.163   0.529  53.417  1.00  0.00     0.090 C 
BRANCH  19  20
HETATM   20  N1  UNL     1      25.050  -0.477  53.879  1.00  0.00    -0.382 N 
HETATM   21  C1  UNL     1      24.742  -1.064  55.168  1.00  0.00     0.150 C 
BRANCH  20  22
HETATM   22  C14 UNL     1      26.243  -1.008  53.231  1.00  0.00     0.236 C 
HETATM   23 CL1  UNL     1      26.724  -0.057  51.813  1.00  0.00    -0.109 Cl
ENDBRANCH  20  22
ENDBRANCH  19  20
ENDBRANCH   1  19
TORSDOF 3
ENDMDL
MODEL 9
REMARK VINA RESULT:      -6.4      3.215      6.024
REMARK  3 active torsions:
REMARK  status: ('A' for Active; 'I' for Inactive)
REMARK    1  A    between atoms: N1_2  and  C2_3 
REMARK    2  A    between atoms: N1_2  and  C14_20 
REMARK    3  A    between atoms: C2_3  and  C3_4 
ROOT
HETATM    1  C3  UNL     1      23.336   1.045  52.025  1.00  0.00     0.179 A 
HETATM    2  C4  UNL     1      22.803   1.594  50.787  1.00  0.00     0.044 A 
HETATM    3  N2  UNL     1      23.707   2.374  51.228  1.00  0.00    -0.319 N 
HETATM    4  C5  UNL     1      24.057   3.552  50.551  1.00  0.00     0.109 C 
HETATM    5  C6  UNL     1      23.335   4.679  50.443  1.00  0.00     0.051 C 
HETATM    6  C7  UNL     1      23.235   5.617  49.292  1.00  0.00     0.132 C 
HETATM    7  C8  UNL     1      24.520   6.088  48.783  1.00  0.00     0.008 C 
HETATM    8  C9  UNL     1      25.774   5.646  48.857  1.00  0.00     0.073 C 
HETATM    9  C10 UNL     1      26.187   4.334  49.345  1.00  0.00     0.246 C 
HETATM   10  O1  UNL     1      27.407   4.011  49.214  1.00  0.00    -0.268 OA
HETATM   11  N3  UNL     1      25.362   3.331  49.975  1.00  0.00    -0.310 N 
HETATM   12  N4  UNL     1      22.414   4.953  48.289  1.00  0.00    -0.373 N 
HETATM   13  C11 UNL     1      21.570   3.819  48.422  1.00  0.00     0.203 C 
HETATM   14  N5  UNL     1      22.078   2.698  48.754  1.00  0.00    -0.256 NA
HETATM   15  C12 UNL     1      21.326   1.506  48.915  1.00  0.00     0.120 C 
HETATM   16  C13 UNL     1      21.766   0.956  50.029  1.00  0.00     0.047 C 
HETATM   17  H10 UNL     1      25.746   2.362  50.017  1.00  0.00     0.170 HD
HETATM   18  H11 UNL     1      22.341   5.245  47.296  1.00  0.00     0.161 HD
ENDROOT
BRANCH   1  19
HETATM   19  C2  UNL     1      24.290   1.650  52.702  1.00  0.00     0.090 C 
BRANCH  19  20
HETATM   20  N1  UNL     1      25.378   1.040  53.379  1.00  0.00    -0.382 N 
HETATM   21  C1  UNL     1      26.464   1.917  53.770  1.00  0.00     0.150 C 
BRANCH  20  22
HETATM   22  C14 UNL     1      25.558  -0.360  53.741  1.00  0.00     0.236 C 
HETATM   23 CL1  UNL     1      26.614  -1.222  52.605  1.00  0.00    -0.109 Cl
ENDBRANCH  20  22
ENDBRANCH  19  20
ENDBRANCH   1  19
TORSDOF 3
ENDMDL
