MODEL 1
REMARK VINA RESULT:      -8.4      0.000      0.000
REMARK  5 active torsions:
REMARK  status: ('A' for Active; 'I' for Inactive)
REMARK    1  A    between atoms: N1_1  and  C1_2 
REMARK    2  A    between atoms: N2_5  and  C4_6 
REMARK    3  A    between atoms: C4_6  and  C5_7 
REMARK    4  A    between atoms: C9_14  and  N6_15 
REMARK    5  A    between atoms: N6_15  and  C10_16 
ROOT
HETATM    1  C5  UNL     1      22.298   0.631  52.109  1.00  0.00    -0.007 A 
HETATM    2  C6  UNL     1      20.900   0.473  52.134  1.00  0.00     0.030 A 
HETATM    3  C7  UNL     1      20.490  -0.280  53.215  1.00  0.00     0.119 A 
HETATM    4  N3  UNL     1      21.642  -0.576  53.843  1.00  0.00    -0.240 N 
HETATM    5  N4  UNL     1      21.813  -1.284  54.946  1.00  0.00    -0.161 NA
HETATM    6  C8  UNL     1      23.047  -1.484  55.440  1.00  0.00     0.258 A 
HETATM    7  N5  UNL     1      24.141  -0.957  54.810  1.00  0.00    -0.221 NA
HETATM    8  C9  UNL     1      23.989  -0.235  53.689  1.00  0.00     0.155 A 
HETATM    9  C15 UNL     1      22.704  -0.061  53.225  1.00  0.00     0.111 A 
ENDROOT
BRANCH   1  10
HETATM   10  C4  UNL     1      22.965   1.380  51.059  1.00  0.00     0.158 C 
BRANCH  10  11
HETATM   11  N2  UNL     1      22.846   2.800  51.091  1.00  0.00    -0.408 N 
HETATM   12  C3  UNL     1      23.550   3.511  50.106  1.00  0.00     0.119 C 
HETATM   13  C2  UNL     1      24.454   4.606  50.545  1.00  0.00     0.055 C 
HETATM   14  C1  UNL     1      23.685   5.467  51.540  1.00  0.00     0.221 C 
HETATM   15  C17 UNL     1      23.505   4.537  52.742  1.00  0.00     0.055 C 
HETATM   16  C16 UNL     1      22.681   3.357  52.376  1.00  0.00     0.119 C 
BRANCH  14  17
HETATM   17  N1  UNL     1      24.430   6.627  51.955  1.00  0.00     0.083 N 
HETATM   18  H1  UNL     1      25.445   6.544  51.686  1.00  0.00     0.313 HD
HETATM   19  H2  UNL     1      24.428   6.724  52.999  1.00  0.00     0.313 HD
ENDBRANCH  14  17
ENDBRANCH  10  11
ENDBRANCH   1  10
BRANCH   8  20
HETATM   20  N6  UNL     1      25.140   0.307  53.055  1.00  0.00    -0.362 N 
HETATM   21  H13 UNL     1      25.472   0.469  52.110  1.00  0.00     0.162 HD
BRANCH  20  22
HETATM   22  C10 UNL     1      26.132   0.768  54.000  1.00  0.00     0.131 A 
HETATM   23  C11 UNL     1      26.597   2.155  53.651  1.00  0.00     0.004 A 
HETATM   24  C12 UNL     1      27.892   2.131  53.444  1.00  0.00     0.022 A 
HETATM   25  C13 UNL     1      28.391   0.774  53.628  1.00  0.00     0.032 A 
HETATM   26 CL1  UNL     1      29.957  -0.016  53.527  1.00  0.00    -0.085 Cl
HETATM   27  C14 UNL     1      27.373  -0.005  53.948  1.00  0.00     0.026 A 
ENDBRANCH  20  22
ENDBRANCH   8  20
TORSDOF 5
ENDMDL
MODEL 2
REMARK VINA RESULT:      -8.0      2.763      5.634
REMARK  5 active torsions:
REMARK  status: ('A' for Active; 'I' for Inactive)
REMARK    1  A    between atoms: N1_1  and  C1_2 
REMARK    2  A    between atoms: N2_5  and  C4_6 
REMARK    3  A    between atoms: C4_6  and  C5_7 
REMARK    4  A    between atoms: C9_14  and  N6_15 
REMARK    5  A    between atoms: N6_15  and  C10_16 
ROOT
HETATM    1  C5  UNL     1      24.075   0.996  52.921  1.00  0.00    -0.007 A 
HETATM    2  C6  UNL     1      23.539  -0.156  53.523  1.00  0.00     0.030 A 
HETATM    3  C7  UNL     1      22.397  -0.585  52.878  1.00  0.00     0.119 A 
HETATM    4  N3  UNL     1      22.246   0.309  51.885  1.00  0.00    -0.240 N 
HETATM    5  N4  UNL     1      21.298   0.356  50.965  1.00  0.00    -0.161 NA
HETATM    6  C8  UNL     1      21.299   1.330  50.038  1.00  0.00     0.258 A 
HETATM    7  N5  UNL     1      22.280   2.283  50.034  1.00  0.00    -0.221 NA
HETATM    8  C9  UNL     1      23.251   2.254  50.959  1.00  0.00     0.155 A 
HETATM    9  C15 UNL     1      23.203   1.236  51.886  1.00  0.00     0.111 A 
ENDROOT
BRANCH   1  10
HETATM   10  C4  UNL     1      25.274   1.638  53.430  1.00  0.00     0.158 C 
BRANCH  10  11
HETATM   11  N2  UNL     1      26.524   1.019  53.136  1.00  0.00    -0.408 N 
HETATM   12  C3  UNL     1      26.504  -0.021  52.193  1.00  0.00     0.119 C 
HETATM   13  C2  UNL     1      27.118  -1.320  52.571  1.00  0.00     0.055 C 
HETATM   14  C1  UNL     1      28.484  -1.024  53.179  1.00  0.00     0.221 C 
HETATM   15  C17 UNL     1      28.136  -0.306  54.485  1.00  0.00     0.055 C 
HETATM   16  C16 UNL     1      27.435   0.973  54.212  1.00  0.00     0.119 C 
BRANCH  14  17
HETATM   17  N1  UNL     1      29.220  -2.223  53.487  1.00  0.00     0.083 N 
HETATM   18  H1  UNL     1      28.898  -3.031  52.895  1.00  0.00     0.313 HD
HETATM   19  H2  UNL     1      29.056  -2.523  54.478  1.00  0.00     0.313 HD
ENDBRANCH  14  17
ENDBRANCH  10  11
ENDBRANCH   1  10
BRANCH   8  20
HETATM   20  N6  UNL     1      24.263   3.252  50.932  1.00  0.00    -0.362 N 
HETATM   21  H13 UNL     1      24.705   3.893  51.582  1.00  0.00     0.162 HD
BRANCH  20  22
HETATM   22  C10 UNL     1      24.846   3.418  49.619  1.00  0.00     0.131 A 
HETATM   23  C11 UNL     1      26.321   3.130  49.650  1.00  0.00     0.004 A 
HETATM   24  C12 UNL     1      26.973   4.196  49.254  1.00  0.00     0.022 A 
HETATM   25  C13 UNL     1      26.025   5.257  48.935  1.00  0.00     0.032 A 
HETATM   26 CL1  UNL     1      26.137   6.914  48.362  1.00  0.00    -0.085 Cl
HETATM   27  C14 UNL     1      24.803   4.803  49.147  1.00  0.00     0.026 A 
ENDBRANCH  20  22
ENDBRANCH   8  20
TORSDOF 5
ENDMDL
MODEL 3
REMARK VINA RESULT:      -7.8      3.026      6.067
REMARK  5 active torsions:
REMARK  status: ('A' for Active; 'I' for Inactive)
REMARK    1  A    between atoms: N1_1  and  C1_2 
REMARK    2  A    between atoms: N2_5  and  C4_6 
REMARK    3  A    between atoms: C4_6  and  C5_7 
REMARK    4  A    between atoms: C9_14  and  N6_15 
REMARK    5  A    between atoms: N6_15  and  C10_16 
ROOT
HETATM    1  C5  UNL     1      23.835   2.363  51.595  1.00  0.00    -0.007 A 
HETATM    2  C6  UNL     1      22.713   1.585  51.932  1.00  0.00     0.030 A 
HETATM    3  C7  UNL     1      21.564   2.348  51.997  1.00  0.00     0.119 A 
HETATM    4  N3  UNL     1      21.996   3.586  51.699  1.00  0.00    -0.240 N 
HETATM    5  N4  UNL     1      21.290   4.701  51.623  1.00  0.00    -0.161 NA
HETATM    6  C8  UNL     1      21.888   5.864  51.310  1.00  0.00     0.258 A 
HETATM    7  N5  UNL     1      23.233   5.908  51.065  1.00  0.00    -0.221 NA
HETATM    8  C9  UNL     1      23.968   4.788  51.136  1.00  0.00     0.155 A 
HETATM    9  C15 UNL     1      23.306   3.624  51.461  1.00  0.00     0.111 A 
ENDROOT
BRANCH   1  10
HETATM   10  C4  UNL     1      25.160   1.782  51.475  1.00  0.00     0.158 C 
BRANCH  10  11
HETATM   11  N2  UNL     1      25.750   1.244  52.656  1.00  0.00    -0.408 N 
HETATM   12  C3  UNL     1      26.692   2.053  53.312  1.00  0.00     0.119 C 
HETATM   13  C2  UNL     1      28.023   1.467  53.620  1.00  0.00     0.055 C 
HETATM   14  C1  UNL     1      27.790   0.100  54.252  1.00  0.00     0.221 C 
HETATM   15  C17 UNL     1      27.203  -0.721  53.103  1.00  0.00     0.055 C 
HETATM   16  C16 UNL     1      25.902  -0.158  52.663  1.00  0.00     0.119 C 
BRANCH  14  17
HETATM   17  N1  UNL     1      29.014  -0.518  54.691  1.00  0.00     0.083 N 
HETATM   18  H1  UNL     1      28.964  -1.566  54.602  1.00  0.00     0.313 HD
HETATM   19  H2  UNL     1      29.187  -0.334  55.707  1.00  0.00     0.313 HD
ENDBRANCH  14  17
ENDBRANCH  10  11
ENDBRANCH   1  10
BRANCH   8  20
HETATM   20  N6  UNL     1      25.363   4.857  50.872  1.00  0.00    -0.362 N 
HETATM   21  H13 UNL     1      26.226   4.920  51.400  1.00  0.00     0.162 HD
BRANCH  20  22
HETATM   22  C10 UNL     1      25.664   4.830  49.458  1.00  0.00     0.131 A 
HETATM   23  C11 UNL     1      26.958   4.108  49.202  1.00  0.00     0.004 A 
HETATM   24  C12 UNL     1      27.790   4.924  48.601  1.00  0.00     0.022 A 
HETATM   25  C13 UNL     1      27.150   6.219  48.408  1.00  0.00     0.032 A 
HETATM   26 CL1  UNL     1      27.614   7.761  47.704  1.00  0.00    -0.085 Cl
HETATM   27  C14 UNL     1      25.926   6.158  48.904  1.00  0.00     0.026 A 
ENDBRANCH  20  22
ENDBRANCH   8  20
TORSDOF 5
ENDMDL
MODEL 4
REMARK VINA RESULT:      -7.8      2.606      4.755
REMARK  5 active torsions:
REMARK  status: ('A' for Active; 'I' for Inactive)
REMARK    1  A    between atoms: N1_1  and  C1_2 
REMARK    2  A    between atoms: N2_5  and  C4_6 
REMARK    3  A    between atoms: C4_6  and  C5_7 
REMARK    4  A    between atoms: C9_14  and  N6_15 
REMARK    5  A    between atoms: N6_15  and  C10_16 
ROOT
HETATM    1  C5  UNL     1      25.674   1.657  52.049  1.00  0.00    -0.007 A 
HETATM    2  C6  UNL     1      26.822   2.469  51.999  1.00  0.00     0.030 A 
HETATM    3  C7  UNL     1      27.681   2.205  53.046  1.00  0.00     0.119 A 
HETATM    4  N3  UNL     1      27.050   1.232  53.728  1.00  0.00    -0.240 N 
HETATM    5  N4  UNL     1      27.448   0.616  54.827  1.00  0.00    -0.161 NA
HETATM    6  C8  UNL     1      26.685  -0.342  55.382  1.00  0.00     0.258 A 
HETATM    7  N5  UNL     1      25.490  -0.693  54.816  1.00  0.00    -0.221 NA
HETATM    8  C9  UNL     1      25.068  -0.079  53.700  1.00  0.00     0.155 A 
HETATM    9  C15 UNL     1      25.887   0.896  53.173  1.00  0.00     0.111 A 
ENDROOT
BRANCH   1  10
HETATM   10  C4  UNL     1      24.621   1.759  51.055  1.00  0.00     0.158 C 
BRANCH  10  11
HETATM   11  N2  UNL     1      23.954   3.013  50.934  1.00  0.00    -0.408 N 
HETATM   12  C3  UNL     1      24.458   3.902  49.971  1.00  0.00     0.119 C 
HETATM   13  C2  UNL     1      24.789   5.286  50.401  1.00  0.00     0.055 C 
HETATM   14  C1  UNL     1      23.610   5.810  51.213  1.00  0.00     0.221 C 
HETATM   15  C17 UNL     1      23.638   4.940  52.471  1.00  0.00     0.055 C 
HETATM   16  C16 UNL     1      23.402   3.515  52.131  1.00  0.00     0.119 C 
BRANCH  14  17
HETATM   17  N1  UNL     1      23.776   7.188  51.595  1.00  0.00     0.083 N 
HETATM   18  H1  UNL     1      24.429   7.281  52.415  1.00  0.00     0.313 HD
HETATM   19  H2  UNL     1      22.869   7.604  51.914  1.00  0.00     0.313 HD
ENDBRANCH  14  17
ENDBRANCH  10  11
ENDBRANCH   1  10
BRANCH   8  20
HETATM   20  N6  UNL     1      23.825  -0.464  53.127  1.00  0.00    -0.362 N 
HETATM   21  H13 UNL     1      23.496  -0.937  52.292  1.00  0.00     0.162 HD
BRANCH  20  22
HETATM   22  C10 UNL     1      22.694  -0.089  53.945  1.00  0.00     0.131 A 
HETATM   23  C11 UNL     1      22.124  -1.289  54.650  1.00  0.00     0.004 A 
HETATM   24  C12 UNL     1      20.870  -1.434  54.298  1.00  0.00     0.022 A 
HETATM   25  C13 UNL     1      20.500  -0.381  53.360  1.00  0.00     0.032 A 
HETATM   26 CL1  UNL     1      19.047   0.070  52.481  1.00  0.00    -0.085 Cl
HETATM   27  C14 UNL     1      21.555   0.390  53.161  1.00  0.00     0.026 A 
ENDBRANCH  20  22
ENDBRANCH   8  20
TORSDOF 5
ENDMDL
MODEL 5
REMARK VINA RESULT:      -7.7      2.198      4.828
REMARK  5 active torsions:
REMARK  status: ('A' for Active; 'I' for Inactive)
REMARK    1  A    between atoms: N1_1  and  C1_2 
REMARK    2  A    between atoms: N2_5  and  C4_6 
REMARK    3  A    between atoms: C4_6  and  C5_7 
REMARK    4  A    between atoms: C9_14  and  N6_15 
REMARK    5  A    between atoms: N6_15  and  C10_16 
ROOT
HETATM    1  C5  UNL     1      23.608  -0.196  53.273  1.00  0.00    -0.007 A 
HETATM    2  C6  UNL     1      23.255  -0.856  54.464  1.00  0.00     0.030 A 
HETATM    3  C7  UNL     1      21.926  -0.659  54.782  1.00  0.00     0.119 A 
HETATM    4  N3  UNL     1      21.478   0.119  53.781  1.00  0.00    -0.240 N 
HETATM    5  N4  UNL     1      20.261   0.602  53.604  1.00  0.00    -0.161 NA
HETATM    6  C8  UNL     1      19.985   1.372  52.537  1.00  0.00     0.258 A 
HETATM    7  N5  UNL     1      20.958   1.665  51.622  1.00  0.00    -0.221 NA
HETATM    8  C9  UNL     1      22.200   1.186  51.784  1.00  0.00     0.155 A 
HETATM    9  C15 UNL     1      22.430   0.403  52.894  1.00  0.00     0.111 A 
ENDROOT
BRANCH   1  10
HETATM   10  C4  UNL     1      24.957  -0.251  52.739  1.00  0.00     0.158 C 
BRANCH  10  11
HETATM   11  N2  UNL     1      26.017   0.163  53.597  1.00  0.00    -0.408 N 
HETATM   12  C3  UNL     1      26.113   1.539  53.859  1.00  0.00     0.119 C 
HETATM   13  C2  UNL     1      27.420   2.207  53.626  1.00  0.00     0.055 C 
HETATM   14  C1  UNL     1      28.499   1.347  54.274  1.00  0.00     0.221 C 
HETATM   15  C17 UNL     1      28.495   0.078  53.419  1.00  0.00     0.055 C 
HETATM   16  C16 UNL     1      27.188  -0.620  53.519  1.00  0.00     0.119 C 
BRANCH  14  17
HETATM   17  N1  UNL     1      29.803   1.954  54.201  1.00  0.00     0.083 N 
HETATM   18  H1  UNL     1      30.521   1.273  53.841  1.00  0.00     0.313 HD
HETATM   19  H2  UNL     1      30.141   2.237  55.151  1.00  0.00     0.313 HD
ENDBRANCH  14  17
ENDBRANCH  10  11
ENDBRANCH   1  10
BRANCH   8  20
HETATM   20  N6  UNL     1      23.194   1.499  50.817  1.00  0.00    -0.362 N 
HETATM   21  H13 UNL     1      23.672   1.035  50.052  1.00  0.00     0.162 HD
BRANCH  20  22
HETATM   22  C10 UNL     1      23.673   2.858  50.931  1.00  0.00     0.131 A 
HETATM   23  C11 UNL     1      23.071   3.728  49.862  1.00  0.00     0.004 A 
HETATM   24  C12 UNL     1      24.035   4.241  49.136  1.00  0.00     0.022 A 
HETATM   25  C13 UNL     1      25.323   3.777  49.636  1.00  0.00     0.032 A 
HETATM   26 CL1  UNL     1      27.007   4.024  49.199  1.00  0.00    -0.085 Cl
HETATM   27  C14 UNL     1      25.108   2.982  50.669  1.00  0.00     0.026 A 
ENDBRANCH  20  22
ENDBRANCH   8  20
TORSDOF 5
ENDMDL
MODEL 6
REMARK VINA RESULT:      -7.5      2.438      3.977
REMARK  5 active torsions:
REMARK  status: ('A' for Active; 'I' for Inactive)
REMARK    1  A    between atoms: N1_1  and  C1_2 
REMARK    2  A    between atoms: N2_5  and  C4_6 
REMARK    3  A    between atoms: C4_6  and  C5_7 
REMARK    4  A    between atoms: C9_14  and  N6_15 
REMARK    5  A    between atoms: N6_15  and  C10_16 
ROOT
HETATM    1  C5  UNL     1      22.671  -0.360  53.180  1.00  0.00    -0.007 A 
HETATM    2  C6  UNL     1      22.079  -1.140  54.190  1.00  0.00     0.030 A 
HETATM    3  C7  UNL     1      22.976  -1.444  55.193  1.00  0.00     0.119 A 
HETATM    4  N3  UNL     1      24.111  -0.847  54.787  1.00  0.00    -0.240 N 
HETATM    5  N4  UNL     1      25.286  -0.829  55.391  1.00  0.00    -0.161 NA
HETATM    6  C8  UNL     1      26.324  -0.177  54.839  1.00  0.00     0.258 A 
HETATM    7  N5  UNL     1      26.177   0.477  53.647  1.00  0.00    -0.221 NA
HETATM    8  C9  UNL     1      24.993   0.472  53.017  1.00  0.00     0.155 A 
HETATM    9  C15 UNL     1      23.963  -0.212  53.625  1.00  0.00     0.111 A 
ENDROOT
BRANCH   1  10
HETATM   10  C4  UNL     1      21.925   0.078  52.015  1.00  0.00     0.158 C 
BRANCH  10  11
HETATM   11  N2  UNL     1      20.746   0.846  52.242  1.00  0.00    -0.408 N 
HETATM   12  C3  UNL     1      19.641   0.559  51.424  1.00  0.00     0.119 C 
HETATM   13  C2  UNL     1      18.995   1.685  50.701  1.00  0.00     0.055 C 
HETATM   14  C1  UNL     1      18.783   2.815  51.702  1.00  0.00     0.221 C 
HETATM   15  C17 UNL     1      20.209   3.263  52.029  1.00  0.00     0.055 C 
HETATM   16  C16 UNL     1      20.969   2.167  52.682  1.00  0.00     0.119 C 
BRANCH  14  17
HETATM   17  N1  UNL     1      18.064   3.925  51.134  1.00  0.00     0.083 N 
HETATM   18  H1  UNL     1      18.724   4.651  50.752  1.00  0.00     0.313 HD
HETATM   19  H2  UNL     1      17.497   4.421  51.862  1.00  0.00     0.313 HD
ENDBRANCH  14  17
ENDBRANCH  10  11
ENDBRANCH   1  10
BRANCH   8  20
HETATM   20  N6  UNL     1      24.863   1.163  51.782  1.00  0.00    -0.362 N 
HETATM   21  H13 UNL     1      24.545   0.966  50.839  1.00  0.00     0.162 HD
BRANCH  20  22
HETATM   22  C10 UNL     1      25.295   2.540  51.866  1.00  0.00     0.131 A 
HETATM   23  C11 UNL     1      24.208   3.471  51.405  1.00  0.00     0.004 A 
HETATM   24  C12 UNL     1      24.651   4.176  50.392  1.00  0.00     0.022 A 
HETATM   25  C13 UNL     1      26.026   3.793  50.095  1.00  0.00     0.032 A 
HETATM   26 CL1  UNL     1      27.242   4.276  48.922  1.00  0.00    -0.085 Cl
HETATM   27  C14 UNL     1      26.391   2.852  50.947  1.00  0.00     0.026 A 
ENDBRANCH  20  22
ENDBRANCH   8  20
TORSDOF 5
ENDMDL
MODEL 7
REMARK VINA RESULT:      -7.4      2.937      4.970
REMARK  5 active torsions:
REMARK  status: ('A' for Active; 'I' for Inactive)
REMARK    1  A    between atoms: N1_1  and  C1_2 
REMARK    2  A    between atoms: N2_5  and  C4_6 
REMARK    3  A    between atoms: C4_6  and  C5_7 
REMARK    4  A    between atoms: C9_14  and  N6_15 
REMARK    5  A    between atoms: N6_15  and  C10_16 
ROOT
HETATM    1  C5  UNL     1      23.333   1.636  52.736  1.00  0.00    -0.007 A 
HETATM    2  C6  UNL     1      22.697   0.509  53.288  1.00  0.00     0.030 A 
HETATM    3  C7  UNL     1      23.567  -0.554  53.423  1.00  0.00     0.119 A 
HETATM    4  N3  UNL     1      24.728  -0.067  52.951  1.00  0.00    -0.240 N 
HETATM    5  N4  UNL     1      25.894  -0.684  52.856  1.00  0.00    -0.161 NA
HETATM    6  C8  UNL     1      26.963  -0.041  52.354  1.00  0.00     0.258 A 
HETATM    7  N5  UNL     1      26.860   1.258  51.939  1.00  0.00    -0.221 NA
HETATM    8  C9  UNL     1      25.686   1.902  52.028  1.00  0.00     0.155 A 
HETATM    9  C15 UNL     1      24.622   1.198  52.547  1.00  0.00     0.111 A 
ENDROOT
BRANCH   1  10
HETATM   10  C4  UNL     1      22.618   2.875  52.492  1.00  0.00     0.158 C 
BRANCH  10  11
HETATM   11  N2  UNL     1      21.547   2.839  51.553  1.00  0.00    -0.408 N 
HETATM   12  C3  UNL     1      20.246   2.860  52.083  1.00  0.00     0.119 C 
HETATM   13  C2  UNL     1      19.297   1.801  51.650  1.00  0.00     0.055 C 
HETATM   14  C1  UNL     1      19.376   1.705  50.131  1.00  0.00     0.221 C 
HETATM   15  C17 UNL     1      20.785   1.160  49.888  1.00  0.00     0.055 C 
HETATM   16  C16 UNL     1      21.811   2.117  50.371  1.00  0.00     0.119 C 
BRANCH  14  17
HETATM   17  N1  UNL     1      18.417   0.779  49.588  1.00  0.00     0.083 N 
HETATM   18  H1  UNL     1      17.456   1.207  49.545  1.00  0.00     0.313 HD
HETATM   19  H2  UNL     1      18.317  -0.065  50.201  1.00  0.00     0.313 HD
ENDBRANCH  14  17
ENDBRANCH  10  11
ENDBRANCH   1  10
BRANCH   8  20
HETATM   20  N6  UNL     1      25.604   3.254  51.595  1.00  0.00    -0.362 N 
HETATM   21  H13 UNL     1      25.598   4.179  52.013  1.00  0.00     0.162 HD
BRANCH  20  22
HETATM   22  C10 UNL     1      25.504   3.374  50.158  1.00  0.00     0.131 A 
HETATM   23  C11 UNL     1      26.840   3.711  49.556  1.00  0.00     0.004 A 
HETATM   24  C12 UNL     1      26.742   4.846  48.908  1.00  0.00     0.022 A 
HETATM   25  C13 UNL     1      25.380   5.354  49.015  1.00  0.00     0.032 A 
HETATM   26 CL1  UNL     1      24.513   6.767  48.433  1.00  0.00    -0.085 Cl
HETATM   27  C14 UNL     1      24.672   4.502  49.736  1.00  0.00     0.026 A 
ENDBRANCH  20  22
ENDBRANCH   8  20
TORSDOF 5
ENDMDL
MODEL 8
REMARK VINA RESULT:      -7.3      2.750      5.021
REMARK  5 active torsions:
REMARK  status: ('A' for Active; 'I' for Inactive)
REMARK    1  A    between atoms: N1_1  and  C1_2 
REMARK    2  A    between atoms: N2_5  and  C4_6 
REMARK    3  A    between atoms: C4_6  and  C5_7 
REMARK    4  A    between atoms: C9_14  and  N6_15 
REMARK    5  A    between atoms: N6_15  and  C10_16 
ROOT
HETATM    1  C5  UNL     1      24.862   0.876  52.763  1.00  0.00    -0.007 A 
HETATM    2  C6  UNL     1      26.146   0.813  53.334  1.00  0.00     0.030 A 
HETATM    3  C7  UNL     1      26.173  -0.008  54.442  1.00  0.00     0.119 A 
HETATM    4  N3  UNL     1      24.904  -0.441  54.539  1.00  0.00    -0.240 N 
HETATM    5  N4  UNL     1      24.387  -1.261  55.439  1.00  0.00    -0.161 NA
HETATM    6  C8  UNL     1      23.084  -1.591  55.387  1.00  0.00     0.258 A 
HETATM    7  N5  UNL     1      22.279  -1.086  54.404  1.00  0.00    -0.221 NA
HETATM    8  C9  UNL     1      22.783  -0.253  53.482  1.00  0.00     0.155 A 
HETATM    9  C15 UNL     1      24.123   0.054  53.581  1.00  0.00     0.111 A 
ENDROOT
BRANCH   1  10
HETATM   10  C4  UNL     1      24.584   1.685  51.590  1.00  0.00     0.158 C 
BRANCH  10  11
HETATM   11  N2  UNL     1      24.658   3.101  51.738  1.00  0.00    -0.408 N 
HETATM   12  C3  UNL     1      23.852   3.671  52.737  1.00  0.00     0.119 C 
HETATM   13  C2  UNL     1      22.953   4.791  52.355  1.00  0.00     0.055 C 
HETATM   14  C1  UNL     1      23.773   5.783  51.539  1.00  0.00     0.221 C 
HETATM   15  C17 UNL     1      24.082   5.010  50.256  1.00  0.00     0.055 C 
HETATM   16  C16 UNL     1      24.911   3.814  50.548  1.00  0.00     0.119 C 
BRANCH  14  17
HETATM   17  N1  UNL     1      23.027   6.968  51.203  1.00  0.00     0.083 N 
HETATM   18  H1  UNL     1      22.916   7.065  50.160  1.00  0.00     0.313 HD
HETATM   19  H2  UNL     1      23.533   7.833  51.509  1.00  0.00     0.313 HD
ENDBRANCH  14  17
ENDBRANCH  10  11
ENDBRANCH   1  10
BRANCH   8  20
HETATM   20  N6  UNL     1      21.928   0.255  52.467  1.00  0.00    -0.362 N 
HETATM   21  H13 UNL     1      21.949   0.385  51.461  1.00  0.00     0.162 HD
BRANCH  20  22
HETATM   22  C10 UNL     1      20.663   0.723  52.986  1.00  0.00     0.131 A 
HETATM   23  C11 UNL     1      19.517   0.001  52.332  1.00  0.00     0.004 A 
HETATM   24  C12 UNL     1      18.745   0.877  51.737  1.00  0.00     0.022 A 
HETATM   25  C13 UNL     1      19.285   2.217  51.931  1.00  0.00     0.032 A 
HETATM   26 CL1  UNL     1      18.825   3.842  51.450  1.00  0.00    -0.085 Cl
HETATM   27  C14 UNL     1      20.389   2.121  52.651  1.00  0.00     0.026 A 
ENDBRANCH  20  22
ENDBRANCH   8  20
TORSDOF 5
ENDMDL
MODEL 9
REMARK VINA RESULT:      -7.0      1.369      2.060
REMARK  5 active torsions:
REMARK  status: ('A' for Active; 'I' for Inactive)
REMARK    1  A    between atoms: N1_1  and  C1_2 
REMARK    2  A    between atoms: N2_5  and  C4_6 
REMARK    3  A    between atoms: C4_6  and  C5_7 
REMARK    4  A    between atoms: C9_14  and  N6_15 
REMARK    5  A    between atoms: N6_15  and  C10_16 
ROOT
HETATM    1  C5  UNL     1      23.737   0.836  52.353  1.00  0.00    -0.007 A 
HETATM    2  C6  UNL     1      22.397   0.425  52.236  1.00  0.00     0.030 A 
HETATM    3  C7  UNL     1      22.035  -0.434  53.254  1.00  0.00     0.119 A 
HETATM    4  N3  UNL     1      23.159  -0.540  53.985  1.00  0.00    -0.240 N 
HETATM    5  N4  UNL     1      23.355  -1.250  55.083  1.00  0.00    -0.161 NA
HETATM    6  C8  UNL     1      24.555  -1.242  55.691  1.00  0.00     0.258 A 
HETATM    7  N5  UNL     1      25.585  -0.500  55.184  1.00  0.00    -0.221 NA
HETATM    8  C9  UNL     1      25.407   0.228  54.071  1.00  0.00     0.155 A 
HETATM    9  C15 UNL     1      24.160   0.184  53.487  1.00  0.00     0.111 A 
ENDROOT
BRANCH   1  10
HETATM   10  C4  UNL     1      24.348   1.736  51.391  1.00  0.00     0.158 C 
BRANCH  10  11
HETATM   11  N2  UNL     1      24.457   3.109  51.756  1.00  0.00    -0.408 N 
HETATM   12  C3  UNL     1      23.482   3.604  52.638  1.00  0.00     0.119 C 
HETATM   13  C2  UNL     1      22.742   4.831  52.245  1.00  0.00     0.055 C 
HETATM   14  C1  UNL     1      23.766   5.855  51.771  1.00  0.00     0.221 C 
HETATM   15  C17 UNL     1      24.308   5.237  50.481  1.00  0.00     0.055 C 
HETATM   16  C16 UNL     1      24.995   3.951  50.762  1.00  0.00     0.119 C 
BRANCH  14  17
HETATM   17  N1  UNL     1      23.169   7.128  51.463  1.00  0.00     0.083 N 
HETATM   18  H1  UNL     1      23.696   7.917  51.918  1.00  0.00     0.313 HD
HETATM   19  H2  UNL     1      22.195   7.191  51.844  1.00  0.00     0.313 HD
ENDBRANCH  14  17
ENDBRANCH  10  11
ENDBRANCH   1  10
BRANCH   8  20
HETATM   20  N6  UNL     1      26.491   0.996  53.566  1.00  0.00    -0.362 N 
HETATM   21  H13 UNL     1      26.847   1.942  53.652  1.00  0.00     0.162 HD
BRANCH  20  22
HETATM   22  C10 UNL     1      27.344   0.240  52.677  1.00  0.00     0.131 A 
HETATM   23  C11 UNL     1      26.805  -1.150  52.474  1.00  0.00     0.004 A 
HETATM   24  C12 UNL     1      27.705  -2.018  52.866  1.00  0.00     0.022 A 
HETATM   25  C13 UNL     1      28.886  -1.313  53.350  1.00  0.00     0.032 A 
HETATM   26 CL1  UNL     1      30.446  -1.776  54.012  1.00  0.00    -0.085 Cl
HETATM   27  C14 UNL     1      28.671  -0.014  53.238  1.00  0.00     0.026 A 
ENDBRANCH  20  22
ENDBRANCH   8  20
TORSDOF 5
ENDMDL
