MODEL 1
REMARK VINA RESULT:      -9.0      0.000      0.000
REMARK  2 active torsions:
REMARK  status: ('A' for Active; 'I' for Inactive)
REMARK    1  A    between atoms: C3_3  and  C4_4 
REMARK    2  A    between atoms: C13_17  and  N2_18 
ROOT
HETATM    1  C4  UNL     1      24.341  -0.500  53.870  1.00  0.00     0.035 C 
HETATM    2  C5  UNL     1      25.078   0.362  53.233  1.00  0.00     0.079 C 
HETATM    3  O1  UNL     1      24.349   1.289  52.476  1.00  0.00    -0.309 OA
HETATM    4  C6  UNL     1      24.823   2.132  51.454  1.00  0.00     0.127 A 
HETATM    5  C7  UNL     1      26.137   2.611  51.442  1.00  0.00     0.065 A 
HETATM    6  C8  UNL     1      26.545   3.436  50.410  1.00  0.00     0.035 A 
HETATM    7  C9  UNL     1      25.653   3.775  49.408  1.00  0.00     0.046 A 
HETATM    8  C10 UNL     1      24.355   3.291  49.435  1.00  0.00     0.141 A 
HETATM    9  F1  UNL     1      23.406   3.577  48.484  1.00  0.00    -0.204 F 
HETATM   10  C11 UNL     1      23.924   2.467  50.455  1.00  0.00     0.108 A 
HETATM   11 CL1  UNL     1      22.316   1.810  50.577  1.00  0.00    -0.078 Cl
HETATM   12  N1  UNL     1      27.214   2.393  52.362  1.00  0.00    -0.375 N 
HETATM   13  C12 UNL     1      27.048   1.711  53.630  1.00  0.00     0.162 C 
HETATM   14  C13 UNL     1      28.368   1.383  54.245  1.00  0.00     0.043 C 
HETATM   15  C14 UNL     1      28.327   0.152  54.749  1.00  0.00     0.110 C 
HETATM   16  N3  UNL     1      27.014  -0.395  54.505  1.00  0.00    -0.384 N 
HETATM   17  C15 UNL     1      26.535   0.310  53.345  1.00  0.00     0.167 C 
HETATM   18  H9  UNL     1      28.131   2.779  52.017  1.00  0.00     0.160 HD
HETATM   19  H14 UNL     1      26.727  -1.147  55.201  1.00  0.00     0.159 HD
ENDROOT
BRANCH   1  20
HETATM   20  C3  UNL     1      22.898  -0.479  53.786  1.00  0.00    -0.002 C 
HETATM   21  C2  UNL     1      22.163  -1.437  54.326  1.00  0.00    -0.031 C 
HETATM   22  C1  UNL     1      20.671  -1.389  54.222  1.00  0.00     0.036 C 
ENDBRANCH   1  20
BRANCH  14  23
HETATM   23  N2  UNL     1      29.511   2.258  54.291  1.00  0.00    -0.400 N 
HETATM   24  H11 UNL     1      30.126   1.987  53.471  1.00  0.00     0.156 HD
HETATM   25  H12 UNL     1      29.737   3.014  54.962  1.00  0.00     0.156 HD
ENDBRANCH  14  23
TORSDOF 2
ENDMDL
MODEL 2
REMARK VINA RESULT:      -8.4      2.189      4.864
REMARK  2 active torsions:
REMARK  status: ('A' for Active; 'I' for Inactive)
REMARK    1  A    between atoms: C3_3  and  C4_4 
REMARK    2  A    between atoms: C13_17  and  N2_18 
ROOT
HETATM    1  C4  UNL     1      24.949   2.546  51.182  1.00  0.00     0.035 C 
HETATM    2  C5  UNL     1      25.041   1.725  52.187  1.00  0.00     0.079 C 
HETATM    3  O1  UNL     1      24.026   0.760  52.233  1.00  0.00    -0.309 OA
HETATM    4  C6  UNL     1      23.659  -0.055  53.319  1.00  0.00     0.127 A 
HETATM    5  C7  UNL     1      24.588  -0.462  54.283  1.00  0.00     0.065 A 
HETATM    6  C8  UNL     1      24.167  -1.264  55.329  1.00  0.00     0.035 A 
HETATM    7  C9  UNL     1      22.840  -1.651  55.407  1.00  0.00     0.046 A 
HETATM    8  C10 UNL     1      21.935  -1.238  54.444  1.00  0.00     0.141 A 
HETATM    9  F1  UNL     1      20.602  -1.574  54.444  1.00  0.00    -0.204 F 
HETATM   10  C11 UNL     1      22.331  -0.438  53.391  1.00  0.00     0.108 A 
HETATM   11 CL1  UNL     1      21.268   0.132  52.134  1.00  0.00    -0.078 Cl
HETATM   12  N1  UNL     1      25.989  -0.187  54.398  1.00  0.00    -0.375 N 
HETATM   13  C12 UNL     1      26.753   0.484  53.366  1.00  0.00     0.162 C 
HETATM   14  C13 UNL     1      28.103   0.883  53.864  1.00  0.00     0.043 C 
HETATM   15  C14 UNL     1      28.388   2.110  53.434  1.00  0.00     0.110 C 
HETATM   16  N3  UNL     1      27.275   2.586  52.647  1.00  0.00    -0.384 N 
HETATM   17  C15 UNL     1      26.138   1.856  53.145  1.00  0.00     0.167 C 
HETATM   18  H9  UNL     1      26.398  -0.522  55.309  1.00  0.00     0.160 HD
HETATM   19  H14 UNL     1      27.542   3.321  51.926  1.00  0.00     0.159 HD
ENDROOT
BRANCH   1  20
HETATM   20  C3  UNL     1      23.881   2.447  50.213  1.00  0.00    -0.002 C 
HETATM   21  C2  UNL     1      23.755   3.329  49.235  1.00  0.00    -0.031 C 
HETATM   22  C1  UNL     1      22.639   3.202  48.247  1.00  0.00     0.036 C 
ENDBRANCH   1  20
BRANCH  14  23
HETATM   23  N2  UNL     1      28.967   0.071  54.680  1.00  0.00    -0.400 N 
HETATM   24  H11 UNL     1      29.747  -0.265  54.046  1.00  0.00     0.156 HD
HETATM   25  H12 UNL     1      28.891  -0.169  55.685  1.00  0.00     0.156 HD
ENDBRANCH  14  23
TORSDOF 2
ENDMDL
MODEL 3
REMARK VINA RESULT:      -8.3      2.981      4.834
REMARK  2 active torsions:
REMARK  status: ('A' for Active; 'I' for Inactive)
REMARK    1  A    between atoms: C3_3  and  C4_4 
REMARK    2  A    between atoms: C13_17  and  N2_18 
ROOT
HETATM    1  C4  UNL     1      22.888   1.632  52.158  1.00  0.00     0.035 C 
HETATM    2  C5  UNL     1      24.138   1.993  52.170  1.00  0.00     0.079 C 
HETATM    3  O1  UNL     1      25.008   1.029  52.696  1.00  0.00    -0.309 OA
HETATM    4  C6  UNL     1      26.334   1.207  53.130  1.00  0.00     0.127 A 
HETATM    5  C7  UNL     1      27.170   2.179  52.569  1.00  0.00     0.065 A 
HETATM    6  C8  UNL     1      28.465   2.307  53.038  1.00  0.00     0.035 A 
HETATM    7  C9  UNL     1      28.914   1.478  54.051  1.00  0.00     0.046 A 
HETATM    8  C10 UNL     1      28.072   0.523  54.595  1.00  0.00     0.141 A 
HETATM    9  F1  UNL     1      28.435  -0.341  55.602  1.00  0.00    -0.204 F 
HETATM   10  C11 UNL     1      26.776   0.375  54.144  1.00  0.00     0.108 A 
HETATM   11 CL1  UNL     1      25.645  -0.795  54.764  1.00  0.00    -0.078 Cl
HETATM   12  N1  UNL     1      26.920   3.130  51.527  1.00  0.00    -0.375 N 
HETATM   13  C12 UNL     1      25.713   3.129  50.725  1.00  0.00     0.162 C 
HETATM   14  C13 UNL     1      25.597   4.381  49.919  1.00  0.00     0.043 C 
HETATM   15  C14 UNL     1      24.340   4.816  49.959  1.00  0.00     0.110 C 
HETATM   16  N3  UNL     1      23.569   3.906  50.770  1.00  0.00    -0.384 N 
HETATM   17  C15 UNL     1      24.529   3.307  51.660  1.00  0.00     0.167 C 
HETATM   18  H9  UNL     1      27.703   3.824  51.410  1.00  0.00     0.160 HD
HETATM   19  H14 UNL     1      22.532   3.892  50.532  1.00  0.00     0.159 HD
ENDROOT
BRANCH   1  20
HETATM   20  C3  UNL     1      22.464   0.341  52.652  1.00  0.00    -0.002 C 
HETATM   21  C2  UNL     1      21.919   0.208  53.850  1.00  0.00    -0.031 C 
HETATM   22  C1  UNL     1      21.490  -1.141  54.335  1.00  0.00     0.036 C 
ENDBRANCH   1  20
BRANCH  14  23
HETATM   23  N2  UNL     1      26.673   5.021  49.208  1.00  0.00    -0.400 N 
HETATM   24  H11 UNL     1      26.659   4.622  48.226  1.00  0.00     0.156 HD
HETATM   25  H12 UNL     1      27.351   5.731  49.537  1.00  0.00     0.156 HD
ENDBRANCH  14  23
TORSDOF 2
ENDMDL
MODEL 4
REMARK VINA RESULT:      -7.8      3.282      5.490
REMARK  2 active torsions:
REMARK  status: ('A' for Active; 'I' for Inactive)
REMARK    1  A    between atoms: C3_3  and  C4_4 
REMARK    2  A    between atoms: C13_17  and  N2_18 
ROOT
HETATM    1  C4  UNL     1      26.250   2.231  51.708  1.00  0.00     0.035 C 
HETATM    2  C5  UNL     1      25.023   2.662  51.732  1.00  0.00     0.079 C 
HETATM    3  O1  UNL     1      24.170   1.918  52.558  1.00  0.00    -0.309 OA
HETATM    4  C6  UNL     1      22.763   1.919  52.571  1.00  0.00     0.127 A 
HETATM    5  C7  UNL     1      22.023   3.051  52.215  1.00  0.00     0.065 A 
HETATM    6  C8  UNL     1      20.641   2.991  52.247  1.00  0.00     0.035 A 
HETATM    7  C9  UNL     1      20.013   1.818  52.627  1.00  0.00     0.046 A 
HETATM    8  C10 UNL     1      20.762   0.706  52.976  1.00  0.00     0.141 A 
HETATM    9  F1  UNL     1      20.222  -0.496  53.366  1.00  0.00    -0.204 F 
HETATM   10  C11 UNL     1      22.143   0.742  52.953  1.00  0.00     0.108 A 
HETATM   11 CL1  UNL     1      23.169  -0.601  53.372  1.00  0.00    -0.078 Cl
HETATM   12  N1  UNL     1      22.456   4.351  51.796  1.00  0.00    -0.375 N 
HETATM   13  C12 UNL     1      23.842   4.773  51.827  1.00  0.00     0.162 C 
HETATM   14  C13 UNL     1      24.035   6.053  51.082  1.00  0.00     0.043 C 
HETATM   15  C14 UNL     1      25.146   5.976  50.353  1.00  0.00     0.110 C 
HETATM   16  N3  UNL     1      25.739   4.678  50.564  1.00  0.00    -0.384 N 
HETATM   17  C15 UNL     1      24.639   3.831  50.940  1.00  0.00     0.167 C 
HETATM   18  H9  UNL     1      21.663   4.960  51.465  1.00  0.00     0.160 HD
HETATM   19  H14 UNL     1      26.791   4.655  50.401  1.00  0.00     0.159 HD
ENDROOT
BRANCH   1  20
HETATM   20  C3  UNL     1      26.668   1.081  52.478  1.00  0.00    -0.002 C 
HETATM   21  C2  UNL     1      26.658  -0.136  51.959  1.00  0.00    -0.031 C 
HETATM   22  C1  UNL     1      27.096  -1.307  52.780  1.00  0.00     0.036 C 
ENDBRANCH   1  20
BRANCH  14  23
HETATM   23  N2  UNL     1      23.160   7.195  51.141  1.00  0.00    -0.400 N 
HETATM   24  H11 UNL     1      23.061   7.546  50.146  1.00  0.00     0.156 HD
HETATM   25  H12 UNL     1      22.695   7.629  51.959  1.00  0.00     0.156 HD
ENDBRANCH  14  23
TORSDOF 2
ENDMDL
MODEL 5
REMARK VINA RESULT:      -7.5      3.306      4.962
REMARK  2 active torsions:
REMARK  status: ('A' for Active; 'I' for Inactive)
REMARK    1  A    between atoms: C3_3  and  C4_4 
REMARK    2  A    between atoms: C13_17  and  N2_18 
ROOT
HETATM    1  C4  UNL     1      21.436   3.316  52.332  1.00  0.00     0.035 C 
HETATM    2  C5  UNL     1      22.727   3.240  52.186  1.00  0.00     0.079 C 
HETATM    3  O1  UNL     1      23.218   1.929  52.110  1.00  0.00    -0.309 OA
HETATM    4  C6  UNL     1      24.548   1.496  52.262  1.00  0.00     0.127 A 
HETATM    5  C7  UNL     1      25.633   2.309  51.914  1.00  0.00     0.065 A 
HETATM    6  C8  UNL     1      26.918   1.827  52.086  1.00  0.00     0.035 A 
HETATM    7  C9  UNL     1      27.113   0.556  52.597  1.00  0.00     0.046 A 
HETATM    8  C10 UNL     1      26.027  -0.234  52.935  1.00  0.00     0.141 A 
HETATM    9  F1  UNL     1      26.129  -1.506  53.447  1.00  0.00    -0.204 F 
HETATM   10  C11 UNL     1      24.735   0.223  52.773  1.00  0.00     0.108 A 
HETATM   11 CL1  UNL     1      23.309  -0.694  53.169  1.00  0.00    -0.078 Cl
HETATM   12  N1  UNL     1      25.665   3.636  51.377  1.00  0.00    -0.375 N 
HETATM   13  C12 UNL     1      24.480   4.340  50.930  1.00  0.00     0.162 C 
HETATM   14  C13 UNL     1      24.767   5.784  50.684  1.00  0.00     0.043 C 
HETATM   15  C14 UNL     1      23.770   6.522  51.168  1.00  0.00     0.110 C 
HETATM   16  N3  UNL     1      22.790   5.636  51.747  1.00  0.00    -0.384 N 
HETATM   17  C15 UNL     1      23.532   4.458  52.112  1.00  0.00     0.167 C 
HETATM   18  H9  UNL     1      26.637   4.041  51.343  1.00  0.00     0.160 HD
HETATM   19  H14 UNL     1      21.805   6.041  51.767  1.00  0.00     0.159 HD
ENDROOT
BRANCH   1  20
HETATM   20  C3  UNL     1      20.607   2.134  52.407  1.00  0.00    -0.002 C 
HETATM   21  C2  UNL     1      19.773   1.816  51.431  1.00  0.00    -0.031 C 
HETATM   22  C1  UNL     1      18.926   0.586  51.537  1.00  0.00     0.036 C 
ENDBRANCH   1  20
BRANCH  14  23
HETATM   23  N2  UNL     1      25.938   6.304  50.026  1.00  0.00    -0.400 N 
HETATM   24  H11 UNL     1      26.285   5.535  49.385  1.00  0.00     0.156 HD
HETATM   25  H12 UNL     1      26.392   7.230  50.122  1.00  0.00     0.156 HD
ENDBRANCH  14  23
TORSDOF 2
ENDMDL
MODEL 6
REMARK VINA RESULT:      -7.5      2.551      4.814
REMARK  2 active torsions:
REMARK  status: ('A' for Active; 'I' for Inactive)
REMARK    1  A    between atoms: C3_3  and  C4_4 
REMARK    2  A    between atoms: C13_17  and  N2_18 
ROOT
HETATM    1  C4  UNL     1      26.062  -0.603  54.056  1.00  0.00     0.035 C 
HETATM    2  C5  UNL     1      24.984  -0.092  53.537  1.00  0.00     0.079 C 
HETATM    3  O1  UNL     1      25.188   0.553  52.309  1.00  0.00    -0.309 OA
HETATM    4  C6  UNL     1      24.329   1.451  51.652  1.00  0.00     0.127 A 
HETATM    5  C7  UNL     1      22.938   1.382  51.796  1.00  0.00     0.065 A 
HETATM    6  C8  UNL     1      22.145   2.294  51.124  1.00  0.00     0.035 A 
HETATM    7  C9  UNL     1      22.733   3.259  50.325  1.00  0.00     0.046 A 
HETATM    8  C10 UNL     1      24.111   3.313  50.195  1.00  0.00     0.141 A 
HETATM    9  F1  UNL     1      24.776   4.235  49.423  1.00  0.00    -0.204 F 
HETATM   10  C11 UNL     1      24.924   2.413  50.854  1.00  0.00     0.108 A 
HETATM   11 CL1  UNL     1      26.662   2.401  50.754  1.00  0.00    -0.078 Cl
HETATM   12  N1  UNL     1      22.127   0.481  52.559  1.00  0.00    -0.375 N 
HETATM   13  C12 UNL     1      22.657  -0.687  53.232  1.00  0.00     0.162 C 
HETATM   14  C13 UNL     1      21.653  -1.276  54.167  1.00  0.00     0.043 C 
HETATM   15  C14 UNL     1      22.255  -1.619  55.303  1.00  0.00     0.110 C 
HETATM   16  N3  UNL     1      23.655  -1.287  55.194  1.00  0.00    -0.384 N 
HETATM   17  C15 UNL     1      23.702  -0.219  54.231  1.00  0.00     0.167 C 
HETATM   18  H9  UNL     1      21.112   0.760  52.576  1.00  0.00     0.160 HD
HETATM   19  H14 UNL     1      24.285  -1.877  55.817  1.00  0.00     0.159 HD
ENDROOT
BRANCH   1  20
HETATM   20  C3  UNL     1      27.346  -0.499  53.399  1.00  0.00    -0.002 C 
HETATM   21  C2  UNL     1      28.451  -0.258  54.084  1.00  0.00    -0.031 C 
HETATM   22  C1  UNL     1      29.766  -0.155  53.378  1.00  0.00     0.036 C 
ENDBRANCH   1  20
BRANCH  14  23
HETATM   23  N2  UNL     1      20.252  -1.451  53.887  1.00  0.00    -0.400 N 
HETATM   24  H11 UNL     1      19.752  -1.391  54.820  1.00  0.00     0.156 HD
HETATM   25  H12 UNL     1      19.773  -1.606  52.981  1.00  0.00     0.156 HD
ENDBRANCH  14  23
TORSDOF 2
ENDMDL
MODEL 7
REMARK VINA RESULT:      -7.5      2.994      5.004
REMARK  2 active torsions:
REMARK  status: ('A' for Active; 'I' for Inactive)
REMARK    1  A    between atoms: C3_3  and  C4_4 
REMARK    2  A    between atoms: C13_17  and  N2_18 
ROOT
HETATM    1  C4  UNL     1      24.434  -0.170  54.087  1.00  0.00     0.035 C 
HETATM    2  C5  UNL     1      23.773   0.474  53.170  1.00  0.00     0.079 C 
HETATM    3  O1  UNL     1      24.568   0.948  52.117  1.00  0.00    -0.309 OA
HETATM    4  C6  UNL     1      24.237   1.919  51.155  1.00  0.00     0.127 A 
HETATM    5  C7  UNL     1      22.919   2.116  50.729  1.00  0.00     0.065 A 
HETATM    6  C8  UNL     1      22.655   3.087  49.779  1.00  0.00     0.035 A 
HETATM    7  C9  UNL     1      23.692   3.847  49.267  1.00  0.00     0.046 A 
HETATM    8  C10 UNL     1      24.991   3.638  49.701  1.00  0.00     0.141 A 
HETATM    9  F1  UNL     1      26.078   4.345  49.247  1.00  0.00    -0.204 F 
HETATM   10  C11 UNL     1      25.279   2.675  50.647  1.00  0.00     0.108 A 
HETATM   11 CL1  UNL     1      26.877   2.339  51.254  1.00  0.00    -0.078 Cl
HETATM   12  N1  UNL     1      21.708   1.456  51.117  1.00  0.00    -0.375 N 
HETATM   13  C12 UNL     1      21.682   0.283  51.966  1.00  0.00     0.162 C 
HETATM   14  C13 UNL     1      20.295  -0.021  52.428  1.00  0.00     0.043 C 
HETATM   15  C14 UNL     1      20.321  -0.354  53.717  1.00  0.00     0.110 C 
HETATM   16  N3  UNL     1      21.689  -0.293  54.174  1.00  0.00    -0.384 N 
HETATM   17  C15 UNL     1      22.326   0.650  53.292  1.00  0.00     0.167 C 
HETATM   18  H9  UNL     1      20.847   1.914  50.720  1.00  0.00     0.160 HD
HETATM   19  H14 UNL     1      21.891  -0.923  55.007  1.00  0.00     0.159 HD
ENDROOT
BRANCH   1  20
HETATM   20  C3  UNL     1      25.864  -0.365  54.000  1.00  0.00    -0.002 C 
HETATM   21  C2  UNL     1      26.698   0.302  54.781  1.00  0.00    -0.031 C 
HETATM   22  C1  UNL     1      28.173   0.080  54.668  1.00  0.00     0.036 C 
ENDBRANCH   1  20
BRANCH  14  23
HETATM   23  N2  UNL     1      19.110   0.035  51.612  1.00  0.00    -0.400 N 
HETATM   24  H11 UNL     1      19.244  -0.682  50.843  1.00  0.00     0.156 HD
HETATM   25  H12 UNL     1      18.270   0.633  51.709  1.00  0.00     0.156 HD
ENDBRANCH  14  23
TORSDOF 2
ENDMDL
MODEL 8
REMARK VINA RESULT:      -7.3      3.368      5.333
REMARK  2 active torsions:
REMARK  status: ('A' for Active; 'I' for Inactive)
REMARK    1  A    between atoms: C3_3  and  C4_4 
REMARK    2  A    between atoms: C13_17  and  N2_18 
ROOT
HETATM    1  C4  UNL     1      26.683   2.379  51.034  1.00  0.00     0.035 C 
HETATM    2  C5  UNL     1      25.672   3.177  50.848  1.00  0.00     0.079 C 
HETATM    3  O1  UNL     1      24.626   2.999  51.763  1.00  0.00    -0.309 OA
HETATM    4  C6  UNL     1      23.302   3.462  51.661  1.00  0.00     0.127 A 
HETATM    5  C7  UNL     1      22.981   4.636  50.971  1.00  0.00     0.065 A 
HETATM    6  C8  UNL     1      21.660   5.041  50.905  1.00  0.00     0.035 A 
HETATM    7  C9  UNL     1      20.678   4.282  51.518  1.00  0.00     0.046 A 
HETATM    8  C10 UNL     1      21.013   3.122  52.196  1.00  0.00     0.141 A 
HETATM    9  F1  UNL     1      20.104   2.311  52.832  1.00  0.00    -0.204 F 
HETATM   10  C11 UNL     1      22.325   2.698  52.277  1.00  0.00     0.108 A 
HETATM   11 CL1  UNL     1      22.844   1.256  53.105  1.00  0.00    -0.078 Cl
HETATM   12  N1  UNL     1      23.823   5.562  50.274  1.00  0.00    -0.375 N 
HETATM   13  C12 UNL     1      25.270   5.502  50.310  1.00  0.00     0.162 C 
HETATM   14  C13 UNL     1      25.875   6.402  49.284  1.00  0.00     0.043 C 
HETATM   15  C14 UNL     1      26.890   5.777  48.691  1.00  0.00     0.110 C 
HETATM   16  N3  UNL     1      27.014   4.461  49.270  1.00  0.00    -0.384 N 
HETATM   17  C15 UNL     1      25.696   4.152  49.758  1.00  0.00     0.167 C 
HETATM   18  H9  UNL     1      23.277   6.286  49.737  1.00  0.00     0.160 HD
HETATM   19  H14 UNL     1      27.995   4.055  49.204  1.00  0.00     0.159 HD
ENDROOT
BRANCH   1  20
HETATM   20  C3  UNL     1      26.697   1.403  52.102  1.00  0.00    -0.002 C 
HETATM   21  C2  UNL     1      26.552   0.112  51.855  1.00  0.00    -0.031 C 
HETATM   22  C1  UNL     1      26.570  -0.874  52.980  1.00  0.00     0.036 C 
ENDBRANCH   1  20
BRANCH  14  23
HETATM   23  N2  UNL     1      25.436   7.739  48.980  1.00  0.00    -0.400 N 
HETATM   24  H11 UNL     1      24.402   7.772  49.209  1.00  0.00     0.156 HD
HETATM   25  H12 UNL     1      25.976   8.543  48.612  1.00  0.00     0.156 HD
ENDBRANCH  14  23
TORSDOF 2
ENDMDL
MODEL 9
REMARK VINA RESULT:      -7.2      3.244      6.125
REMARK  2 active torsions:
REMARK  status: ('A' for Active; 'I' for Inactive)
REMARK    1  A    between atoms: C3_3  and  C4_4 
REMARK    2  A    between atoms: C13_17  and  N2_18 
ROOT
HETATM    1  C4  UNL     1      22.610   2.948  50.564  1.00  0.00     0.035 C 
HETATM    2  C5  UNL     1      22.976   1.986  51.359  1.00  0.00     0.079 C 
HETATM    3  O1  UNL     1      24.258   2.148  51.901  1.00  0.00    -0.309 OA
HETATM    4  C6  UNL     1      25.059   1.176  52.528  1.00  0.00     0.127 A 
HETATM    5  C7  UNL     1      24.502   0.103  53.233  1.00  0.00     0.065 A 
HETATM    6  C8  UNL     1      25.341  -0.821  53.828  1.00  0.00     0.035 A 
HETATM    7  C9  UNL     1      26.713  -0.674  53.719  1.00  0.00     0.046 A 
HETATM    8  C10 UNL     1      27.246   0.394  53.017  1.00  0.00     0.141 A 
HETATM    9  F1  UNL     1      28.594   0.617  52.860  1.00  0.00    -0.204 F 
HETATM   10  C11 UNL     1      26.430   1.330  52.415  1.00  0.00     0.108 A 
HETATM   11 CL1  UNL     1      27.006   2.704  51.513  1.00  0.00    -0.078 Cl
HETATM   12  N1  UNL     1      23.132  -0.241  53.471  1.00  0.00    -0.375 N 
HETATM   13  C12 UNL     1      22.024   0.625  53.119  1.00  0.00     0.162 C 
HETATM   14  C13 UNL     1      20.720  -0.095  53.222  1.00  0.00     0.043 C 
HETATM   15  C14 UNL     1      19.957   0.220  52.178  1.00  0.00     0.110 C 
HETATM   16  N3  UNL     1      20.689   1.142  51.343  1.00  0.00    -0.384 N 
HETATM   17  C15 UNL     1      22.074   0.865  51.620  1.00  0.00     0.167 C 
HETATM   18  H9  UNL     1      23.020  -1.185  53.925  1.00  0.00     0.160 HD
HETATM   19  H14 UNL     1      20.067   1.774  50.754  1.00  0.00     0.159 HD
ENDROOT
BRANCH   1  20
HETATM   20  C3  UNL     1      23.472   4.074  50.283  1.00  0.00    -0.002 C 
HETATM   21  C2  UNL     1      24.306   4.063  49.256  1.00  0.00    -0.031 C 
HETATM   22  C1  UNL     1      25.187   5.242  48.990  1.00  0.00     0.036 C 
ENDBRANCH   1  20
BRANCH  14  23
HETATM   23  N2  UNL     1      20.340  -0.991  54.283  1.00  0.00    -0.400 N 
HETATM   24  H11 UNL     1      20.339  -1.965  53.865  1.00  0.00     0.156 HD
HETATM   25  H12 UNL     1      20.105  -0.783  55.271  1.00  0.00     0.156 HD
ENDBRANCH  14  23
TORSDOF 2
ENDMDL
