MODEL 1
REMARK VINA RESULT:      -7.7      0.000      0.000
REMARK  6 active torsions:
REMARK  status: ('A' for Active; 'I' for Inactive)
REMARK    1  A    between atoms: C2_2  and  C3_3 
REMARK    2  A    between atoms: C3_3  and  C4_4 
REMARK    3  A    between atoms: C4_4  and  O1_5 
REMARK    4  A    between atoms: O1_5  and  C5_6 
REMARK    5  A    between atoms: C12_15  and  N3_16 
REMARK    6  A    between atoms: N3_16  and  C13_17 
ROOT
HETATM    1  C5  UNL     1      24.448   0.023  53.613  1.00  0.00     0.096 A 
HETATM    2  C6  UNL     1      25.648  -0.320  54.195  1.00  0.00     0.054 A 
HETATM    3  C7  UNL     1      26.755   0.490  54.227  1.00  0.00     0.013 A 
HETATM    4  C8  UNL     1      27.904   0.038  54.841  1.00  0.00     0.132 A 
HETATM    5  N1  UNL     1      28.994   0.854  54.864  1.00  0.00    -0.253 NA
HETATM    6  C9  UNL     1      28.920   2.072  54.290  1.00  0.00     0.233 A 
HETATM    7  N2  UNL     1      27.790   2.496  53.696  1.00  0.00    -0.241 NA
HETATM    8  C10 UNL     1      26.686   1.735  53.644  1.00  0.00     0.072 A 
HETATM    9  C11 UNL     1      25.494   2.097  53.056  1.00  0.00     0.065 A 
HETATM   10  C12 UNL     1      24.385   1.282  53.025  1.00  0.00     0.068 A 
ENDROOT
BRANCH  10  11
HETATM   11  N3  UNL     1      23.252   1.844  52.368  1.00  0.00    -0.354 N 
HETATM   12  H10 UNL     1      22.536   2.199  53.071  1.00  0.00     0.166 HD
BRANCH  11  13
HETATM   13  C13 UNL     1      22.973   1.982  50.983  1.00  0.00     0.032 A 
HETATM   14  C14 UNL     1      23.647   2.910  50.218  1.00  0.00     0.032 A 
HETATM   15  C15 UNL     1      23.325   2.990  48.880  1.00  0.00     0.044 A 
HETATM   16  C16 UNL     1      22.369   2.198  48.257  1.00  0.00     0.116 A 
HETATM   17  F1  UNL     1      22.099   2.328  46.929  1.00  0.00    -0.206 F 
HETATM   18  C17 UNL     1      21.703   1.270  49.048  1.00  0.00     0.044 A 
HETATM   19  C18 UNL     1      22.034   1.198  50.392  1.00  0.00     0.032 A 
ENDBRANCH  11  13
ENDBRANCH  10  11
BRANCH   1  20
HETATM   20  O1  UNL     1      23.315  -0.739  53.550  1.00  0.00    -0.347 OA
BRANCH  20  21
HETATM   21  C4  UNL     1      22.583  -1.144  54.711  1.00  0.00     0.193 C 
BRANCH  21  22
HETATM   22  C3  UNL     1      21.391  -0.259  54.767  1.00  0.00     0.093 C 
BRANCH  22  23
HETATM   23  C2  UNL     1      20.581  -0.157  53.722  1.00  0.00    -0.174 C 
HETATM   24  C1  UNL     1      19.567  -0.199  52.874  1.00  0.00     0.091 C 
ENDBRANCH  22  23
ENDBRANCH  21  22
ENDBRANCH  20  21
ENDBRANCH   1  20
TORSDOF 6
ENDMDL
MODEL 2
REMARK VINA RESULT:      -7.6      1.769      2.233
REMARK  6 active torsions:
REMARK  status: ('A' for Active; 'I' for Inactive)
REMARK    1  A    between atoms: C2_2  and  C3_3 
REMARK    2  A    between atoms: C3_3  and  C4_4 
REMARK    3  A    between atoms: C4_4  and  O1_5 
REMARK    4  A    between atoms: O1_5  and  C5_6 
REMARK    5  A    between atoms: C12_15  and  N3_16 
REMARK    6  A    between atoms: N3_16  and  C13_17 
ROOT
HETATM    1  C5  UNL     1      24.521   0.110  53.157  1.00  0.00     0.096 A 
HETATM    2  C6  UNL     1      25.596  -0.066  54.001  1.00  0.00     0.054 A 
HETATM    3  C7  UNL     1      26.760   0.657  53.935  1.00  0.00     0.013 A 
HETATM    4  C8  UNL     1      27.769   0.392  54.837  1.00  0.00     0.132 A 
HETATM    5  N1  UNL     1      28.919   1.118  54.759  1.00  0.00    -0.253 NA
HETATM    6  C9  UNL     1      29.037   2.069  53.811  1.00  0.00     0.233 A 
HETATM    7  N2  UNL     1      28.041   2.314  52.940  1.00  0.00    -0.241 NA
HETATM    8  C10 UNL     1      26.887   1.630  52.970  1.00  0.00     0.072 A 
HETATM    9  C11 UNL     1      25.823   1.822  52.117  1.00  0.00     0.065 A 
HETATM   10  C12 UNL     1      24.656   1.094  52.183  1.00  0.00     0.068 A 
ENDROOT
BRANCH  10  11
HETATM   11  N3  UNL     1      23.678   1.447  51.207  1.00  0.00    -0.354 N 
HETATM   12  H10 UNL     1      24.113   1.525  50.239  1.00  0.00     0.166 HD
BRANCH  11  13
HETATM   13  C13 UNL     1      22.288   1.694  51.352  1.00  0.00     0.032 A 
HETATM   14  C14 UNL     1      21.367   0.994  50.603  1.00  0.00     0.032 A 
HETATM   15  C15 UNL     1      20.033   1.286  50.795  1.00  0.00     0.044 A 
HETATM   16  C16 UNL     1      19.561   2.236  51.693  1.00  0.00     0.116 A 
HETATM   17  F1  UNL     1      18.229   2.475  51.834  1.00  0.00    -0.206 F 
HETATM   18  C17 UNL     1      20.509   2.928  52.437  1.00  0.00     0.044 A 
HETATM   19  C18 UNL     1      21.847   2.628  52.236  1.00  0.00     0.032 A 
ENDBRANCH  11  13
ENDBRANCH  10  11
BRANCH   1  20
HETATM   20  O1  UNL     1      23.340  -0.577  53.173  1.00  0.00    -0.347 OA
BRANCH  20  21
HETATM   21  C4  UNL     1      22.719  -1.031  54.380  1.00  0.00     0.193 C 
BRANCH  21  22
HETATM   22  C3  UNL     1      21.444  -0.275  54.488  1.00  0.00     0.093 C 
BRANCH  22  23
HETATM   23  C2  UNL     1      20.362  -0.687  53.843  1.00  0.00    -0.174 C 
HETATM   24  C1  UNL     1      19.140  -1.041  53.478  1.00  0.00     0.091 C 
ENDBRANCH  22  23
ENDBRANCH  21  22
ENDBRANCH  20  21
ENDBRANCH   1  20
TORSDOF 6
ENDMDL
MODEL 3
REMARK VINA RESULT:      -7.5      3.355      6.813
REMARK  6 active torsions:
REMARK  status: ('A' for Active; 'I' for Inactive)
REMARK    1  A    between atoms: C2_2  and  C3_3 
REMARK    2  A    between atoms: C3_3  and  C4_4 
REMARK    3  A    between atoms: C4_4  and  O1_5 
REMARK    4  A    between atoms: O1_5  and  C5_6 
REMARK    5  A    between atoms: C12_15  and  N3_16 
REMARK    6  A    between atoms: N3_16  and  C13_17 
ROOT
HETATM    1  C5  UNL     1      23.807   1.638  51.461  1.00  0.00     0.096 A 
HETATM    2  C6  UNL     1      22.523   1.212  51.718  1.00  0.00     0.054 A 
HETATM    3  C7  UNL     1      22.183   0.332  52.714  1.00  0.00     0.013 A 
HETATM    4  C8  UNL     1      20.860  -0.023  52.878  1.00  0.00     0.132 A 
HETATM    5  N1  UNL     1      20.538  -0.897  53.871  1.00  0.00    -0.253 NA
HETATM    6  C9  UNL     1      21.514  -1.388  54.661  1.00  0.00     0.233 A 
HETATM    7  N2  UNL     1      22.799  -1.031  54.487  1.00  0.00    -0.241 NA
HETATM    8  C10 UNL     1      23.174  -0.173  53.526  1.00  0.00     0.072 A 
HETATM    9  C11 UNL     1      24.465   0.241  53.285  1.00  0.00     0.065 A 
HETATM   10  C12 UNL     1      24.805   1.125  52.284  1.00  0.00     0.068 A 
ENDROOT
BRANCH  10  11
HETATM   11  N3  UNL     1      26.196   1.423  52.201  1.00  0.00    -0.354 N 
HETATM   12  H10 UNL     1      26.365   2.320  51.655  1.00  0.00     0.166 HD
BRANCH  11  13
HETATM   13  C13 UNL     1      27.315   0.722  52.722  1.00  0.00     0.032 A 
HETATM   14  C14 UNL     1      28.341   1.398  53.347  1.00  0.00     0.032 A 
HETATM   15  C15 UNL     1      29.397   0.653  53.828  1.00  0.00     0.044 A 
HETATM   16  C16 UNL     1      29.490  -0.730  53.724  1.00  0.00     0.116 A 
HETATM   17  F1  UNL     1      30.561  -1.406  54.221  1.00  0.00    -0.206 F 
HETATM   18  C17 UNL     1      28.444  -1.388  53.090  1.00  0.00     0.044 A 
HETATM   19  C18 UNL     1      27.388  -0.630  52.609  1.00  0.00     0.032 A 
ENDBRANCH  11  13
ENDBRANCH  10  11
BRANCH   1  20
HETATM   20  O1  UNL     1      24.207   2.510  50.487  1.00  0.00    -0.347 OA
BRANCH  20  21
HETATM   21  C4  UNL     1      24.024   3.925  50.586  1.00  0.00     0.193 C 
BRANCH  21  22
HETATM   22  C3  UNL     1      24.712   4.505  49.403  1.00  0.00     0.093 C 
BRANCH  22  23
HETATM   23  C2  UNL     1      26.032   4.450  49.300  1.00  0.00    -0.174 C 
HETATM   24  C1  UNL     1      27.297   4.552  48.926  1.00  0.00     0.091 C 
ENDBRANCH  22  23
ENDBRANCH  21  22
ENDBRANCH  20  21
ENDBRANCH   1  20
TORSDOF 6
ENDMDL
MODEL 4
REMARK VINA RESULT:      -7.5      3.329      5.903
REMARK  6 active torsions:
REMARK  status: ('A' for Active; 'I' for Inactive)
REMARK    1  A    between atoms: C2_2  and  C3_3 
REMARK    2  A    between atoms: C3_3  and  C4_4 
REMARK    3  A    between atoms: C4_4  and  O1_5 
REMARK    4  A    between atoms: O1_5  and  C5_6 
REMARK    5  A    between atoms: C12_15  and  N3_16 
REMARK    6  A    between atoms: N3_16  and  C13_17 
ROOT
HETATM    1  C5  UNL     1      23.871   1.360  51.876  1.00  0.00     0.096 A 
HETATM    2  C6  UNL     1      23.644   2.408  51.011  1.00  0.00     0.054 A 
HETATM    3  C7  UNL     1      24.632   3.143  50.405  1.00  0.00     0.013 A 
HETATM    4  C8  UNL     1      24.283   4.171  49.555  1.00  0.00     0.132 A 
HETATM    5  N1  UNL     1      25.275   4.891  48.962  1.00  0.00    -0.253 NA
HETATM    6  C9  UNL     1      26.561   4.580  49.220  1.00  0.00     0.233 A 
HETATM    7  N2  UNL     1      26.883   3.573  50.052  1.00  0.00    -0.241 NA
HETATM    8  C10 UNL     1      25.948   2.831  50.664  1.00  0.00     0.072 A 
HETATM    9  C11 UNL     1      26.196   1.787  51.526  1.00  0.00     0.065 A 
HETATM   10  C12 UNL     1      25.203   1.051  52.133  1.00  0.00     0.068 A 
ENDROOT
BRANCH  10  11
HETATM   11  N3  UNL     1      25.671   0.013  52.991  1.00  0.00    -0.354 N 
HETATM   12  H10 UNL     1      24.861  -0.493  53.461  1.00  0.00     0.166 HD
BRANCH  11  13
HETATM   13  C13 UNL     1      26.996  -0.405  53.282  1.00  0.00     0.032 A 
HETATM   14  C14 UNL     1      27.509  -1.557  52.726  1.00  0.00     0.032 A 
HETATM   15  C15 UNL     1      28.803  -1.903  53.053  1.00  0.00     0.044 A 
HETATM   16  C16 UNL     1      29.619  -1.166  53.904  1.00  0.00     0.116 A 
HETATM   17  F1  UNL     1      30.889  -1.564  54.185  1.00  0.00    -0.206 F 
HETATM   18  C17 UNL     1      29.079  -0.010  54.452  1.00  0.00     0.044 A 
HETATM   19  C18 UNL     1      27.777   0.329  54.118  1.00  0.00     0.032 A 
ENDBRANCH  11  13
ENDBRANCH  10  11
BRANCH   1  20
HETATM   20  O1  UNL     1      22.932   0.594  52.507  1.00  0.00    -0.347 OA
BRANCH  20  21
HETATM   21  C4  UNL     1      21.671   1.111  52.944  1.00  0.00     0.193 C 
BRANCH  21  22
HETATM   22  C3  UNL     1      21.243   0.237  54.066  1.00  0.00     0.093 C 
BRANCH  22  23
HETATM   23  C2  UNL     1      22.074  -0.663  54.572  1.00  0.00    -0.174 C 
HETATM   24  C1  UNL     1      22.878  -1.382  55.338  1.00  0.00     0.091 C 
ENDBRANCH  22  23
ENDBRANCH  21  22
ENDBRANCH  20  21
ENDBRANCH   1  20
TORSDOF 6
ENDMDL
MODEL 5
REMARK VINA RESULT:      -7.4      2.804      3.467
REMARK  6 active torsions:
REMARK  status: ('A' for Active; 'I' for Inactive)
REMARK    1  A    between atoms: C2_2  and  C3_3 
REMARK    2  A    between atoms: C3_3  and  C4_4 
REMARK    3  A    between atoms: C4_4  and  O1_5 
REMARK    4  A    between atoms: O1_5  and  C5_6 
REMARK    5  A    between atoms: C12_15  and  N3_16 
REMARK    6  A    between atoms: N3_16  and  C13_17 
ROOT
HETATM    1  C5  UNL     1      24.614   1.227  52.218  1.00  0.00     0.096 A 
HETATM    2  C6  UNL     1      25.228   0.467  53.189  1.00  0.00     0.054 A 
HETATM    3  C7  UNL     1      26.536   0.612  53.576  1.00  0.00     0.013 A 
HETATM    4  C8  UNL     1      27.043  -0.208  54.562  1.00  0.00     0.132 A 
HETATM    5  N1  UNL     1      28.343  -0.052  54.935  1.00  0.00    -0.253 NA
HETATM    6  C9  UNL     1      29.093   0.893  54.335  1.00  0.00     0.233 A 
HETATM    7  N2  UNL     1      28.582   1.685  53.374  1.00  0.00    -0.241 NA
HETATM    8  C10 UNL     1      27.308   1.576  52.968  1.00  0.00     0.072 A 
HETATM    9  C11 UNL     1      26.713   2.346  51.994  1.00  0.00     0.065 A 
HETATM   10  C12 UNL     1      25.399   2.198  51.607  1.00  0.00     0.068 A 
ENDROOT
BRANCH  10  11
HETATM   11  N3  UNL     1      24.977   3.095  50.582  1.00  0.00    -0.354 N 
HETATM   12  H10 UNL     1      23.962   2.921  50.313  1.00  0.00     0.166 HD
BRANCH  11  13
HETATM   13  C13 UNL     1      25.692   4.124  49.916  1.00  0.00     0.032 A 
HETATM   14  C14 UNL     1      25.208   5.415  49.890  1.00  0.00     0.032 A 
HETATM   15  C15 UNL     1      25.953   6.364  49.224  1.00  0.00     0.044 A 
HETATM   16  C16 UNL     1      27.157   6.103  48.580  1.00  0.00     0.116 A 
HETATM   17  F1  UNL     1      27.845   7.087  47.940  1.00  0.00    -0.206 F 
HETATM   18  C17 UNL     1      27.624   4.795  48.620  1.00  0.00     0.044 A 
HETATM   19  C18 UNL     1      26.867   3.848  49.291  1.00  0.00     0.032 A 
ENDBRANCH  11  13
ENDBRANCH  10  11
BRANCH   1  20
HETATM   20  O1  UNL     1      23.319   1.129  51.791  1.00  0.00    -0.347 OA
BRANCH  20  21
HETATM   21  C4  UNL     1      22.202   1.519  52.595  1.00  0.00     0.193 C 
BRANCH  21  22
HETATM   22  C3  UNL     1      21.447   0.270  52.872  1.00  0.00     0.093 C 
BRANCH  22  23
HETATM   23  C2  UNL     1      21.715  -0.454  53.949  1.00  0.00    -0.174 C 
HETATM   24  C1  UNL     1      22.270  -1.041  54.997  1.00  0.00     0.091 C 
ENDBRANCH  22  23
ENDBRANCH  21  22
ENDBRANCH  20  21
ENDBRANCH   1  20
TORSDOF 6
ENDMDL
MODEL 6
REMARK VINA RESULT:      -7.3      3.542      7.491
REMARK  6 active torsions:
REMARK  status: ('A' for Active; 'I' for Inactive)
REMARK    1  A    between atoms: C2_2  and  C3_3 
REMARK    2  A    between atoms: C3_3  and  C4_4 
REMARK    3  A    between atoms: C4_4  and  O1_5 
REMARK    4  A    between atoms: O1_5  and  C5_6 
REMARK    5  A    between atoms: C12_15  and  N3_16 
REMARK    6  A    between atoms: N3_16  and  C13_17 
ROOT
HETATM    1  C5  UNL     1      24.481   3.056  51.075  1.00  0.00     0.096 A 
HETATM    2  C6  UNL     1      23.441   2.798  50.209  1.00  0.00     0.054 A 
HETATM    3  C7  UNL     1      22.349   2.026  50.516  1.00  0.00     0.013 A 
HETATM    4  C8  UNL     1      21.368   1.838  49.565  1.00  0.00     0.132 A 
HETATM    5  N1  UNL     1      20.290   1.069  49.884  1.00  0.00    -0.253 NA
HETATM    6  C9  UNL     1      20.213   0.518  51.112  1.00  0.00     0.233 A 
HETATM    7  N2  UNL     1      21.180   0.713  52.028  1.00  0.00    -0.241 NA
HETATM    8  C10 UNL     1      22.263   1.461  51.768  1.00  0.00     0.072 A 
HETATM    9  C11 UNL     1      23.292   1.707  52.649  1.00  0.00     0.065 A 
HETATM   10  C12 UNL     1      24.388   2.482  52.339  1.00  0.00     0.068 A 
ENDROOT
BRANCH  10  11
HETATM   11  N3  UNL     1      25.341   2.612  53.391  1.00  0.00    -0.354 N 
HETATM   12  H10 UNL     1      25.103   3.431  54.026  1.00  0.00     0.166 HD
BRANCH  11  13
HETATM   13  C13 UNL     1      26.495   1.838  53.681  1.00  0.00     0.032 A 
HETATM   14  C14 UNL     1      26.407   0.712  54.472  1.00  0.00     0.032 A 
HETATM   15  C15 UNL     1      27.568   0.008  54.713  1.00  0.00     0.044 A 
HETATM   16  C16 UNL     1      28.815   0.360  54.210  1.00  0.00     0.116 A 
HETATM   17  F1  UNL     1      29.923  -0.380  54.486  1.00  0.00    -0.206 F 
HETATM   18  C17 UNL     1      28.878   1.498  53.416  1.00  0.00     0.044 A 
HETATM   19  C18 UNL     1      27.706   2.199  53.180  1.00  0.00     0.032 A 
ENDBRANCH  11  13
ENDBRANCH  10  11
BRANCH   1  20
HETATM   20  O1  UNL     1      25.591   3.814  50.828  1.00  0.00    -0.347 OA
BRANCH  20  21
HETATM   21  C4  UNL     1      26.492   3.546  49.749  1.00  0.00     0.193 C 
BRANCH  21  22
HETATM   22  C3  UNL     1      26.575   4.807  48.968  1.00  0.00     0.093 C 
BRANCH  22  23
HETATM   23  C2  UNL     1      27.752   5.298  48.608  1.00  0.00    -0.174 C 
HETATM   24  C1  UNL     1      29.009   5.480  48.235  1.00  0.00     0.091 C 
ENDBRANCH  22  23
ENDBRANCH  21  22
ENDBRANCH  20  21
ENDBRANCH   1  20
TORSDOF 6
ENDMDL
MODEL 7
REMARK VINA RESULT:      -7.3      2.985      5.703
REMARK  6 active torsions:
REMARK  status: ('A' for Active; 'I' for Inactive)
REMARK    1  A    between atoms: C2_2  and  C3_3 
REMARK    2  A    between atoms: C3_3  and  C4_4 
REMARK    3  A    between atoms: C4_4  and  O1_5 
REMARK    4  A    between atoms: O1_5  and  C5_6 
REMARK    5  A    between atoms: C12_15  and  N3_16 
REMARK    6  A    between atoms: N3_16  and  C13_17 
ROOT
HETATM    1  C5  UNL     1      23.005   0.758  53.024  1.00  0.00     0.096 A 
HETATM    2  C6  UNL     1      22.415   1.521  52.040  1.00  0.00     0.054 A 
HETATM    3  C7  UNL     1      23.105   2.274  51.123  1.00  0.00     0.013 A 
HETATM    4  C8  UNL     1      22.405   2.998  50.181  1.00  0.00     0.132 A 
HETATM    5  N1  UNL     1      23.103   3.741  49.279  1.00  0.00    -0.253 NA
HETATM    6  C9  UNL     1      24.451   3.747  49.331  1.00  0.00     0.233 A 
HETATM    7  N2  UNL     1      25.117   3.034  50.257  1.00  0.00    -0.241 NA
HETATM    8  C10 UNL     1      24.481   2.285  51.170  1.00  0.00     0.072 A 
HETATM    9  C11 UNL     1      25.090   1.529  52.146  1.00  0.00     0.065 A 
HETATM   10  C12 UNL     1      24.395   0.774  53.066  1.00  0.00     0.068 A 
ENDROOT
BRANCH  10  11
HETATM   11  N3  UNL     1      25.214   0.065  53.993  1.00  0.00    -0.354 N 
HETATM   12  H10 UNL     1      24.643  -0.286  54.819  1.00  0.00     0.166 HD
BRANCH  11  13
HETATM   13  C13 UNL     1      26.605  -0.213  53.958  1.00  0.00     0.032 A 
HETATM   14  C14 UNL     1      27.477   0.449  54.796  1.00  0.00     0.032 A 
HETATM   15  C15 UNL     1      28.815   0.130  54.708  1.00  0.00     0.044 A 
HETATM   16  C16 UNL     1      29.337  -0.816  53.832  1.00  0.00     0.116 A 
HETATM   17  F1  UNL     1      30.671  -1.085  53.797  1.00  0.00    -0.206 F 
HETATM   18  C17 UNL     1      28.439  -1.470  53.000  1.00  0.00     0.044 A 
HETATM   19  C18 UNL     1      27.096  -1.141  53.095  1.00  0.00     0.032 A 
ENDBRANCH  11  13
ENDBRANCH  10  11
BRANCH   1  20
HETATM   20  O1  UNL     1      22.373  -0.009  53.961  1.00  0.00    -0.347 OA
BRANCH  20  21
HETATM   21  C4  UNL     1      21.947  -1.352  53.710  1.00  0.00     0.193 C 
BRANCH  21  22
HETATM   22  C3  UNL     1      20.502  -1.389  54.053  1.00  0.00     0.093 C 
BRANCH  22  23
HETATM   23  C2  UNL     1      19.625  -0.695  53.342  1.00  0.00    -0.174 C 
HETATM   24  C1  UNL     1      18.861  -0.178  52.393  1.00  0.00     0.091 C 
ENDBRANCH  22  23
ENDBRANCH  21  22
ENDBRANCH  20  21
ENDBRANCH   1  20
TORSDOF 6
ENDMDL
MODEL 8
REMARK VINA RESULT:      -7.2      2.954      4.086
REMARK  6 active torsions:
REMARK  status: ('A' for Active; 'I' for Inactive)
REMARK    1  A    between atoms: C2_2  and  C3_3 
REMARK    2  A    between atoms: C3_3  and  C4_4 
REMARK    3  A    between atoms: C4_4  and  O1_5 
REMARK    4  A    between atoms: O1_5  and  C5_6 
REMARK    5  A    between atoms: C12_15  and  N3_16 
REMARK    6  A    between atoms: N3_16  and  C13_17 
ROOT
HETATM    1  C5  UNL     1      23.436   1.982  51.759  1.00  0.00     0.096 A 
HETATM    2  C6  UNL     1      23.564   0.828  52.501  1.00  0.00     0.054 A 
HETATM    3  C7  UNL     1      24.586   0.583  53.384  1.00  0.00     0.013 A 
HETATM    4  C8  UNL     1      24.608  -0.611  54.073  1.00  0.00     0.132 A 
HETATM    5  N1  UNL     1      25.629  -0.841  54.945  1.00  0.00    -0.253 NA
HETATM    6  C9  UNL     1      26.581   0.099  55.109  1.00  0.00     0.233 A 
HETATM    7  N2  UNL     1      26.543   1.259  54.428  1.00  0.00    -0.241 NA
HETATM    8  C10 UNL     1      25.562   1.538  53.557  1.00  0.00     0.072 A 
HETATM    9  C11 UNL     1      25.452   2.699  52.824  1.00  0.00     0.065 A 
HETATM   10  C12 UNL     1      24.426   2.943  51.938  1.00  0.00     0.068 A 
ENDROOT
BRANCH  10  11
HETATM   11  N3  UNL     1      24.497   4.205  51.279  1.00  0.00    -0.354 N 
HETATM   12  H10 UNL     1      23.692   4.837  51.569  1.00  0.00     0.166 HD
BRANCH  11  13
HETATM   13  C13 UNL     1      25.445   4.696  50.343  1.00  0.00     0.032 A 
HETATM   14  C14 UNL     1      26.387   3.856  49.788  1.00  0.00     0.032 A 
HETATM   15  C15 UNL     1      27.277   4.400  48.887  1.00  0.00     0.044 A 
HETATM   16  C16 UNL     1      27.284   5.736  48.504  1.00  0.00     0.116 A 
HETATM   17  F1  UNL     1      28.191   6.210  47.607  1.00  0.00    -0.206 F 
HETATM   18  C17 UNL     1      26.325   6.562  49.076  1.00  0.00     0.044 A 
HETATM   19  C18 UNL     1      25.435   6.006  49.982  1.00  0.00     0.032 A 
ENDBRANCH  11  13
ENDBRANCH  10  11
BRANCH   1  20
HETATM   20  O1  UNL     1      22.445   2.283  50.868  1.00  0.00    -0.347 OA
BRANCH  20  21
HETATM   21  C4  UNL     1      22.367   1.698  49.564  1.00  0.00     0.193 C 
BRANCH  21  22
HETATM   22  C3  UNL     1      21.021   1.076  49.480  1.00  0.00     0.093 C 
BRANCH  22  23
HETATM   23  C2  UNL     1      20.335   0.806  50.582  1.00  0.00    -0.174 C 
HETATM   24  C1  UNL     1      19.609   0.255  51.540  1.00  0.00     0.091 C 
ENDBRANCH  22  23
ENDBRANCH  21  22
ENDBRANCH  20  21
ENDBRANCH   1  20
TORSDOF 6
ENDMDL
MODEL 9
REMARK VINA RESULT:      -7.2      1.963      2.392
REMARK  6 active torsions:
REMARK  status: ('A' for Active; 'I' for Inactive)
REMARK    1  A    between atoms: C2_2  and  C3_3 
REMARK    2  A    between atoms: C3_3  and  C4_4 
REMARK    3  A    between atoms: C4_4  and  O1_5 
REMARK    4  A    between atoms: O1_5  and  C5_6 
REMARK    5  A    between atoms: C12_15  and  N3_16 
REMARK    6  A    between atoms: N3_16  and  C13_17 
ROOT
HETATM    1  C5  UNL     1      25.208   0.340  53.102  1.00  0.00     0.096 A 
HETATM    2  C6  UNL     1      26.138  -0.677  53.083  1.00  0.00     0.054 A 
HETATM    3  C7  UNL     1      27.487  -0.499  53.260  1.00  0.00     0.013 A 
HETATM    4  C8  UNL     1      28.322  -1.595  53.222  1.00  0.00     0.132 A 
HETATM    5  N1  UNL     1      29.659  -1.402  53.399  1.00  0.00    -0.253 NA
HETATM    6  C9  UNL     1      30.124  -0.154  53.606  1.00  0.00     0.233 A 
HETATM    7  N2  UNL     1      29.293   0.904  53.641  1.00  0.00    -0.241 NA
HETATM    8  C10 UNL     1      27.969   0.773  53.473  1.00  0.00     0.072 A 
HETATM    9  C11 UNL     1      27.056   1.803  53.496  1.00  0.00     0.065 A 
HETATM   10  C12 UNL     1      25.702   1.623  53.317  1.00  0.00     0.068 A 
ENDROOT
BRANCH  10  11
HETATM   11  N3  UNL     1      24.929   2.819  53.375  1.00  0.00    -0.354 N 
HETATM   12  H10 UNL     1      24.961   3.250  54.347  1.00  0.00     0.166 HD
BRANCH  11  13
HETATM   13  C13 UNL     1      24.170   3.468  52.367  1.00  0.00     0.032 A 
HETATM   14  C14 UNL     1      24.328   3.130  51.040  1.00  0.00     0.032 A 
HETATM   15  C15 UNL     1      23.559   3.801  50.113  1.00  0.00     0.044 A 
HETATM   16  C16 UNL     1      22.638   4.792  50.432  1.00  0.00     0.116 A 
HETATM   17  F1  UNL     1      21.908   5.416  49.467  1.00  0.00    -0.206 F 
HETATM   18  C17 UNL     1      22.496   5.115  51.775  1.00  0.00     0.044 A 
HETATM   19  C18 UNL     1      23.275   4.435  52.699  1.00  0.00     0.032 A 
ENDBRANCH  11  13
ENDBRANCH  10  11
BRANCH   1  20
HETATM   20  O1  UNL     1      23.857   0.225  52.932  1.00  0.00    -0.347 OA
BRANCH  20  21
HETATM   21  C4  UNL     1      23.019  -0.506  53.833  1.00  0.00     0.193 C 
BRANCH  21  22
HETATM   22  C3  UNL     1      21.745   0.256  53.907  1.00  0.00     0.093 C 
BRANCH  22  23
HETATM   23  C2  UNL     1      21.399   1.083  52.931  1.00  0.00    -0.174 C 
HETATM   24  C1  UNL     1      20.805   1.711  51.929  1.00  0.00     0.091 C 
ENDBRANCH  22  23
ENDBRANCH  21  22
ENDBRANCH  20  21
ENDBRANCH   1  20
TORSDOF 6
ENDMDL
