MODEL 1
REMARK VINA RESULT:      -9.0      0.000      0.000
REMARK  3 active torsions:
REMARK  status: ('A' for Active; 'I' for Inactive)
REMARK    1  A    between atoms: C4_5  and  C5_6 
REMARK    2  A    between atoms: N2_10  and  C8_11 
REMARK    3  A    between atoms: C9_13  and  C10_14 
ROOT
HETATM    1  C5  UNL     1      24.096   3.267  49.998  1.00  0.00     0.139 C 
HETATM    2  C6  UNL     1      22.817   4.079  50.246  1.00  0.00     0.048 C 
HETATM    3  C7  UNL     1      23.362   4.991  51.355  1.00  0.00     0.113 C 
HETATM    4  N1  UNL     1      24.646   4.404  51.761  1.00  0.00    -0.235 NA
HETATM    5  N2  UNL     1      24.404   3.065  51.434  1.00  0.00    -0.281 N 
HETATM    6  H8  UNL     1      24.809   4.539  52.785  1.00  0.00     0.146 HD
ENDROOT
BRANCH   5   7
HETATM    7  C8  UNL     1      24.388   1.789  52.150  1.00  0.00     0.184 A 
HETATM    8  N3  UNL     1      25.560   1.166  52.253  1.00  0.00    -0.222 NA
HETATM    9  C9  UNL     1      25.550   0.016  52.895  1.00  0.00     0.076 A 
HETATM   10  C16 UNL     1      24.421  -0.548  53.443  1.00  0.00     0.085 A 
HETATM   11  S1  UNL     1      23.124   0.722  53.006  1.00  0.00    -0.060 SA
BRANCH   9  12
HETATM   12  C10 UNL     1      26.866  -0.670  53.017  1.00  0.00    -0.007 A 
HETATM   13  C11 UNL     1      27.999  -0.036  53.508  1.00  0.00     0.014 A 
HETATM   14  C12 UNL     1      29.245  -0.614  53.662  1.00  0.00     0.001 A 
HETATM   15  C13 UNL     1      29.348  -1.935  53.291  1.00  0.00     0.000 A 
HETATM   16  C14 UNL     1      28.268  -2.631  52.795  1.00  0.00     0.001 A 
HETATM   17  C15 UNL     1      27.063  -1.971  52.676  1.00  0.00     0.014 A 
ENDBRANCH   9  12
ENDBRANCH   5   7
BRANCH   1  18
HETATM   18  C4  UNL     1      25.113   4.195  49.452  1.00  0.00    -0.034 A 
HETATM   19  C3  UNL     1      24.892   5.451  48.926  1.00  0.00     0.012 A 
HETATM   20  C2  UNL     1      25.879   6.277  48.435  1.00  0.00     0.043 A 
HETATM   21  C1  UNL     1      27.191   5.853  48.451  1.00  0.00     0.116 A 
HETATM   22  F1  UNL     1      28.098   6.721  47.953  1.00  0.00    -0.206 F 
HETATM   23  C18 UNL     1      27.460   4.592  48.973  1.00  0.00     0.043 A 
HETATM   24  C17 UNL     1      26.440   3.801  49.453  1.00  0.00     0.012 A 
ENDBRANCH   1  18
TORSDOF 3
ENDMDL
MODEL 2
REMARK VINA RESULT:      -8.6      3.589      7.304
REMARK  3 active torsions:
REMARK  status: ('A' for Active; 'I' for Inactive)
REMARK    1  A    between atoms: C4_5  and  C5_6 
REMARK    2  A    between atoms: N2_10  and  C8_11 
REMARK    3  A    between atoms: C9_13  and  C10_14 
ROOT
HETATM    1  C5  UNL     1      24.826   1.580  51.622  1.00  0.00     0.139 C 
HETATM    2  C6  UNL     1      26.223   1.549  52.257  1.00  0.00     0.048 C 
HETATM    3  C7  UNL     1      25.919   2.438  53.472  1.00  0.00     0.113 C 
HETATM    4  N1  UNL     1      24.609   3.049  53.203  1.00  0.00    -0.235 NA
HETATM    5  N2  UNL     1      24.631   3.038  51.804  1.00  0.00    -0.281 N 
HETATM    6  H8  UNL     1      24.565   4.018  53.593  1.00  0.00     0.146 HD
ENDROOT
BRANCH   5   7
HETATM    7  C8  UNL     1      24.537   4.037  50.739  1.00  0.00     0.184 A 
HETATM    8  N3  UNL     1      25.694   4.434  50.212  1.00  0.00    -0.222 NA
HETATM    9  C9  UNL     1      25.615   5.333  49.254  1.00  0.00     0.076 A 
HETATM   10  C16 UNL     1      24.433   5.862  48.792  1.00  0.00     0.085 A 
HETATM   11  S1  UNL     1      23.187   4.971  49.859  1.00  0.00    -0.060 SA
BRANCH   9  12
HETATM   12  C10 UNL     1      26.912   5.763  48.660  1.00  0.00    -0.007 A 
HETATM   13  C11 UNL     1      27.106   7.026  48.118  1.00  0.00     0.014 A 
HETATM   14  C12 UNL     1      28.283   7.496  47.566  1.00  0.00     0.001 A 
HETATM   15  C13 UNL     1      29.342   6.617  47.564  1.00  0.00     0.000 A 
HETATM   16  C14 UNL     1      29.226   5.347  48.084  1.00  0.00     0.001 A 
HETATM   17  C15 UNL     1      28.012   4.965  48.615  1.00  0.00     0.014 A 
ENDBRANCH   9  12
ENDBRANCH   5   7
BRANCH   1  18
HETATM   18  C4  UNL     1      23.901   0.889  52.550  1.00  0.00    -0.034 A 
HETATM   19  C3  UNL     1      24.214  -0.126  53.430  1.00  0.00     0.012 A 
HETATM   20  C2  UNL     1      23.312  -0.732  54.276  1.00  0.00     0.043 A 
HETATM   21  C1  UNL     1      21.995  -0.324  54.272  1.00  0.00     0.116 A 
HETATM   22  F1  UNL     1      21.174  -0.967  55.131  1.00  0.00    -0.206 F 
HETATM   23  C18 UNL     1      21.635   0.697  53.399  1.00  0.00     0.043 A 
HETATM   24  C17 UNL     1      22.572   1.273  52.571  1.00  0.00     0.012 A 
ENDBRANCH   1  18
TORSDOF 3
ENDMDL
MODEL 3
REMARK VINA RESULT:      -8.6      2.961      3.993
REMARK  3 active torsions:
REMARK  status: ('A' for Active; 'I' for Inactive)
REMARK    1  A    between atoms: C4_5  and  C5_6 
REMARK    2  A    between atoms: N2_10  and  C8_11 
REMARK    3  A    between atoms: C9_13  and  C10_14 
ROOT
HETATM    1  C5  UNL     1      23.523   5.655  49.495  1.00  0.00     0.139 C 
HETATM    2  C6  UNL     1      23.302   7.116  49.910  1.00  0.00     0.048 C 
HETATM    3  C7  UNL     1      24.145   7.098  51.193  1.00  0.00     0.113 C 
HETATM    4  N1  UNL     1      24.429   5.682  51.466  1.00  0.00    -0.235 NA
HETATM    5  N2  UNL     1      23.313   5.100  50.854  1.00  0.00    -0.281 N 
HETATM    6  H8  UNL     1      24.457   5.500  52.495  1.00  0.00     0.146 HD
ENDROOT
BRANCH   5   7
HETATM    7  C8  UNL     1      22.206   4.240  51.274  1.00  0.00     0.184 A 
HETATM    8  N3  UNL     1      22.546   3.147  51.956  1.00  0.00    -0.222 NA
HETATM    9  C9  UNL     1      21.554   2.370  52.334  1.00  0.00     0.076 A 
HETATM   10  C16 UNL     1      20.230   2.627  52.066  1.00  0.00     0.085 A 
HETATM   11  S1  UNL     1      20.350   4.231  51.117  1.00  0.00    -0.060 SA
BRANCH   9  12
HETATM   12  C10 UNL     1      21.939   1.156  53.107  1.00  0.00    -0.007 A 
HETATM   13  C11 UNL     1      23.217   0.616  53.066  1.00  0.00     0.014 A 
HETATM   14  C12 UNL     1      23.647  -0.495  53.767  1.00  0.00     0.001 A 
HETATM   15  C13 UNL     1      22.709  -1.103  54.569  1.00  0.00     0.000 A 
HETATM   16  C14 UNL     1      21.421  -0.626  54.661  1.00  0.00     0.001 A 
HETATM   17  C15 UNL     1      21.082   0.489  53.925  1.00  0.00     0.014 A 
ENDBRANCH   9  12
ENDBRANCH   5   7
BRANCH   1  18
HETATM   18  C4  UNL     1      24.958   5.498  49.168  1.00  0.00    -0.034 A 
HETATM   19  C3  UNL     1      25.794   6.452  48.624  1.00  0.00     0.012 A 
HETATM   20  C2  UNL     1      27.128   6.253  48.343  1.00  0.00     0.043 A 
HETATM   21  C1  UNL     1      27.704   5.029  48.609  1.00  0.00     0.116 A 
HETATM   22  F1  UNL     1      29.016   4.914  48.307  1.00  0.00    -0.206 F 
HETATM   23  C18 UNL     1      26.898   4.037  49.158  1.00  0.00     0.043 A 
HETATM   24  C17 UNL     1      25.568   4.282  49.421  1.00  0.00     0.012 A 
ENDBRANCH   1  18
TORSDOF 3
ENDMDL
MODEL 4
REMARK VINA RESULT:      -8.4      1.905      3.073
REMARK  3 active torsions:
REMARK  status: ('A' for Active; 'I' for Inactive)
REMARK    1  A    between atoms: C4_5  and  C5_6 
REMARK    2  A    between atoms: N2_10  and  C8_11 
REMARK    3  A    between atoms: C9_13  and  C10_14 
ROOT
HETATM    1  C5  UNL     1      24.689   6.063  48.997  1.00  0.00     0.139 C 
HETATM    2  C6  UNL     1      24.031   7.446  49.109  1.00  0.00     0.048 C 
HETATM    3  C7  UNL     1      24.884   7.989  50.266  1.00  0.00     0.113 C 
HETATM    4  N1  UNL     1      25.612   6.831  50.804  1.00  0.00    -0.235 NA
HETATM    5  N2  UNL     1      24.717   5.813  50.458  1.00  0.00    -0.281 N 
HETATM    6  H8  UNL     1      25.735   6.919  51.838  1.00  0.00     0.146 HD
ENDROOT
BRANCH   5   7
HETATM    7  C8  UNL     1      23.957   4.787  51.174  1.00  0.00     0.184 A 
HETATM    8  N3  UNL     1      24.606   3.650  51.421  1.00  0.00    -0.222 NA
HETATM    9  C9  UNL     1      23.925   2.724  52.063  1.00  0.00     0.076 A 
HETATM   10  C16 UNL     1      22.621   2.874  52.473  1.00  0.00     0.085 A 
HETATM   11  S1  UNL     1      22.242   4.602  51.876  1.00  0.00    -0.060 SA
BRANCH   9  12
HETATM   12  C10 UNL     1      24.660   1.460  52.347  1.00  0.00    -0.007 A 
HETATM   13  C11 UNL     1      25.902   1.175  51.798  1.00  0.00     0.014 A 
HETATM   14  C12 UNL     1      26.645   0.032  52.029  1.00  0.00     0.001 A 
HETATM   15  C13 UNL     1      26.084  -0.889  52.883  1.00  0.00     0.000 A 
HETATM   16  C14 UNL     1      24.855  -0.678  53.467  1.00  0.00     0.001 A 
HETATM   17  C15 UNL     1      24.186   0.493  53.178  1.00  0.00     0.014 A 
ENDBRANCH   9  12
ENDBRANCH   5   7
BRANCH   1  18
HETATM   18  C4  UNL     1      26.087   6.271  48.555  1.00  0.00    -0.034 A 
HETATM   19  C3  UNL     1      26.600   7.385  47.924  1.00  0.00     0.012 A 
HETATM   20  C2  UNL     1      27.915   7.528  47.537  1.00  0.00     0.043 A 
HETATM   21  C1  UNL     1      28.809   6.508  47.780  1.00  0.00     0.116 A 
HETATM   22  F1  UNL     1      30.079   6.725  47.372  1.00  0.00    -0.206 F 
HETATM   23  C18 UNL     1      28.335   5.365  48.415  1.00  0.00     0.043 A 
HETATM   24  C17 UNL     1      27.011   5.267  48.783  1.00  0.00     0.012 A 
ENDBRANCH   1  18
TORSDOF 3
ENDMDL
MODEL 5
REMARK VINA RESULT:      -8.3      2.948      6.801
REMARK  3 active torsions:
REMARK  status: ('A' for Active; 'I' for Inactive)
REMARK    1  A    between atoms: C4_5  and  C5_6 
REMARK    2  A    between atoms: N2_10  and  C8_11 
REMARK    3  A    between atoms: C9_13  and  C10_14 
ROOT
HETATM    1  C5  UNL     1      23.939   2.840  52.287  1.00  0.00     0.139 C 
HETATM    2  C6  UNL     1      22.462   2.552  52.590  1.00  0.00     0.048 C 
HETATM    3  C7  UNL     1      22.198   1.578  51.432  1.00  0.00     0.113 C 
HETATM    4  N1  UNL     1      23.358   1.695  50.538  1.00  0.00    -0.235 NA
HETATM    5  N2  UNL     1      23.743   3.009  50.827  1.00  0.00    -0.281 N 
HETATM    6  H8  UNL     1      23.071   1.575  49.540  1.00  0.00     0.146 HD
ENDROOT
BRANCH   5   7
HETATM    7  C8  UNL     1      23.913   4.250  50.071  1.00  0.00     0.184 A 
HETATM    8  N3  UNL     1      25.154   4.520  49.671  1.00  0.00    -0.222 NA
HETATM    9  C9  UNL     1      25.312   5.637  48.991  1.00  0.00     0.076 A 
HETATM   10  C16 UNL     1      24.289   6.504  48.689  1.00  0.00     0.085 A 
HETATM   11  S1  UNL     1      22.831   5.644  49.475  1.00  0.00    -0.060 SA
BRANCH   9  12
HETATM   12  C10 UNL     1      26.701   5.928  48.536  1.00  0.00    -0.007 A 
HETATM   13  C11 UNL     1      27.070   7.148  47.990  1.00  0.00     0.014 A 
HETATM   14  C12 UNL     1      28.339   7.491  47.562  1.00  0.00     0.001 A 
HETATM   15  C13 UNL     1      29.305   6.520  47.698  1.00  0.00     0.000 A 
HETATM   16  C14 UNL     1      29.014   5.284  48.230  1.00  0.00     0.001 A 
HETATM   17  C15 UNL     1      27.719   5.032  48.631  1.00  0.00     0.014 A 
ENDBRANCH   9  12
ENDBRANCH   5   7
BRANCH   1  18
HETATM   18  C4  UNL     1      24.688   1.578  52.491  1.00  0.00    -0.034 A 
HETATM   19  C3  UNL     1      24.335   0.528  53.312  1.00  0.00     0.012 A 
HETATM   20  C2  UNL     1      25.069  -0.628  53.462  1.00  0.00     0.043 A 
HETATM   21  C1  UNL     1      26.245  -0.782  52.758  1.00  0.00     0.116 A 
HETATM   22  F1  UNL     1      26.905  -1.944  52.958  1.00  0.00    -0.206 F 
HETATM   23  C18 UNL     1      26.639   0.253  51.918  1.00  0.00     0.043 A 
HETATM   24  C17 UNL     1      25.873   1.391  51.801  1.00  0.00     0.012 A 
ENDBRANCH   1  18
TORSDOF 3
ENDMDL
MODEL 6
REMARK VINA RESULT:      -8.1      3.846      6.960
REMARK  3 active torsions:
REMARK  status: ('A' for Active; 'I' for Inactive)
REMARK    1  A    between atoms: C4_5  and  C5_6 
REMARK    2  A    between atoms: N2_10  and  C8_11 
REMARK    3  A    between atoms: C9_13  and  C10_14 
ROOT
HETATM    1  C5  UNL     1      25.787   0.413  52.448  1.00  0.00     0.139 C 
HETATM    2  C6  UNL     1      25.802   1.946  52.362  1.00  0.00     0.048 C 
HETATM    3  C7  UNL     1      26.053   2.235  53.850  1.00  0.00     0.113 C 
HETATM    4  N1  UNL     1      25.841   0.959  54.547  1.00  0.00    -0.235 NA
HETATM    5  N2  UNL     1      24.938   0.358  53.663  1.00  0.00    -0.281 N 
HETATM    6  H8  UNL     1      25.425   1.118  55.492  1.00  0.00     0.146 HD
ENDROOT
BRANCH   5   7
HETATM    7  C8  UNL     1      23.576  -0.171  53.741  1.00  0.00     0.184 A 
HETATM    8  N3  UNL     1      22.739   0.238  52.789  1.00  0.00    -0.222 NA
HETATM    9  C9  UNL     1      21.512  -0.234  52.856  1.00  0.00     0.076 A 
HETATM   10  C16 UNL     1      21.073  -1.098  53.832  1.00  0.00     0.085 A 
HETATM   11  S1  UNL     1      22.619  -1.315  54.856  1.00  0.00    -0.060 SA
BRANCH   9  12
HETATM   12  C10 UNL     1      20.584   0.217  51.782  1.00  0.00    -0.007 A 
HETATM   13  C11 UNL     1      19.211   0.025  51.848  1.00  0.00     0.014 A 
HETATM   14  C12 UNL     1      18.292   0.429  50.897  1.00  0.00     0.001 A 
HETATM   15  C13 UNL     1      18.807   1.078  49.798  1.00  0.00     0.000 A 
HETATM   16  C14 UNL     1      20.158   1.304  49.661  1.00  0.00     0.001 A 
HETATM   17  C15 UNL     1      21.000   0.865  50.661  1.00  0.00     0.014 A 
ENDBRANCH   9  12
ENDBRANCH   5   7
BRANCH   1  18
HETATM   18  C4  UNL     1      27.148  -0.023  52.838  1.00  0.00    -0.034 A 
HETATM   19  C3  UNL     1      28.231   0.785  53.111  1.00  0.00     0.012 A 
HETATM   20  C2  UNL     1      29.478   0.325  53.475  1.00  0.00     0.043 A 
HETATM   21  C1  UNL     1      29.697  -1.032  53.582  1.00  0.00     0.116 A 
HETATM   22  F1  UNL     1      30.944  -1.403  53.945  1.00  0.00    -0.206 F 
HETATM   23  C18 UNL     1      28.632  -1.885  53.315  1.00  0.00     0.043 A 
HETATM   24  C17 UNL     1      27.402  -1.379  52.954  1.00  0.00     0.012 A 
ENDBRANCH   1  18
TORSDOF 3
ENDMDL
MODEL 7
REMARK VINA RESULT:      -8.1      4.021      7.125
REMARK  3 active torsions:
REMARK  status: ('A' for Active; 'I' for Inactive)
REMARK    1  A    between atoms: C4_5  and  C5_6 
REMARK    2  A    between atoms: N2_10  and  C8_11 
REMARK    3  A    between atoms: C9_13  and  C10_14 
ROOT
HETATM    1  C5  UNL     1      26.325   1.292  51.930  1.00  0.00     0.139 C 
HETATM    2  C6  UNL     1      26.655   2.424  52.912  1.00  0.00     0.048 C 
HETATM    3  C7  UNL     1      26.012   1.809  54.164  1.00  0.00     0.113 C 
HETATM    4  N1  UNL     1      25.207   0.677  53.684  1.00  0.00    -0.235 NA
HETATM    5  N2  UNL     1      24.925   1.125  52.389  1.00  0.00    -0.281 N 
HETATM    6  H8  UNL     1      24.343   0.565  54.262  1.00  0.00     0.146 HD
ENDROOT
BRANCH   5   7
HETATM    7  C8  UNL     1      23.720   1.412  51.609  1.00  0.00     0.184 A 
HETATM    8  N3  UNL     1      22.611   0.788  52.002  1.00  0.00    -0.222 NA
HETATM    9  C9  UNL     1      21.526   1.042  51.303  1.00  0.00     0.076 A 
HETATM   10  C16 UNL     1      21.488   1.894  50.223  1.00  0.00     0.085 A 
HETATM   11  S1  UNL     1      23.266   2.459  50.138  1.00  0.00    -0.060 SA
BRANCH   9  12
HETATM   12  C10 UNL     1      20.286   0.350  51.755  1.00  0.00    -0.007 A 
HETATM   13  C11 UNL     1      20.209  -0.341  52.955  1.00  0.00     0.014 A 
HETATM   14  C12 UNL     1      19.091  -0.992  53.443  1.00  0.00     0.001 A 
HETATM   15  C13 UNL     1      17.967  -0.935  52.651  1.00  0.00     0.000 A 
HETATM   16  C14 UNL     1      17.966  -0.269  51.446  1.00  0.00     0.001 A 
HETATM   17  C15 UNL     1      19.129   0.352  51.040  1.00  0.00     0.014 A 
ENDBRANCH   9  12
ENDBRANCH   5   7
BRANCH   1  18
HETATM   18  C4  UNL     1      27.080   0.094  52.363  1.00  0.00    -0.034 A 
HETATM   19  C3  UNL     1      28.303   0.070  52.999  1.00  0.00     0.012 A 
HETATM   20  C2  UNL     1      28.961  -1.077  53.386  1.00  0.00     0.043 A 
HETATM   21  C1  UNL     1      28.389  -2.306  53.135  1.00  0.00     0.116 A 
HETATM   22  F1  UNL     1      29.095  -3.382  53.546  1.00  0.00    -0.206 F 
HETATM   23  C18 UNL     1      27.155  -2.330  52.495  1.00  0.00     0.043 A 
HETATM   24  C17 UNL     1      26.534  -1.156  52.127  1.00  0.00     0.012 A 
ENDBRANCH   1  18
TORSDOF 3
ENDMDL
MODEL 8
REMARK VINA RESULT:      -8.0      2.858      4.381
REMARK  3 active torsions:
REMARK  status: ('A' for Active; 'I' for Inactive)
REMARK    1  A    between atoms: C4_5  and  C5_6 
REMARK    2  A    between atoms: N2_10  and  C8_11 
REMARK    3  A    between atoms: C9_13  and  C10_14 
ROOT
HETATM    1  C5  UNL     1      25.045   6.958  48.746  1.00  0.00     0.139 C 
HETATM    2  C6  UNL     1      24.871   8.472  48.928  1.00  0.00     0.048 C 
HETATM    3  C7  UNL     1      25.772   8.639  50.161  1.00  0.00     0.113 C 
HETATM    4  N1  UNL     1      26.042   7.278  50.646  1.00  0.00    -0.235 NA
HETATM    5  N2  UNL     1      24.889   6.634  50.184  1.00  0.00    -0.281 N 
HETATM    6  H8  UNL     1      26.114   7.264  51.689  1.00  0.00     0.146 HD
ENDROOT
BRANCH   5   7
HETATM    7  C8  UNL     1      23.787   5.881  50.785  1.00  0.00     0.184 A 
HETATM    8  N3  UNL     1      24.100   4.680  51.268  1.00  0.00    -0.222 NA
HETATM    9  C9  UNL     1      23.111   3.998  51.808  1.00  0.00     0.076 A 
HETATM   10  C16 UNL     1      21.817   4.456  51.890  1.00  0.00     0.085 A 
HETATM   11  S1  UNL     1      21.965   6.132  51.081  1.00  0.00    -0.060 SA
BRANCH   9  12
HETATM   12  C10 UNL     1      23.470   2.661  52.358  1.00  0.00    -0.007 A 
HETATM   13  C11 UNL     1      24.735   2.366  52.844  1.00  0.00     0.014 A 
HETATM   14  C12 UNL     1      25.133   1.156  53.381  1.00  0.00     0.001 A 
HETATM   15  C13 UNL     1      24.172   0.172  53.427  1.00  0.00     0.000 A 
HETATM   16  C14 UNL     1      22.894   0.389  52.963  1.00  0.00     0.001 A 
HETATM   17  C15 UNL     1      22.588   1.630  52.444  1.00  0.00     0.014 A 
ENDBRANCH   9  12
ENDBRANCH   5   7
BRANCH   1  18
HETATM   18  C4  UNL     1      26.462   6.715  48.388  1.00  0.00    -0.034 A 
HETATM   19  C3  UNL     1      27.221   5.610  48.713  1.00  0.00     0.012 A 
HETATM   20  C2  UNL     1      28.538   5.432  48.349  1.00  0.00     0.043 A 
HETATM   21  C1  UNL     1      29.175   6.404  47.608  1.00  0.00     0.116 A 
HETATM   22  F1  UNL     1      30.464   6.154  47.290  1.00  0.00    -0.206 F 
HETATM   23  C18 UNL     1      28.448   7.536  47.258  1.00  0.00     0.043 A 
HETATM   24  C17 UNL     1      27.133   7.670  47.645  1.00  0.00     0.012 A 
ENDBRANCH   1  18
TORSDOF 3
ENDMDL
MODEL 9
REMARK VINA RESULT:      -8.0      4.199      5.714
REMARK  3 active torsions:
REMARK  status: ('A' for Active; 'I' for Inactive)
REMARK    1  A    between atoms: C4_5  and  C5_6 
REMARK    2  A    between atoms: N2_10  and  C8_11 
REMARK    3  A    between atoms: C9_13  and  C10_14 
ROOT
HETATM    1  C5  UNL     1      21.822  -0.263  52.351  1.00  0.00     0.139 C 
HETATM    2  C6  UNL     1      21.385  -0.931  53.662  1.00  0.00     0.048 C 
HETATM    3  C7  UNL     1      20.708   0.290  54.302  1.00  0.00     0.113 C 
HETATM    4  N1  UNL     1      21.105   1.443  53.482  1.00  0.00    -0.235 NA
HETATM    5  N2  UNL     1      22.330   0.972  52.995  1.00  0.00    -0.281 N 
HETATM    6  H8  UNL     1      21.215   2.298  54.073  1.00  0.00     0.146 HD
ENDROOT
BRANCH   5   7
HETATM    7  C8  UNL     1      23.725   1.409  53.045  1.00  0.00     0.184 A 
HETATM    8  N3  UNL     1      24.638   0.440  53.037  1.00  0.00    -0.222 NA
HETATM    9  C9  UNL     1      25.895   0.829  53.083  1.00  0.00     0.076 A 
HETATM   10  C16 UNL     1      26.291   2.145  53.138  1.00  0.00     0.085 A 
HETATM   11  S1  UNL     1      24.645   3.026  53.125  1.00  0.00    -0.060 SA
BRANCH   9  12
HETATM   12  C10 UNL     1      26.912  -0.260  53.061  1.00  0.00    -0.007 A 
HETATM   13  C11 UNL     1      28.217  -0.075  53.493  1.00  0.00     0.014 A 
HETATM   14  C12 UNL     1      29.206  -1.041  53.514  1.00  0.00     0.001 A 
HETATM   15  C13 UNL     1      28.840  -2.289  53.064  1.00  0.00     0.000 A 
HETATM   16  C14 UNL     1      27.563  -2.549  52.619  1.00  0.00     0.001 A 
HETATM   17  C15 UNL     1      26.643  -1.523  52.634  1.00  0.00     0.014 A 
ENDBRANCH   9  12
ENDBRANCH   5   7
BRANCH   1  18
HETATM   18  C4  UNL     1      20.595   0.098  51.605  1.00  0.00    -0.034 A 
HETATM   19  C3  UNL     1      19.307  -0.315  51.877  1.00  0.00     0.012 A 
HETATM   20  C2  UNL     1      18.197   0.056  51.151  1.00  0.00     0.043 A 
HETATM   21  C1  UNL     1      18.343   0.897  50.069  1.00  0.00     0.116 A 
HETATM   22  F1  UNL     1      17.207   1.216  49.410  1.00  0.00    -0.206 F 
HETATM   23  C18 UNL     1      19.624   1.339  49.757  1.00  0.00     0.043 A 
HETATM   24  C17 UNL     1      20.705   0.940  50.512  1.00  0.00     0.012 A 
ENDBRANCH   1  18
TORSDOF 3
ENDMDL
