MODEL 1
REMARK VINA RESULT:      -8.2      0.000      0.000
REMARK  2 active torsions:
REMARK  status: ('A' for Active; 'I' for Inactive)
REMARK    1  A    between atoms: C7_7  and  N1_8 
REMARK    2  A    between atoms: N1_8  and  C8_9 
ROOT
HETATM    1  C1  UNL     1      30.450   9.467  46.829  1.00  0.00     0.018 C 
HETATM    2  C2  UNL     1      29.520   9.156  47.534  1.00  0.00    -0.078 C 
HETATM    3  C3  UNL     1      28.404   8.789  48.374  1.00  0.00     0.019 A 
HETATM    4  C4  UNL     1      28.259   9.431  49.586  1.00  0.00     0.021 A 
HETATM    5  C5  UNL     1      27.199   9.109  50.426  1.00  0.00     0.004 A 
HETATM    6  C6  UNL     1      26.267   8.137  50.064  1.00  0.00     0.029 A 
HETATM    7  C7  UNL     1      26.418   7.509  48.868  1.00  0.00     0.034 A 
HETATM    8  C21 UNL     1      27.478   7.829  48.024  1.00  0.00     0.050 A 
ENDROOT
BRANCH   7   9
HETATM    9  N1  UNL     1      25.589   6.483  48.287  1.00  0.00    -0.343 N 
HETATM   10  H5  UNL     1      24.976   6.582  47.448  1.00  0.00     0.167 HD
BRANCH   9  11
HETATM   11  C8  UNL     1      25.661   5.239  48.971  1.00  0.00     0.129 C 
HETATM   12  N2  UNL     1      26.826   4.618  49.197  1.00  0.00    -0.227 NA
HETATM   13  C9  UNL     1      26.634   3.375  49.913  1.00  0.00     0.229 C 
HETATM   14  N3  UNL     1      26.973   2.900  51.094  1.00  0.00    -0.279 NA
HETATM   15  C10 UNL     1      26.515   1.537  51.372  1.00  0.00     0.177 C 
HETATM   16  C11 UNL     1      26.363   1.362  52.828  1.00  0.00    -0.009 C 
HETATM   17  C12 UNL     1      25.222   1.193  53.532  1.00  0.00    -0.029 C 
HETATM   18  C13 UNL     1      23.879   1.167  52.937  1.00  0.00     0.029 C 
HETATM   19  C14 UNL     1      23.106  -0.118  53.121  1.00  0.00     0.030 C 
HETATM   20  C15 UNL     1      21.744   0.123  52.417  1.00  0.00     0.174 C 
HETATM   21  O1  UNL     1      21.965   0.498  51.090  1.00  0.00    -0.363 OA
HETATM   22  C16 UNL     1      20.962   0.787  50.197  1.00  0.00     0.130 C 
HETATM   23  C17 UNL     1      21.293   1.653  49.240  1.00  0.00    -0.001 C 
HETATM   24  C18 UNL     1      22.525   2.403  48.907  1.00  0.00     0.055 C 
HETATM   25  C19 UNL     1      22.272   3.880  48.709  1.00  0.00     0.172 C 
HETATM   26  O2  UNL     1      23.447   4.570  48.415  1.00  0.00    -0.383 OA
HETATM   27  C20 UNL     1      24.366   4.643  49.420  1.00  0.00     0.246 C 
ENDBRANCH   9  11
ENDBRANCH   7   9
TORSDOF 2
ENDMDL
MODEL 2
REMARK VINA RESULT:      -8.1      5.730      9.172
REMARK  2 active torsions:
REMARK  status: ('A' for Active; 'I' for Inactive)
REMARK    1  A    between atoms: C7_7  and  N1_8 
REMARK    2  A    between atoms: N1_8  and  C8_9 
ROOT
HETATM    1  C1  UNL     1      32.023   0.218  46.705  1.00  0.00     0.018 C 
HETATM    2  C2  UNL     1      32.437   1.347  46.828  1.00  0.00    -0.078 C 
HETATM    3  C3  UNL     1      32.926   2.698  46.972  1.00  0.00     0.019 A 
HETATM    4  C4  UNL     1      33.797   3.183  46.019  1.00  0.00     0.021 A 
HETATM    5  C5  UNL     1      34.292   4.478  46.118  1.00  0.00     0.004 A 
HETATM    6  C6  UNL     1      33.923   5.307  47.177  1.00  0.00     0.029 A 
HETATM    7  C7  UNL     1      33.064   4.821  48.111  1.00  0.00     0.034 A 
HETATM    8  C21 UNL     1      32.566   3.524  48.015  1.00  0.00     0.050 A 
ENDROOT
BRANCH   7   9
HETATM    9  N1  UNL     1      32.546   5.486  49.280  1.00  0.00    -0.343 N 
HETATM   10  H5  UNL     1      32.631   5.159  50.268  1.00  0.00     0.167 HD
BRANCH   9  11
HETATM   11  C8  UNL     1      31.865   6.700  48.990  1.00  0.00     0.129 C 
HETATM   12  N2  UNL     1      32.348   7.893  49.361  1.00  0.00    -0.227 NA
HETATM   13  C9  UNL     1      31.476   8.969  48.945  1.00  0.00     0.229 C 
HETATM   14  N3  UNL     1      31.562   9.994  48.120  1.00  0.00    -0.279 NA
HETATM   15  C10 UNL     1      30.358  10.824  48.030  1.00  0.00     0.177 C 
HETATM   16  C11 UNL     1      30.312  11.473  46.707  1.00  0.00    -0.009 C 
HETATM   17  C12 UNL     1      29.443  11.245  45.698  1.00  0.00    -0.029 C 
HETATM   18  C13 UNL     1      28.356  10.259  45.749  1.00  0.00     0.029 C 
HETATM   19  C14 UNL     1      26.958  10.817  45.611  1.00  0.00     0.030 C 
HETATM   20  C15 UNL     1      26.019   9.583  45.688  1.00  0.00     0.174 C 
HETATM   21  O1  UNL     1      26.264   8.885  46.872  1.00  0.00    -0.363 OA
HETATM   22  C16 UNL     1      25.599   7.740  47.240  1.00  0.00     0.130 C 
HETATM   23  C17 UNL     1      26.296   6.909  48.014  1.00  0.00    -0.001 C 
HETATM   24  C18 UNL     1      27.662   6.929  48.583  1.00  0.00     0.055 C 
HETATM   25  C19 UNL     1      28.424   5.651  48.314  1.00  0.00     0.172 C 
HETATM   26  O2  UNL     1      29.713   5.698  48.842  1.00  0.00    -0.383 OA
HETATM   27  C20 UNL     1      30.568   6.583  48.256  1.00  0.00     0.246 C 
ENDBRANCH   9  11
ENDBRANCH   7   9
TORSDOF 2
ENDMDL
MODEL 3
REMARK VINA RESULT:      -7.9      5.944      9.394
REMARK  2 active torsions:
REMARK  status: ('A' for Active; 'I' for Inactive)
REMARK    1  A    between atoms: C7_7  and  N1_8 
REMARK    2  A    between atoms: N1_8  and  C8_9 
ROOT
HETATM    1  C1  UNL     1      32.045   0.357  46.663  1.00  0.00     0.018 C 
HETATM    2  C2  UNL     1      32.483   1.468  46.847  1.00  0.00    -0.078 C 
HETATM    3  C3  UNL     1      33.002   2.799  47.063  1.00  0.00     0.019 A 
HETATM    4  C4  UNL     1      34.049   3.228  46.274  1.00  0.00     0.021 A 
HETATM    5  C5  UNL     1      34.579   4.501  46.447  1.00  0.00     0.004 A 
HETATM    6  C6  UNL     1      34.067   5.365  47.415  1.00  0.00     0.029 A 
HETATM    7  C7  UNL     1      33.035   4.934  48.187  1.00  0.00     0.034 A 
HETATM    8  C21 UNL     1      32.502   3.659  48.017  1.00  0.00     0.050 A 
ENDROOT
BRANCH   7   9
HETATM    9  N1  UNL     1      32.351   5.642  49.240  1.00  0.00    -0.343 N 
HETATM   10  H5  UNL     1      32.695   5.788  50.214  1.00  0.00     0.167 HD
BRANCH   9  11
HETATM   11  C8  UNL     1      31.090   6.168  48.845  1.00  0.00     0.129 C 
HETATM   12  N2  UNL     1      30.076   5.378  48.469  1.00  0.00    -0.227 NA
HETATM   13  C9  UNL     1      28.904   6.150  48.121  1.00  0.00     0.229 C 
HETATM   14  N3  UNL     1      27.681   6.283  48.595  1.00  0.00    -0.279 NA
HETATM   15  C10 UNL     1      26.834   7.237  47.875  1.00  0.00     0.177 C 
HETATM   16  C11 UNL     1      25.816   7.776  48.795  1.00  0.00    -0.009 C 
HETATM   17  C12 UNL     1      25.709   9.035  49.273  1.00  0.00    -0.029 C 
HETATM   18  C13 UNL     1      26.639  10.125  48.949  1.00  0.00     0.029 C 
HETATM   19  C14 UNL     1      26.032  11.315  48.244  1.00  0.00     0.030 C 
HETATM   20  C15 UNL     1      27.209  12.305  48.032  1.00  0.00     0.174 C 
HETATM   21  O1  UNL     1      28.237  11.665  47.337  1.00  0.00    -0.363 OA
HETATM   22  C16 UNL     1      29.423  12.267  46.993  1.00  0.00     0.130 C 
HETATM   23  C17 UNL     1      30.465  11.442  46.895  1.00  0.00    -0.001 C 
HETATM   24  C18 UNL     1      30.650   9.986  47.080  1.00  0.00     0.055 C 
HETATM   25  C19 UNL     1      31.805   9.656  47.998  1.00  0.00     0.172 C 
HETATM   26  O2  UNL     1      31.950   8.281  48.172  1.00  0.00    -0.383 OA
HETATM   27  C20 UNL     1      30.950   7.656  48.856  1.00  0.00     0.246 C 
ENDBRANCH   9  11
ENDBRANCH   7   9
TORSDOF 2
ENDMDL
MODEL 4
REMARK VINA RESULT:      -7.9      5.142      8.806
REMARK  2 active torsions:
REMARK  status: ('A' for Active; 'I' for Inactive)
REMARK    1  A    between atoms: C7_7  and  N1_8 
REMARK    2  A    between atoms: N1_8  and  C8_9 
ROOT
HETATM    1  C1  UNL     1      34.276   6.340  43.123  1.00  0.00     0.018 C 
HETATM    2  C2  UNL     1      34.311   5.748  44.176  1.00  0.00    -0.078 C 
HETATM    3  C3  UNL     1      34.359   5.042  45.435  1.00  0.00     0.019 A 
HETATM    4  C4  UNL     1      34.974   3.809  45.471  1.00  0.00     0.021 A 
HETATM    5  C5  UNL     1      35.042   3.096  46.662  1.00  0.00     0.004 A 
HETATM    6  C6  UNL     1      34.494   3.609  47.837  1.00  0.00     0.029 A 
HETATM    7  C7  UNL     1      33.890   4.825  47.792  1.00  0.00     0.034 A 
HETATM    8  C21 UNL     1      33.819   5.542  46.601  1.00  0.00     0.050 A 
ENDROOT
BRANCH   7   9
HETATM    9  N1  UNL     1      33.259   5.549  48.867  1.00  0.00    -0.343 N 
HETATM   10  H5  UNL     1      33.719   5.888  49.740  1.00  0.00     0.167 HD
BRANCH   9  11
HETATM   11  C8  UNL     1      31.874   5.790  48.655  1.00  0.00     0.129 C 
HETATM   12  N2  UNL     1      31.033   4.820  48.275  1.00  0.00    -0.227 NA
HETATM   13  C9  UNL     1      29.682   5.316  48.131  1.00  0.00     0.229 C 
HETATM   14  N3  UNL     1      28.525   5.101  48.725  1.00  0.00    -0.279 NA
HETATM   15  C10 UNL     1      27.403   5.889  48.207  1.00  0.00     0.177 C 
HETATM   16  C11 UNL     1      26.402   6.071  49.274  1.00  0.00    -0.009 C 
HETATM   17  C12 UNL     1      26.063   7.213  49.911  1.00  0.00    -0.029 C 
HETATM   18  C13 UNL     1      26.673   8.522  49.644  1.00  0.00     0.029 C 
HETATM   19  C14 UNL     1      25.731   9.594  49.149  1.00  0.00     0.030 C 
HETATM   20  C15 UNL     1      26.616  10.855  48.958  1.00  0.00     0.174 C 
HETATM   21  O1  UNL     1      27.676  10.555  48.100  1.00  0.00    -0.363 OA
HETATM   22  C16 UNL     1      28.644  11.458  47.730  1.00  0.00     0.130 C 
HETATM   23  C17 UNL     1      29.829  10.924  47.438  1.00  0.00    -0.001 C 
HETATM   24  C18 UNL     1      30.365   9.544  47.423  1.00  0.00     0.055 C 
HETATM   25  C19 UNL     1      31.663   9.414  48.187  1.00  0.00     0.172 C 
HETATM   26  O2  UNL     1      32.140   8.105  48.176  1.00  0.00    -0.383 OA
HETATM   27  C20 UNL     1      31.397   7.192  48.863  1.00  0.00     0.246 C 
ENDBRANCH   9  11
ENDBRANCH   7   9
TORSDOF 2
ENDMDL
MODEL 5
REMARK VINA RESULT:      -7.8      3.260      8.639
REMARK  2 active torsions:
REMARK  status: ('A' for Active; 'I' for Inactive)
REMARK    1  A    between atoms: C7_7  and  N1_8 
REMARK    2  A    between atoms: N1_8  and  C8_9 
ROOT
HETATM    1  C1  UNL     1      17.823  -0.182  51.415  1.00  0.00     0.018 C 
HETATM    2  C2  UNL     1      18.907  -0.143  51.948  1.00  0.00    -0.078 C 
HETATM    3  C3  UNL     1      20.204  -0.101  52.582  1.00  0.00     0.019 A 
HETATM    4  C4  UNL     1      20.319  -0.586  53.868  1.00  0.00     0.021 A 
HETATM    5  C5  UNL     1      21.548  -0.566  54.516  1.00  0.00     0.004 A 
HETATM    6  C6  UNL     1      22.683  -0.058  53.884  1.00  0.00     0.029 A 
HETATM    7  C7  UNL     1      22.561   0.417  52.617  1.00  0.00     0.034 A 
HETATM    8  C21 UNL     1      21.331   0.398  51.965  1.00  0.00     0.050 A 
ENDROOT
BRANCH   7   9
HETATM    9  N1  UNL     1      23.583   0.983  51.773  1.00  0.00    -0.343 N 
HETATM   10  H5  UNL     1      24.447   0.503  51.439  1.00  0.00     0.167 HD
BRANCH   9  11
HETATM   11  C8  UNL     1      23.328   2.330  51.396  1.00  0.00     0.129 C 
HETATM   12  N2  UNL     1      23.015   3.273  52.295  1.00  0.00    -0.227 NA
HETATM   13  C9  UNL     1      22.808   4.558  51.663  1.00  0.00     0.229 C 
HETATM   14  N3  UNL     1      23.397   5.736  51.697  1.00  0.00    -0.279 NA
HETATM   15  C10 UNL     1      22.797   6.757  50.834  1.00  0.00     0.177 C 
HETATM   16  C11 UNL     1      23.828   7.739  50.452  1.00  0.00    -0.009 C 
HETATM   17  C12 UNL     1      24.364   7.951  49.230  1.00  0.00    -0.029 C 
HETATM   18  C13 UNL     1      24.000   7.195  48.024  1.00  0.00     0.029 C 
HETATM   19  C14 UNL     1      23.401   8.006  46.899  1.00  0.00     0.030 C 
HETATM   20  C15 UNL     1      23.122   6.982  45.766  1.00  0.00     0.174 C 
HETATM   21  O1  UNL     1      22.310   5.956  46.254  1.00  0.00    -0.363 OA
HETATM   22  C16 UNL     1      21.883   4.890  45.500  1.00  0.00     0.130 C 
HETATM   23  C17 UNL     1      21.656   3.771  46.186  1.00  0.00    -0.001 C 
HETATM   24  C18 UNL     1      21.765   3.395  47.614  1.00  0.00     0.055 C 
HETATM   25  C19 UNL     1      22.558   2.125  47.824  1.00  0.00     0.172 C 
HETATM   26  O2  UNL     1      22.664   1.800  49.175  1.00  0.00    -0.383 OA
HETATM   27  C20 UNL     1      23.411   2.647  49.938  1.00  0.00     0.246 C 
ENDBRANCH   9  11
ENDBRANCH   7   9
TORSDOF 2
ENDMDL
MODEL 6
REMARK VINA RESULT:      -7.7      3.535      8.788
REMARK  2 active torsions:
REMARK  status: ('A' for Active; 'I' for Inactive)
REMARK    1  A    between atoms: C7_7  and  N1_8 
REMARK    2  A    between atoms: N1_8  and  C8_9 
ROOT
HETATM    1  C1  UNL     1      25.609  -0.489  53.882  1.00  0.00     0.018 C 
HETATM    2  C2  UNL     1      24.402  -0.446  53.843  1.00  0.00    -0.078 C 
HETATM    3  C3  UNL     1      22.959  -0.393  53.803  1.00  0.00     0.019 A 
HETATM    4  C4  UNL     1      22.252  -1.485  54.261  1.00  0.00     0.021 A 
HETATM    5  C5  UNL     1      20.862  -1.476  54.241  1.00  0.00     0.004 A 
HETATM    6  C6  UNL     1      20.159  -0.371  53.761  1.00  0.00     0.029 A 
HETATM    7  C7  UNL     1      20.865   0.700  53.312  1.00  0.00     0.034 A 
HETATM    8  C21 UNL     1      22.257   0.695  53.331  1.00  0.00     0.050 A 
ENDROOT
BRANCH   7   9
HETATM    9  N1  UNL     1      20.361   1.940  52.777  1.00  0.00    -0.343 N 
HETATM   10  H5  UNL     1      19.665   2.573  53.228  1.00  0.00     0.167 HD
BRANCH   9  11
HETATM   11  C8  UNL     1      20.907   2.274  51.507  1.00  0.00     0.129 C 
HETATM   12  N2  UNL     1      20.978   1.386  50.507  1.00  0.00    -0.227 NA
HETATM   13  C9  UNL     1      21.566   1.969  49.321  1.00  0.00     0.229 C 
HETATM   14  N3  UNL     1      21.161   2.239  48.097  1.00  0.00    -0.279 NA
HETATM   15  C10 UNL     1      22.164   2.868  47.233  1.00  0.00     0.177 C 
HETATM   16  C11 UNL     1      21.483   3.677  46.206  1.00  0.00    -0.009 C 
HETATM   17  C12 UNL     1      21.474   5.022  46.076  1.00  0.00    -0.029 C 
HETATM   18  C13 UNL     1      22.162   5.946  46.987  1.00  0.00     0.029 C 
HETATM   19  C14 UNL     1      23.235   6.805  46.360  1.00  0.00     0.030 C 
HETATM   20  C15 UNL     1      23.786   7.678  47.519  1.00  0.00     0.174 C 
HETATM   21  O1  UNL     1      24.220   6.852  48.559  1.00  0.00    -0.363 OA
HETATM   22  C16 UNL     1      24.759   7.317  49.734  1.00  0.00     0.130 C 
HETATM   23  C17 UNL     1      24.570   6.527  50.790  1.00  0.00    -0.001 C 
HETATM   24  C18 UNL     1      23.889   5.229  51.000  1.00  0.00     0.055 C 
HETATM   25  C19 UNL     1      22.921   5.259  52.161  1.00  0.00     0.172 C 
HETATM   26  O2  UNL     1      22.279   4.034  52.330  1.00  0.00    -0.383 OA
HETATM   27  C20 UNL     1      21.414   3.670  51.341  1.00  0.00     0.246 C 
ENDBRANCH   9  11
ENDBRANCH   7   9
TORSDOF 2
ENDMDL
MODEL 7
REMARK VINA RESULT:      -7.5      2.900      8.717
REMARK  2 active torsions:
REMARK  status: ('A' for Active; 'I' for Inactive)
REMARK    1  A    between atoms: C7_7  and  N1_8 
REMARK    2  A    between atoms: N1_8  and  C8_9 
ROOT
HETATM    1  C1  UNL     1      21.732  -1.725  54.578  1.00  0.00     0.018 C 
HETATM    2  C2  UNL     1      22.467  -0.927  54.047  1.00  0.00    -0.078 C 
HETATM    3  C3  UNL     1      23.343   0.026  53.406  1.00  0.00     0.019 A 
HETATM    4  C4  UNL     1      24.650  -0.345  53.166  1.00  0.00     0.021 A 
HETATM    5  C5  UNL     1      25.527   0.541  52.552  1.00  0.00     0.004 A 
HETATM    6  C6  UNL     1      25.108   1.814  52.167  1.00  0.00     0.029 A 
HETATM    7  C7  UNL     1      23.819   2.171  52.407  1.00  0.00     0.034 A 
HETATM    8  C21 UNL     1      22.937   1.286  53.023  1.00  0.00     0.050 A 
ENDROOT
BRANCH   7   9
HETATM    9  N1  UNL     1      23.167   3.420  52.101  1.00  0.00    -0.343 N 
HETATM   10  H5  UNL     1      22.804   4.114  52.791  1.00  0.00     0.167 HD
BRANCH   9  11
HETATM   11  C8  UNL     1      23.037   3.668  50.708  1.00  0.00     0.129 C 
HETATM   12  N2  UNL     1      22.513   2.764  49.870  1.00  0.00    -0.227 NA
HETATM   13  C9  UNL     1      22.486   3.255  48.510  1.00  0.00     0.229 C 
HETATM   14  N3  UNL     1      21.553   3.554  47.628  1.00  0.00    -0.279 NA
HETATM   15  C10 UNL     1      22.048   4.045  46.340  1.00  0.00     0.177 C 
HETATM   16  C11 UNL     1      21.029   4.916  45.727  1.00  0.00    -0.009 C 
HETATM   17  C12 UNL     1      21.087   6.250  45.522  1.00  0.00    -0.029 C 
HETATM   18  C13 UNL     1      22.225   7.097  45.905  1.00  0.00     0.029 C 
HETATM   19  C14 UNL     1      22.921   7.812  44.770  1.00  0.00     0.030 C 
HETATM   20  C15 UNL     1      24.058   8.628  45.440  1.00  0.00     0.174 C 
HETATM   21  O1  UNL     1      24.869   7.771  46.187  1.00  0.00    -0.363 OA
HETATM   22  C16 UNL     1      25.965   8.183  46.906  1.00  0.00     0.130 C 
HETATM   23  C17 UNL     1      26.250   7.437  47.972  1.00  0.00    -0.001 C 
HETATM   24  C18 UNL     1      25.643   6.234  48.584  1.00  0.00     0.055 C 
HETATM   25  C19 UNL     1      25.390   6.397  50.065  1.00  0.00     0.172 C 
HETATM   26  O2  UNL     1      24.801   5.261  50.617  1.00  0.00    -0.383 OA
HETATM   27  C20 UNL     1      23.528   4.990  50.213  1.00  0.00     0.246 C 
ENDBRANCH   9  11
ENDBRANCH   7   9
TORSDOF 2
ENDMDL
MODEL 8
REMARK VINA RESULT:      -7.5      3.167      4.012
REMARK  2 active torsions:
REMARK  status: ('A' for Active; 'I' for Inactive)
REMARK    1  A    between atoms: C7_7  and  N1_8 
REMARK    2  A    between atoms: N1_8  and  C8_9 
ROOT
HETATM    1  C1  UNL     1      32.660   2.806  46.898  1.00  0.00     0.018 C 
HETATM    2  C2  UNL     1      32.195   3.827  47.347  1.00  0.00    -0.078 C 
HETATM    3  C3  UNL     1      31.640   5.050  47.879  1.00  0.00     0.019 A 
HETATM    4  C4  UNL     1      32.462   5.871  48.623  1.00  0.00     0.021 A 
HETATM    5  C5  UNL     1      31.969   7.057  49.153  1.00  0.00     0.004 A 
HETATM    6  C6  UNL     1      30.644   7.440  48.946  1.00  0.00     0.029 A 
HETATM    7  C7  UNL     1      29.842   6.625  48.212  1.00  0.00     0.034 A 
HETATM    8  C21 UNL     1      30.332   5.435  47.679  1.00  0.00     0.050 A 
ENDROOT
BRANCH   7   9
HETATM    9  N1  UNL     1      28.455   6.810  47.869  1.00  0.00    -0.343 N 
HETATM   10  H5  UNL     1      28.064   7.544  47.239  1.00  0.00     0.167 HD
BRANCH   9  11
HETATM   11  C8  UNL     1      27.586   5.867  48.485  1.00  0.00     0.129 C 
HETATM   12  N2  UNL     1      27.973   4.613  48.751  1.00  0.00    -0.227 NA
HETATM   13  C9  UNL     1      26.914   3.855  49.380  1.00  0.00     0.229 C 
HETATM   14  N3  UNL     1      26.725   3.283  50.553  1.00  0.00    -0.279 NA
HETATM   15  C10 UNL     1      25.430   2.620  50.721  1.00  0.00     0.177 C 
HETATM   16  C11 UNL     1      25.072   2.606  52.152  1.00  0.00    -0.009 C 
HETATM   17  C12 UNL     1      24.076   3.279  52.767  1.00  0.00    -0.029 C 
HETATM   18  C13 UNL     1      23.146   4.190  52.085  1.00  0.00     0.029 C 
HETATM   19  C14 UNL     1      21.688   3.800  52.142  1.00  0.00     0.030 C 
HETATM   20  C15 UNL     1      20.939   4.915  51.365  1.00  0.00     0.174 C 
HETATM   21  O1  UNL     1      21.472   5.026  50.079  1.00  0.00    -0.363 OA
HETATM   22  C16 UNL     1      21.031   5.926  49.139  1.00  0.00     0.130 C 
HETATM   23  C17 UNL     1      21.951   6.315  48.257  1.00  0.00    -0.001 C 
HETATM   24  C18 UNL     1      23.382   5.999  48.051  1.00  0.00     0.055 C 
HETATM   25  C19 UNL     1      24.239   7.238  47.921  1.00  0.00     0.172 C 
HETATM   26  O2  UNL     1      25.584   6.918  47.746  1.00  0.00    -0.383 OA
HETATM   27  C20 UNL     1      26.206   6.339  48.812  1.00  0.00     0.246 C 
ENDBRANCH   9  11
ENDBRANCH   7   9
TORSDOF 2
ENDMDL
MODEL 9
REMARK VINA RESULT:      -7.5      2.370      3.977
REMARK  2 active torsions:
REMARK  status: ('A' for Active; 'I' for Inactive)
REMARK    1  A    between atoms: C7_7  and  N1_8 
REMARK    2  A    between atoms: N1_8  and  C8_9 
ROOT
HETATM    1  C1  UNL     1      24.542   8.524  44.790  1.00  0.00     0.018 C 
HETATM    2  C2  UNL     1      24.991   8.405  45.906  1.00  0.00    -0.078 C 
HETATM    3  C3  UNL     1      25.521   8.262  47.242  1.00  0.00     0.019 A 
HETATM    4  C4  UNL     1      25.790   9.406  47.965  1.00  0.00     0.021 A 
HETATM    5  C5  UNL     1      26.300   9.314  49.254  1.00  0.00     0.004 A 
HETATM    6  C6  UNL     1      26.551   8.074  49.840  1.00  0.00     0.029 A 
HETATM    7  C7  UNL     1      26.283   6.953  49.121  1.00  0.00     0.034 A 
HETATM    8  C21 UNL     1      25.772   7.040  47.829  1.00  0.00     0.050 A 
ENDROOT
BRANCH   7   9
HETATM    9  N1  UNL     1      26.459   5.577  49.513  1.00  0.00    -0.343 N 
HETATM   10  H5  UNL     1      27.279   4.970  49.293  1.00  0.00     0.167 HD
BRANCH   9  11
HETATM   11  C8  UNL     1      25.374   5.058  50.271  1.00  0.00     0.129 C 
HETATM   12  N2  UNL     1      24.376   5.836  50.708  1.00  0.00    -0.227 NA
HETATM   13  C9  UNL     1      23.395   5.073  51.449  1.00  0.00     0.229 C 
HETATM   14  N3  UNL     1      22.124   4.760  51.294  1.00  0.00    -0.279 NA
HETATM   15  C10 UNL     1      21.557   3.920  52.352  1.00  0.00     0.177 C 
HETATM   16  C11 UNL     1      20.440   3.131  51.801  1.00  0.00    -0.009 C 
HETATM   17  C12 UNL     1      20.380   1.796  51.605  1.00  0.00    -0.029 C 
HETATM   18  C13 UNL     1      21.474   0.865  51.912  1.00  0.00     0.029 C 
HETATM   19  C14 UNL     1      21.164  -0.192  52.946  1.00  0.00     0.030 C 
HETATM   20  C15 UNL     1      22.464  -1.031  53.072  1.00  0.00     0.174 C 
HETATM   21  O1  UNL     1      23.533  -0.189  53.387  1.00  0.00    -0.363 OA
HETATM   22  C16 UNL     1      24.825  -0.623  53.563  1.00  0.00     0.130 C 
HETATM   23  C17 UNL     1      25.764   0.275  53.269  1.00  0.00    -0.001 C 
HETATM   24  C18 UNL     1      25.741   1.671  52.776  1.00  0.00     0.055 C 
HETATM   25  C19 UNL     1      26.639   1.882  51.578  1.00  0.00     0.172 C 
HETATM   26  O2  UNL     1      26.588   3.197  51.120  1.00  0.00    -0.383 OA
HETATM   27  C20 UNL     1      25.405   3.594  50.572  1.00  0.00     0.246 C 
ENDBRANCH   9  11
ENDBRANCH   7   9
TORSDOF 2
ENDMDL
