MODEL 1
REMARK VINA RESULT:      -9.3      0.000      0.000
REMARK  7 active torsions:
REMARK  status: ('A' for Active; 'I' for Inactive)
REMARK    1  A    between atoms: O1_1  and  C1_2 
REMARK    2  A    between atoms: C3_5  and  N1_6 
REMARK    3  A    between atoms: C4_8  and  C5_9 
REMARK    4  A    between atoms: C4_8  and  C13_18 
REMARK    5  A    between atoms: C6_10  and  C7_11 
REMARK    6  A    between atoms: C13_18  and  C14_19 
REMARK    7  A    between atoms: C14_19  and  C15_20 
ROOT
HETATM    1  N1  UNL     1      27.042   1.145  52.928  1.00  0.00    -0.258 N 
HETATM    2  N2  UNL     1      26.944   2.401  53.705  1.00  0.00    -0.200 NA
HETATM    3  C4  UNL     1      26.141   2.214  52.528  1.00  0.00     0.139 A 
HETATM    4  H3  UNL     1      27.779   3.000  53.672  1.00  0.00     0.150 HD
ENDROOT
BRANCH   3   5
HETATM    5  C5  UNL     1      24.695   1.980  52.797  1.00  0.00     0.024 C 
HETATM    6  C6  UNL     1      24.159   0.786  52.854  1.00  0.00     0.011 C 
BRANCH   6   7
HETATM    7  C7  UNL     1      22.765   0.449  53.105  1.00  0.00    -0.040 C 
HETATM    8  C8  UNL     1      22.373  -0.718  53.591  1.00  0.00    -0.015 C 
HETATM    9  C9  UNL     1      21.239  -1.520  53.998  1.00  0.00     0.038 C 
HETATM   10  C10 UNL     1      19.879  -0.947  53.923  1.00  0.00     0.082 C 
HETATM   11  S2  UNL     1      19.517  -0.048  52.422  1.00  0.00    -0.141 SA
HETATM   12  C11 UNL     1      20.473   1.482  52.503  1.00  0.00     0.045 C 
HETATM   13  C12 UNL     1      21.777   1.469  52.796  1.00  0.00     0.018 C 
ENDBRANCH   6   7
ENDBRANCH   3   5
BRANCH   3  14
HETATM   14  C13 UNL     1      26.555   2.867  51.237  1.00  0.00     0.056 C 
BRANCH  14  15
HETATM   15  C14 UNL     1      25.401   3.177  50.312  1.00  0.00     0.016 C 
BRANCH  15  16
HETATM   16  C15 UNL     1      25.759   4.290  49.317  1.00  0.00     0.030 C 
HETATM   17  C16 UNL     1      27.197   4.290  48.970  1.00  0.00    -0.022 C 
HETATM   18  C17 UNL     1      27.744   5.410  48.510  1.00  0.00    -0.026 C 
HETATM   19  C18 UNL     1      26.886   6.606  48.368  1.00  0.00     0.053 C 
HETATM   20  C19 UNL     1      25.984   6.680  49.551  1.00  0.00    -0.026 C 
HETATM   21  C20 UNL     1      25.426   5.575  50.031  1.00  0.00    -0.022 C 
ENDBRANCH  15  16
ENDBRANCH  14  15
ENDBRANCH   3  14
BRANCH   1  22
HETATM   22  C3  UNL     1      27.824  -0.050  53.105  1.00  0.00     0.188 A 
HETATM   23  S1  UNL     1      29.553   0.348  53.774  1.00  0.00    -0.058 SA
HETATM   24  C2  UNL     1      30.000  -1.485  53.764  1.00  0.00     0.111 A 
HETATM   25  C1  UNL     1      28.747  -2.069  53.252  1.00  0.00     0.171 A 
HETATM   26  N3  UNL     1      27.786  -1.213  52.982  1.00  0.00    -0.199 NA
BRANCH  25  27
HETATM   27  O1  UNL     1      28.385  -3.407  52.992  1.00  0.00    -0.344 OA
HETATM   28  H1  UNL     1      27.400  -3.632  52.866  1.00  0.00     0.219 HD
ENDBRANCH  25  27
ENDBRANCH   1  22
TORSDOF 7
ENDMDL
MODEL 2
REMARK VINA RESULT:      -8.7      3.693      7.657
REMARK  7 active torsions:
REMARK  status: ('A' for Active; 'I' for Inactive)
REMARK    1  A    between atoms: O1_1  and  C1_2 
REMARK    2  A    between atoms: C3_5  and  N1_6 
REMARK    3  A    between atoms: C4_8  and  C5_9 
REMARK    4  A    between atoms: C4_8  and  C13_18 
REMARK    5  A    between atoms: C6_10  and  C7_11 
REMARK    6  A    between atoms: C13_18  and  C14_19 
REMARK    7  A    between atoms: C14_19  and  C15_20 
ROOT
HETATM    1  N1  UNL     1      23.880   4.814  51.645  1.00  0.00    -0.258 N 
HETATM    2  N2  UNL     1      23.555   5.110  53.059  1.00  0.00    -0.200 NA
HETATM    3  C4  UNL     1      23.461   3.765  52.561  1.00  0.00     0.139 A 
HETATM    4  H3  UNL     1      22.705   5.669  53.203  1.00  0.00     0.150 HD
ENDROOT
BRANCH   3   5
HETATM    5  C5  UNL     1      24.537   2.852  53.038  1.00  0.00     0.024 C 
HETATM    6  C6  UNL     1      25.478   2.381  52.258  1.00  0.00     0.011 C 
BRANCH   6   7
HETATM    7  C7  UNL     1      26.567   1.485  52.621  1.00  0.00    -0.040 C 
HETATM    8  C8  UNL     1      26.483   0.167  52.545  1.00  0.00    -0.015 C 
HETATM    9  C9  UNL     1      27.176  -1.086  52.753  1.00  0.00     0.038 C 
HETATM   10  C10 UNL     1      28.575  -1.073  53.230  1.00  0.00     0.082 C 
HETATM   11  S2  UNL     1      28.910   0.070  54.562  1.00  0.00    -0.141 SA
HETATM   12  C11 UNL     1      28.832   1.724  53.844  1.00  0.00     0.045 C 
HETATM   13  C12 UNL     1      27.797   2.102  53.087  1.00  0.00     0.018 C 
ENDBRANCH   6   7
ENDBRANCH   3   5
BRANCH   3  14
HETATM   14  C13 UNL     1      22.112   3.197  52.211  1.00  0.00     0.056 C 
BRANCH  14  15
HETATM   15  C14 UNL     1      22.178   1.924  51.400  1.00  0.00     0.016 C 
BRANCH  15  16
HETATM   16  C15 UNL     1      21.555   0.741  52.154  1.00  0.00     0.030 C 
HETATM   17  C16 UNL     1      20.824   1.172  53.367  1.00  0.00    -0.022 C 
HETATM   18  C17 UNL     1      20.628   0.291  54.342  1.00  0.00    -0.026 C 
HETATM   19  C18 UNL     1      21.152  -1.081  54.168  1.00  0.00     0.053 C 
HETATM   20  C19 UNL     1      22.500  -0.993  53.540  1.00  0.00    -0.026 C 
HETATM   21  C20 UNL     1      22.723  -0.121  52.564  1.00  0.00    -0.022 C 
ENDBRANCH  15  16
ENDBRANCH  14  15
ENDBRANCH   3  14
BRANCH   1  22
HETATM   22  C3  UNL     1      24.321   5.644  50.555  1.00  0.00     0.188 A 
HETATM   23  S1  UNL     1      23.225   5.417  49.024  1.00  0.00    -0.058 SA
HETATM   24  C2  UNL     1      24.266   6.667  48.069  1.00  0.00     0.111 A 
HETATM   25  C1  UNL     1      25.263   7.032  49.093  1.00  0.00     0.171 A 
HETATM   26  N3  UNL     1      25.134   6.430  50.255  1.00  0.00    -0.199 NA
BRANCH  25  27
HETATM   27  O1  UNL     1      26.352   7.927  49.051  1.00  0.00    -0.344 OA
HETATM   28  H1  UNL     1      27.034   7.833  48.301  1.00  0.00     0.219 HD
ENDBRANCH  25  27
ENDBRANCH   1  22
TORSDOF 7
ENDMDL
MODEL 3
REMARK VINA RESULT:      -8.7      2.753      7.246
REMARK  7 active torsions:
REMARK  status: ('A' for Active; 'I' for Inactive)
REMARK    1  A    between atoms: O1_1  and  C1_2 
REMARK    2  A    between atoms: C3_5  and  N1_6 
REMARK    3  A    between atoms: C4_8  and  C5_9 
REMARK    4  A    between atoms: C4_8  and  C13_18 
REMARK    5  A    between atoms: C6_10  and  C7_11 
REMARK    6  A    between atoms: C13_18  and  C14_19 
REMARK    7  A    between atoms: C14_19  and  C15_20 
ROOT
HETATM    1  N1  UNL     1      26.280   2.024  52.255  1.00  0.00    -0.258 N 
HETATM    2  N2  UNL     1      25.888   1.394  50.974  1.00  0.00    -0.200 NA
HETATM    3  C4  UNL     1      25.153   2.520  51.483  1.00  0.00     0.139 A 
HETATM    4  H3  UNL     1      25.503   0.445  51.055  1.00  0.00     0.150 HD
ENDROOT
BRANCH   3   5
HETATM    5  C5  UNL     1      25.381   3.792  50.744  1.00  0.00     0.024 C 
HETATM    6  C6  UNL     1      26.276   3.922  49.796  1.00  0.00     0.011 C 
BRANCH   6   7
HETATM    7  C7  UNL     1      26.581   5.115  49.018  1.00  0.00    -0.040 C 
HETATM    8  C8  UNL     1      27.798   5.422  48.601  1.00  0.00    -0.015 C 
HETATM    9  C9  UNL     1      28.603   6.379  47.873  1.00  0.00     0.038 C 
HETATM   10  C10 UNL     1      27.954   7.554  47.254  1.00  0.00     0.082 C 
HETATM   11  S2  UNL     1      26.753   8.384  48.283  1.00  0.00    -0.141 SA
HETATM   12  C11 UNL     1      25.325   7.284  48.387  1.00  0.00     0.045 C 
HETATM   13  C12 UNL     1      25.468   5.993  48.699  1.00  0.00     0.018 C 
ENDBRANCH   6   7
ENDBRANCH   3   5
BRANCH   3  14
HETATM   14  C13 UNL     1      23.835   2.294  52.173  1.00  0.00     0.056 C 
BRANCH  14  15
HETATM   15  C14 UNL     1      22.907   1.364  51.426  1.00  0.00     0.016 C 
BRANCH  15  16
HETATM   16  C15 UNL     1      22.286   0.317  52.360  1.00  0.00     0.030 C 
HETATM   17  C16 UNL     1      21.275   0.904  53.267  1.00  0.00    -0.022 C 
HETATM   18  C17 UNL     1      20.987   0.271  54.399  1.00  0.00    -0.026 C 
HETATM   19  C18 UNL     1      21.694  -0.993  54.699  1.00  0.00     0.053 C 
HETATM   20  C19 UNL     1      23.122  -0.837  54.307  1.00  0.00    -0.026 C 
HETATM   21  C20 UNL     1      23.437  -0.207  53.181  1.00  0.00    -0.022 C 
ENDBRANCH  15  16
ENDBRANCH  14  15
ENDBRANCH   3  14
BRANCH   1  22
HETATM   22  C3  UNL     1      27.338   1.746  53.191  1.00  0.00     0.188 A 
HETATM   23  S1  UNL     1      27.223  -0.024  53.860  1.00  0.00    -0.058 SA
HETATM   24  C2  UNL     1      28.752   0.259  54.928  1.00  0.00     0.111 A 
HETATM   25  C1  UNL     1      29.073   1.656  54.581  1.00  0.00     0.171 A 
HETATM   26  N3  UNL     1      28.270   2.227  53.710  1.00  0.00    -0.199 NA
BRANCH  25  27
HETATM   27  O1  UNL     1      30.107   2.508  55.022  1.00  0.00    -0.344 OA
HETATM   28  H1  UNL     1      31.069   2.273  54.785  1.00  0.00     0.219 HD
ENDBRANCH  25  27
ENDBRANCH   1  22
TORSDOF 7
ENDMDL
MODEL 4
REMARK VINA RESULT:      -8.7      1.930      2.442
REMARK  7 active torsions:
REMARK  status: ('A' for Active; 'I' for Inactive)
REMARK    1  A    between atoms: O1_1  and  C1_2 
REMARK    2  A    between atoms: C3_5  and  N1_6 
REMARK    3  A    between atoms: C4_8  and  C5_9 
REMARK    4  A    between atoms: C4_8  and  C13_18 
REMARK    5  A    between atoms: C6_10  and  C7_11 
REMARK    6  A    between atoms: C13_18  and  C14_19 
REMARK    7  A    between atoms: C14_19  and  C15_20 
ROOT
HETATM    1  N1  UNL     1      25.800   2.397  52.483  1.00  0.00    -0.258 N 
HETATM    2  N2  UNL     1      24.901   3.553  52.700  1.00  0.00    -0.200 NA
HETATM    3  C4  UNL     1      24.633   2.615  51.644  1.00  0.00     0.139 A 
HETATM    4  H3  UNL     1      25.311   4.471  52.486  1.00  0.00     0.150 HD
ENDROOT
BRANCH   3   5
HETATM    5  C5  UNL     1      23.475   1.715  51.895  1.00  0.00     0.024 C 
HETATM    6  C6  UNL     1      22.279   2.152  52.204  1.00  0.00     0.011 C 
BRANCH   6   7
HETATM    7  C7  UNL     1      21.086   1.362  52.473  1.00  0.00    -0.040 C 
HETATM    8  C8  UNL     1      21.109   0.191  53.088  1.00  0.00    -0.015 C 
HETATM    9  C9  UNL     1      20.315  -0.919  53.571  1.00  0.00     0.038 C 
HETATM   10  C10 UNL     1      18.847  -0.888  53.408  1.00  0.00     0.082 C 
HETATM   11  S2  UNL     1      18.275  -0.345  51.804  1.00  0.00    -0.141 SA
HETATM   12  C11 UNL     1      18.615   1.426  51.716  1.00  0.00     0.045 C 
HETATM   13  C12 UNL     1      19.818   1.917  52.028  1.00  0.00     0.018 C 
ENDBRANCH   6   7
ENDBRANCH   3   5
BRANCH   3  14
HETATM   14  C13 UNL     1      24.998   2.971  50.228  1.00  0.00     0.056 C 
BRANCH  14  15
HETATM   15  C14 UNL     1      24.592   4.369  49.825  1.00  0.00     0.016 C 
BRANCH  15  16
HETATM   16  C15 UNL     1      25.813   5.279  49.635  1.00  0.00     0.030 C 
HETATM   17  C16 UNL     1      25.567   6.348  48.642  1.00  0.00    -0.022 C 
HETATM   18  C17 UNL     1      26.607   6.913  48.039  1.00  0.00    -0.026 C 
HETATM   19  C18 UNL     1      27.965   6.444  48.390  1.00  0.00     0.053 C 
HETATM   20  C19 UNL     1      27.930   4.961  48.523  1.00  0.00    -0.026 C 
HETATM   21  C20 UNL     1      26.901   4.371  49.120  1.00  0.00    -0.022 C 
ENDBRANCH  15  16
ENDBRANCH  14  15
ENDBRANCH   3  14
BRANCH   1  22
HETATM   22  C3  UNL     1      26.989   1.950  53.161  1.00  0.00     0.188 A 
HETATM   23  S1  UNL     1      27.145   0.061  53.112  1.00  0.00    -0.058 SA
HETATM   24  C2  UNL     1      28.755   0.149  54.091  1.00  0.00     0.111 A 
HETATM   25  C1  UNL     1      28.882   1.606  54.279  1.00  0.00     0.171 A 
HETATM   26  N3  UNL     1      27.921   2.335  53.754  1.00  0.00    -0.199 NA
BRANCH  25  27
HETATM   27  O1  UNL     1      29.866   2.375  54.933  1.00  0.00    -0.344 OA
HETATM   28  H1  UNL     1      30.791   1.972  55.070  1.00  0.00     0.219 HD
ENDBRANCH  25  27
ENDBRANCH   1  22
TORSDOF 7
ENDMDL
MODEL 5
REMARK VINA RESULT:      -8.6      1.336      2.143
REMARK  7 active torsions:
REMARK  status: ('A' for Active; 'I' for Inactive)
REMARK    1  A    between atoms: O1_1  and  C1_2 
REMARK    2  A    between atoms: C3_5  and  N1_6 
REMARK    3  A    between atoms: C4_8  and  C5_9 
REMARK    4  A    between atoms: C4_8  and  C13_18 
REMARK    5  A    between atoms: C6_10  and  C7_11 
REMARK    6  A    between atoms: C13_18  and  C14_19 
REMARK    7  A    between atoms: C14_19  and  C15_20 
ROOT
HETATM    1  N1  UNL     1      26.894   1.032  52.727  1.00  0.00    -0.258 N 
HETATM    2  N2  UNL     1      26.806   2.409  53.263  1.00  0.00    -0.200 NA
HETATM    3  C4  UNL     1      25.894   1.970  52.242  1.00  0.00     0.139 A 
HETATM    4  H3  UNL     1      27.596   3.022  53.022  1.00  0.00     0.150 HD
ENDROOT
BRANCH   3   5
HETATM    5  C5  UNL     1      24.502   1.738  52.717  1.00  0.00     0.024 C 
HETATM    6  C6  UNL     1      23.672   0.910  52.131  1.00  0.00     0.011 C 
BRANCH   6   7
HETATM    7  C7  UNL     1      22.297   0.615  52.509  1.00  0.00    -0.040 C 
HETATM    8  C8  UNL     1      21.941  -0.470  53.178  1.00  0.00    -0.015 C 
HETATM    9  C9  UNL     1      20.838  -1.204  53.760  1.00  0.00     0.038 C 
HETATM   10  C10 UNL     1      19.472  -0.645  53.685  1.00  0.00     0.082 C 
HETATM   11  S2  UNL     1      19.018   0.032  52.094  1.00  0.00    -0.141 SA
HETATM   12  C11 UNL     1      19.967   1.555  51.901  1.00  0.00     0.045 C 
HETATM   13  C12 UNL     1      21.286   1.582  52.116  1.00  0.00     0.018 C 
ENDBRANCH   6   7
ENDBRANCH   3   5
BRANCH   3  14
HETATM   14  C13 UNL     1      26.128   2.377  50.813  1.00  0.00     0.056 C 
BRANCH  14  15
HETATM   15  C14 UNL     1      26.041   3.868  50.581  1.00  0.00     0.016 C 
BRANCH  15  16
HETATM   16  C15 UNL     1      24.720   4.256  49.902  1.00  0.00     0.030 C 
HETATM   17  C16 UNL     1      23.702   4.712  50.875  1.00  0.00    -0.022 C 
HETATM   18  C17 UNL     1      22.419   4.647  50.535  1.00  0.00    -0.026 C 
HETATM   19  C18 UNL     1      22.070   4.120  49.198  1.00  0.00     0.053 C 
HETATM   20  C19 UNL     1      22.949   2.953  48.909  1.00  0.00    -0.026 C 
HETATM   21  C20 UNL     1      24.234   2.992  49.239  1.00  0.00    -0.022 C 
ENDBRANCH  15  16
ENDBRANCH  14  15
ENDBRANCH   3  14
BRANCH   1  22
HETATM   22  C3  UNL     1      27.760  -0.076  53.033  1.00  0.00     0.188 A 
HETATM   23  S1  UNL     1      29.457   0.517  53.635  1.00  0.00    -0.058 SA
HETATM   24  C2  UNL     1      30.034  -1.268  53.831  1.00  0.00     0.111 A 
HETATM   25  C1  UNL     1      28.825  -1.995  53.400  1.00  0.00     0.171 A 
HETATM   26  N3  UNL     1      27.805  -1.245  53.044  1.00  0.00    -0.199 NA
BRANCH  25  27
HETATM   27  O1  UNL     1      28.559  -3.376  53.299  1.00  0.00    -0.344 OA
HETATM   28  H1  UNL     1      28.371  -3.772  52.380  1.00  0.00     0.219 HD
ENDBRANCH  25  27
ENDBRANCH   1  22
TORSDOF 7
ENDMDL
MODEL 6
REMARK VINA RESULT:      -8.3      2.069      6.817
REMARK  7 active torsions:
REMARK  status: ('A' for Active; 'I' for Inactive)
REMARK    1  A    between atoms: O1_1  and  C1_2 
REMARK    2  A    between atoms: C3_5  and  N1_6 
REMARK    3  A    between atoms: C4_8  and  C5_9 
REMARK    4  A    between atoms: C4_8  and  C13_18 
REMARK    5  A    between atoms: C6_10  and  C7_11 
REMARK    6  A    between atoms: C13_18  and  C14_19 
REMARK    7  A    between atoms: C14_19  and  C15_20 
ROOT
HETATM    1  N1  UNL     1      26.505   0.761  52.270  1.00  0.00    -0.258 N 
HETATM    2  N2  UNL     1      25.530   0.695  51.159  1.00  0.00    -0.200 NA
HETATM    3  C4  UNL     1      25.619   1.875  51.976  1.00  0.00     0.139 A 
HETATM    4  H3  UNL     1      24.759   0.030  51.294  1.00  0.00     0.150 HD
ENDROOT
BRANCH   3   5
HETATM    5  C5  UNL     1      26.249   3.045  51.305  1.00  0.00     0.024 C 
HETATM    6  C6  UNL     1      25.865   3.495  50.136  1.00  0.00     0.011 C 
BRANCH   6   7
HETATM    7  C7  UNL     1      26.412   4.622  49.393  1.00  0.00    -0.040 C 
HETATM    8  C8  UNL     1      27.658   4.669  48.951  1.00  0.00    -0.015 C 
HETATM    9  C9  UNL     1      28.640   5.453  48.233  1.00  0.00     0.038 C 
HETATM   10  C10 UNL     1      28.257   6.768  47.679  1.00  0.00     0.082 C 
HETATM   11  S2  UNL     1      27.296   7.800  48.776  1.00  0.00    -0.141 SA
HETATM   12  C11 UNL     1      25.661   7.043  48.884  1.00  0.00     0.045 C 
HETATM   13  C12 UNL     1      25.517   5.739  49.143  1.00  0.00     0.018 C 
ENDBRANCH   6   7
ENDBRANCH   3   5
BRANCH   3  14
HETATM   14  C13 UNL     1      24.600   2.105  53.059  1.00  0.00     0.056 C 
BRANCH  14  15
HETATM   15  C14 UNL     1      23.170   2.037  52.576  1.00  0.00     0.016 C 
BRANCH  15  16
HETATM   16  C15 UNL     1      22.333   1.072  53.427  1.00  0.00     0.030 C 
HETATM   17  C16 UNL     1      23.024  -0.215  53.660  1.00  0.00    -0.022 C 
HETATM   18  C17 UNL     1      22.299  -1.285  53.965  1.00  0.00    -0.026 C 
HETATM   19  C18 UNL     1      20.830  -1.137  54.057  1.00  0.00     0.053 C 
HETATM   20  C19 UNL     1      20.377  -0.255  52.946  1.00  0.00    -0.026 C 
HETATM   21  C20 UNL     1      21.085   0.820  52.620  1.00  0.00    -0.022 C 
ENDBRANCH  15  16
ENDBRANCH  14  15
ENDBRANCH   3  14
BRANCH   1  22
HETATM   22  C3  UNL     1      27.486  -0.173  52.759  1.00  0.00     0.188 A 
HETATM   23  S1  UNL     1      28.991   0.721  53.487  1.00  0.00    -0.058 SA
HETATM   24  C2  UNL     1      29.803  -0.933  53.892  1.00  0.00     0.111 A 
HETATM   25  C1  UNL     1      28.777  -1.870  53.397  1.00  0.00     0.171 A 
HETATM   26  N3  UNL     1      27.705  -1.317  52.872  1.00  0.00    -0.199 NA
BRANCH  25  27
HETATM   27  O1  UNL     1      28.736  -3.279  53.383  1.00  0.00    -0.344 OA
HETATM   28  H1  UNL     1      29.313  -3.792  54.046  1.00  0.00     0.219 HD
ENDBRANCH  25  27
ENDBRANCH   1  22
TORSDOF 7
ENDMDL
MODEL 7
REMARK VINA RESULT:      -8.3      3.478      6.293
REMARK  7 active torsions:
REMARK  status: ('A' for Active; 'I' for Inactive)
REMARK    1  A    between atoms: O1_1  and  C1_2 
REMARK    2  A    between atoms: C3_5  and  N1_6 
REMARK    3  A    between atoms: C4_8  and  C5_9 
REMARK    4  A    between atoms: C4_8  and  C13_18 
REMARK    5  A    between atoms: C6_10  and  C7_11 
REMARK    6  A    between atoms: C13_18  and  C14_19 
REMARK    7  A    between atoms: C14_19  and  C15_20 
ROOT
HETATM    1  N1  UNL     1      23.225   3.346  50.484  1.00  0.00    -0.258 N 
HETATM    2  N2  UNL     1      23.704   3.133  49.100  1.00  0.00    -0.200 NA
HETATM    3  C4  UNL     1      24.566   3.735  50.080  1.00  0.00     0.139 A 
HETATM    4  H3  UNL     1      23.247   3.714  48.386  1.00  0.00     0.150 HD
ENDROOT
BRANCH   3   5
HETATM    5  C5  UNL     1      25.669   2.856  50.557  1.00  0.00     0.024 C 
HETATM    6  C6  UNL     1      25.673   2.283  51.735  1.00  0.00     0.011 C 
BRANCH   6   7
HETATM    7  C7  UNL     1      26.697   1.414  52.297  1.00  0.00    -0.040 C 
HETATM    8  C8  UNL     1      26.610   0.094  52.305  1.00  0.00    -0.015 C 
HETATM    9  C9  UNL     1      27.257  -1.142  52.690  1.00  0.00     0.038 C 
HETATM   10  C10 UNL     1      28.583  -1.097  53.340  1.00  0.00     0.082 C 
HETATM   11  S2  UNL     1      28.757   0.139  54.619  1.00  0.00    -0.141 SA
HETATM   12  C11 UNL     1      28.789   1.737  53.781  1.00  0.00     0.045 C 
HETATM   13  C12 UNL     1      27.864   2.061  52.872  1.00  0.00     0.018 C 
ENDBRANCH   6   7
ENDBRANCH   3   5
BRANCH   3  14
HETATM   14  C13 UNL     1      24.760   5.227  50.080  1.00  0.00     0.056 C 
BRANCH  14  15
HETATM   15  C14 UNL     1      25.208   5.784  48.748  1.00  0.00     0.016 C 
BRANCH  15  16
HETATM   16  C15 UNL     1      26.645   6.320  48.816  1.00  0.00     0.030 C 
HETATM   17  C16 UNL     1      26.926   7.307  47.750  1.00  0.00    -0.022 C 
HETATM   18  C17 UNL     1      28.187   7.517  47.389  1.00  0.00    -0.026 C 
HETATM   19  C18 UNL     1      29.252   6.750  48.071  1.00  0.00     0.053 C 
HETATM   20  C19 UNL     1      28.780   5.349  48.252  1.00  0.00    -0.026 C 
HETATM   21  C20 UNL     1      27.524   5.112  48.611  1.00  0.00    -0.022 C 
ENDBRANCH  15  16
ENDBRANCH  14  15
ENDBRANCH   3  14
BRANCH   1  22
HETATM   22  C3  UNL     1      21.977   3.049  51.137  1.00  0.00     0.188 A 
HETATM   23  S1  UNL     1      22.021   1.348  51.974  1.00  0.00    -0.058 SA
HETATM   24  C2  UNL     1      20.246   1.573  52.569  1.00  0.00     0.111 A 
HETATM   25  C1  UNL     1      19.940   2.907  52.021  1.00  0.00     0.171 A 
HETATM   26  N3  UNL     1      20.910   3.482  51.345  1.00  0.00    -0.199 NA
BRANCH  25  27
HETATM   27  O1  UNL     1      18.772   3.693  52.090  1.00  0.00    -0.344 OA
HETATM   28  H1  UNL     1      18.159   3.733  51.278  1.00  0.00     0.219 HD
ENDBRANCH  25  27
ENDBRANCH   1  22
TORSDOF 7
ENDMDL
MODEL 8
REMARK VINA RESULT:      -8.1      4.287      6.747
REMARK  7 active torsions:
REMARK  status: ('A' for Active; 'I' for Inactive)
REMARK    1  A    between atoms: O1_1  and  C1_2 
REMARK    2  A    between atoms: C3_5  and  N1_6 
REMARK    3  A    between atoms: C4_8  and  C5_9 
REMARK    4  A    between atoms: C4_8  and  C13_18 
REMARK    5  A    between atoms: C6_10  and  C7_11 
REMARK    6  A    between atoms: C13_18  and  C14_19 
REMARK    7  A    between atoms: C14_19  and  C15_20 
ROOT
HETATM    1  N1  UNL     1      22.988   2.777  51.558  1.00  0.00    -0.258 N 
HETATM    2  N2  UNL     1      23.711   1.757  50.765  1.00  0.00    -0.200 NA
HETATM    3  C4  UNL     1      22.893   1.362  51.880  1.00  0.00     0.139 A 
HETATM    4  H3  UNL     1      24.734   1.779  50.856  1.00  0.00     0.150 HD
ENDROOT
BRANCH   3   5
HETATM    5  C5  UNL     1      21.617   0.694  51.505  1.00  0.00     0.024 C 
HETATM    6  C6  UNL     1      20.522   0.784  52.218  1.00  0.00     0.011 C 
BRANCH   6   7
HETATM    7  C7  UNL     1      19.230   0.171  51.945  1.00  0.00    -0.040 C 
HETATM    8  C8  UNL     1      18.508   0.440  50.869  1.00  0.00    -0.015 C 
HETATM    9  C9  UNL     1      17.280   0.159  50.156  1.00  0.00     0.038 C 
HETATM   10  C10 UNL     1      16.328  -0.828  50.707  1.00  0.00     0.082 C 
HETATM   11  S2  UNL     1      16.028  -0.690  52.463  1.00  0.00    -0.141 SA
HETATM   12  C11 UNL     1      17.536  -1.252  53.282  1.00  0.00     0.045 C 
HETATM   13  C12 UNL     1      18.734  -0.781  52.925  1.00  0.00     0.018 C 
ENDBRANCH   6   7
ENDBRANCH   3   5
BRANCH   3  14
HETATM   14  C13 UNL     1      23.545   1.023  53.193  1.00  0.00     0.056 C 
BRANCH  14  15
HETATM   15  C14 UNL     1      24.311  -0.280  53.176  1.00  0.00     0.016 C 
BRANCH  15  16
HETATM   16  C15 UNL     1      25.824  -0.044  53.071  1.00  0.00     0.030 C 
HETATM   17  C16 UNL     1      26.555  -1.265  52.663  1.00  0.00    -0.022 C 
HETATM   18  C17 UNL     1      27.846  -1.365  52.958  1.00  0.00    -0.026 C 
HETATM   19  C18 UNL     1      28.493  -0.249  53.682  1.00  0.00     0.053 C 
HETATM   20  C19 UNL     1      27.552   0.238  54.730  1.00  0.00    -0.026 C 
HETATM   21  C20 UNL     1      26.257   0.347  54.462  1.00  0.00    -0.022 C 
ENDBRANCH  15  16
ENDBRANCH  14  15
ENDBRANCH   3  14
BRANCH   1  22
HETATM   22  C3  UNL     1      22.900   4.209  51.449  1.00  0.00     0.188 A 
HETATM   23  S1  UNL     1      21.174   4.756  50.886  1.00  0.00    -0.058 SA
HETATM   24  C2  UNL     1      21.707   6.565  50.940  1.00  0.00     0.111 A 
HETATM   25  C1  UNL     1      23.108   6.423  51.379  1.00  0.00     0.171 A 
HETATM   26  N3  UNL     1      23.522   5.191  51.581  1.00  0.00    -0.199 NA
BRANCH  25  27
HETATM   27  O1  UNL     1      24.105   7.389  51.625  1.00  0.00    -0.344 OA
HETATM   28  H1  UNL     1      23.898   8.156  52.262  1.00  0.00     0.219 HD
ENDBRANCH  25  27
ENDBRANCH   1  22
TORSDOF 7
ENDMDL
MODEL 9
REMARK VINA RESULT:      -7.9      4.168      7.314
REMARK  7 active torsions:
REMARK  status: ('A' for Active; 'I' for Inactive)
REMARK    1  A    between atoms: O1_1  and  C1_2 
REMARK    2  A    between atoms: C3_5  and  N1_6 
REMARK    3  A    between atoms: C4_8  and  C5_9 
REMARK    4  A    between atoms: C4_8  and  C13_18 
REMARK    5  A    between atoms: C6_10  and  C7_11 
REMARK    6  A    between atoms: C13_18  and  C14_19 
REMARK    7  A    between atoms: C14_19  and  C15_20 
ROOT
HETATM    1  N1  UNL     1      24.900   5.935  50.478  1.00  0.00    -0.258 N 
HETATM    2  N2  UNL     1      24.079   5.690  51.684  1.00  0.00    -0.200 NA
HETATM    3  C4  UNL     1      24.234   4.661  50.692  1.00  0.00     0.139 A 
HETATM    4  H3  UNL     1      23.207   6.232  51.735  1.00  0.00     0.150 HD
ENDROOT
BRANCH   3   5
HETATM    5  C5  UNL     1      25.111   3.531  51.106  1.00  0.00     0.024 C 
HETATM    6  C6  UNL     1      24.980   2.900  52.246  1.00  0.00     0.011 C 
BRANCH   6   7
HETATM    7  C7  UNL     1      25.782   1.792  52.747  1.00  0.00    -0.040 C 
HETATM    8  C8  UNL     1      27.085   1.874  52.964  1.00  0.00    -0.015 C 
HETATM    9  C9  UNL     1      28.266   1.166  53.408  1.00  0.00     0.038 C 
HETATM   10  C10 UNL     1      28.148  -0.236  53.859  1.00  0.00     0.082 C 
HETATM   11  S2  UNL     1      27.130  -1.280  52.826  1.00  0.00    -0.141 SA
HETATM   12  C11 UNL     1      25.425  -0.745  53.087  1.00  0.00     0.045 C 
HETATM   13  C12 UNL     1      25.085   0.545  53.011  1.00  0.00     0.018 C 
ENDBRANCH   6   7
ENDBRANCH   3   5
BRANCH   3  14
HETATM   14  C13 UNL     1      23.128   4.413  49.702  1.00  0.00     0.056 C 
BRANCH  14  15
HETATM   15  C14 UNL     1      21.742   4.558  50.287  1.00  0.00     0.016 C 
BRANCH  15  16
HETATM   16  C15 UNL     1      21.166   3.201  50.715  1.00  0.00     0.030 C 
HETATM   17  C16 UNL     1      21.435   2.901  52.139  1.00  0.00    -0.022 C 
HETATM   18  C17 UNL     1      21.418   1.635  52.541  1.00  0.00    -0.026 C 
HETATM   19  C18 UNL     1      21.132   0.583  51.541  1.00  0.00     0.053 C 
HETATM   20  C19 UNL     1      21.845   0.927  50.280  1.00  0.00    -0.026 C 
HETATM   21  C20 UNL     1      21.877   2.185  49.857  1.00  0.00    -0.022 C 
ENDBRANCH  15  16
ENDBRANCH  14  15
ENDBRANCH   3  14
BRANCH   1  22
HETATM   22  C3  UNL     1      25.661   7.075  50.035  1.00  0.00     0.188 A 
HETATM   23  S1  UNL     1      25.679   7.202  48.143  1.00  0.00    -0.058 SA
HETATM   24  C2  UNL     1      26.748   8.754  48.239  1.00  0.00     0.111 A 
HETATM   25  C1  UNL     1      26.898   8.894  49.699  1.00  0.00     0.171 A 
HETATM   26  N3  UNL     1      26.295   7.977  50.425  1.00  0.00    -0.199 NA
BRANCH  25  27
HETATM   27  O1  UNL     1      27.584   9.850  50.475  1.00  0.00    -0.344 OA
HETATM   28  H1  UNL     1      27.776   9.642  51.452  1.00  0.00     0.219 HD
ENDBRANCH  25  27
ENDBRANCH   1  22
TORSDOF 7
ENDMDL
