MODEL 1
REMARK VINA RESULT:      -7.2      0.000      0.000
REMARK  8 active torsions:
REMARK  status: ('A' for Active; 'I' for Inactive)
REMARK    1  A    between atoms: C2_2  and  O1_3 
REMARK    2  A    between atoms: O1_3  and  C3_4 
REMARK    3  A    between atoms: C3_4  and  C4_5 
REMARK    4  A    between atoms: C5_6  and  C6_7 
REMARK    5  A    between atoms: C6_7  and  C7_8 
REMARK    6  A    between atoms: C12_15  and  N3_16 
REMARK    7  A    between atoms: N3_16  and  C13_17 
REMARK    8  A    between atoms: C13_17  and  C14_18 
ROOT
HETATM    1  C7  UNL     1      24.592   0.102  53.581  1.00  0.00    -0.055 C 
HETATM    2  C8  UNL     1      23.372  -0.543  53.732  1.00  0.00     0.009 C 
HETATM    3  C9  UNL     1      22.219  -0.703  54.473  1.00  0.00     0.020 C 
HETATM    4  C10 UNL     1      21.104   0.109  54.433  1.00  0.00     0.118 C 
HETATM    5  N1  UNL     1      20.721   0.088  53.123  1.00  0.00    -0.254 NA
HETATM    6  C11 UNL     1      21.562   0.588  52.186  1.00  0.00     0.234 C 
HETATM    7  N2  UNL     1      22.366   1.397  51.472  1.00  0.00    -0.225 NA
HETATM    8  C12 UNL     1      22.868   2.477  52.093  1.00  0.00     0.125 C 
HETATM    9  C18 UNL     1      23.997   2.409  52.877  1.00  0.00     0.051 C 
HETATM   10  C19 UNL     1      24.801   1.294  52.961  1.00  0.00     0.011 C 
ENDROOT
BRANCH   8  11
HETATM   11  N3  UNL     1      22.221   3.735  51.942  1.00  0.00    -0.370 N 
HETATM   12  H16 UNL     1      21.773   4.222  52.743  1.00  0.00     0.161 HD
BRANCH  11  13
HETATM   13  C13 UNL     1      22.298   4.180  50.564  1.00  0.00     0.167 C 
BRANCH  13  14
HETATM   14  C14 UNL     1      23.550   4.793  50.200  1.00  0.00     0.000 A 
HETATM   15  C15 UNL     1      24.560   4.328  49.322  1.00  0.00     0.017 A 
HETATM   16  C16 UNL     1      25.663   5.133  49.164  1.00  0.00     0.008 A 
HETATM   17  C17 UNL     1      25.740   6.312  49.840  1.00  0.00     0.050 A 
HETATM   18  S1  UNL     1      24.168   6.358  50.794  1.00  0.00    -0.105 SA
ENDBRANCH  13  14
ENDBRANCH  11  13
ENDBRANCH   8  11
BRANCH   1  19
HETATM   19  C6  UNL     1      25.762  -0.634  54.183  1.00  0.00     0.065 C 
BRANCH  19  20
HETATM   20  C5  UNL     1      26.573  -1.127  53.041  1.00  0.00    -0.024 C 
HETATM   21  C4  UNL     1      27.891  -1.228  52.826  1.00  0.00    -0.005 C 
BRANCH  21  22
HETATM   22  C3  UNL     1      28.892  -0.805  53.832  1.00  0.00     0.194 C 
BRANCH  22  23
HETATM   23  O1  UNL     1      29.542   0.348  53.485  1.00  0.00    -0.388 OA
BRANCH  23  24
HETATM   24  C2  UNL     1      29.207   1.388  54.331  1.00  0.00     0.163 C 
HETATM   25  C1  UNL     1      28.434   2.427  53.535  1.00  0.00     0.033 C 
ENDBRANCH  23  24
ENDBRANCH  22  23
ENDBRANCH  21  22
ENDBRANCH  19  20
ENDBRANCH   1  19
TORSDOF 8
ENDMDL
MODEL 2
REMARK VINA RESULT:      -7.1      3.463      6.914
REMARK  8 active torsions:
REMARK  status: ('A' for Active; 'I' for Inactive)
REMARK    1  A    between atoms: C2_2  and  O1_3 
REMARK    2  A    between atoms: O1_3  and  C3_4 
REMARK    3  A    between atoms: C3_4  and  C4_5 
REMARK    4  A    between atoms: C5_6  and  C6_7 
REMARK    5  A    between atoms: C6_7  and  C7_8 
REMARK    6  A    between atoms: C12_15  and  N3_16 
REMARK    7  A    between atoms: N3_16  and  C13_17 
REMARK    8  A    between atoms: C13_17  and  C14_18 
ROOT
HETATM    1  C7  UNL     1      23.447   2.357  50.491  1.00  0.00    -0.055 C 
HETATM    2  C8  UNL     1      23.894   3.325  49.602  1.00  0.00     0.009 C 
HETATM    3  C9  UNL     1      24.131   4.662  49.352  1.00  0.00     0.020 C 
HETATM    4  C10 UNL     1      25.232   5.385  49.760  1.00  0.00     0.118 C 
HETATM    5  N1  UNL     1      26.293   4.707  49.235  1.00  0.00    -0.254 NA
HETATM    6  C11 UNL     1      26.527   3.437  49.646  1.00  0.00     0.234 C 
HETATM    7  N2  UNL     1      26.774   2.347  50.394  1.00  0.00    -0.225 NA
HETATM    8  C12 UNL     1      26.504   2.422  51.709  1.00  0.00     0.125 C 
HETATM    9  C18 UNL     1      25.239   2.208  52.206  1.00  0.00     0.051 C 
HETATM   10  C19 UNL     1      24.190   1.738  51.447  1.00  0.00     0.011 C 
ENDROOT
BRANCH   8  11
HETATM   11  N3  UNL     1      27.549   2.732  52.621  1.00  0.00    -0.370 N 
HETATM   12  H16 UNL     1      28.232   3.493  52.437  1.00  0.00     0.161 HD
BRANCH  11  13
HETATM   13  C13 UNL     1      27.490   1.854  53.775  1.00  0.00     0.167 C 
BRANCH  13  14
HETATM   14  C14 UNL     1      28.209   0.615  53.622  1.00  0.00     0.000 A 
HETATM   15  C15 UNL     1      29.577   0.330  53.858  1.00  0.00     0.017 A 
HETATM   16  C16 UNL     1      29.992  -0.958  53.624  1.00  0.00     0.008 A 
HETATM   17  C17 UNL     1      29.098  -1.886  53.185  1.00  0.00     0.050 A 
HETATM   18  S1  UNL     1      27.525  -0.939  53.071  1.00  0.00    -0.105 SA
ENDBRANCH  13  14
ENDBRANCH  11  13
ENDBRANCH   8  11
BRANCH   1  19
HETATM   19  C6  UNL     1      21.991   1.999  50.339  1.00  0.00     0.065 C 
BRANCH  19  20
HETATM   20  C5  UNL     1      21.279   2.674  51.454  1.00  0.00    -0.024 C 
HETATM   21  C4  UNL     1      20.708   2.231  52.581  1.00  0.00    -0.005 C 
BRANCH  21  22
HETATM   22  C3  UNL     1      20.691   0.797  52.949  1.00  0.00     0.194 C 
BRANCH  22  23
HETATM   23  O1  UNL     1      20.690   0.594  54.302  1.00  0.00    -0.388 OA
BRANCH  23  24
HETATM   24  C2  UNL     1      21.411  -0.535  54.642  1.00  0.00     0.163 C 
HETATM   25  C1  UNL     1      22.335  -0.882  53.485  1.00  0.00     0.033 C 
ENDBRANCH  23  24
ENDBRANCH  22  23
ENDBRANCH  21  22
ENDBRANCH  19  20
ENDBRANCH   1  19
TORSDOF 8
ENDMDL
MODEL 3
REMARK VINA RESULT:      -7.1      3.113      5.384
REMARK  8 active torsions:
REMARK  status: ('A' for Active; 'I' for Inactive)
REMARK    1  A    between atoms: C2_2  and  O1_3 
REMARK    2  A    between atoms: O1_3  and  C3_4 
REMARK    3  A    between atoms: C3_4  and  C4_5 
REMARK    4  A    between atoms: C5_6  and  C6_7 
REMARK    5  A    between atoms: C6_7  and  C7_8 
REMARK    6  A    between atoms: C12_15  and  N3_16 
REMARK    7  A    between atoms: N3_16  and  C13_17 
REMARK    8  A    between atoms: C13_17  and  C14_18 
ROOT
HETATM    1  C7  UNL     1      23.972  -0.085  53.036  1.00  0.00    -0.055 C 
HETATM    2  C8  UNL     1      25.089  -0.577  53.697  1.00  0.00     0.009 C 
HETATM    3  C9  UNL     1      26.259  -1.306  53.631  1.00  0.00     0.020 C 
HETATM    4  C10 UNL     1      27.477  -0.854  53.167  1.00  0.00     0.118 C 
HETATM    5  N1  UNL     1      27.750   0.233  53.946  1.00  0.00    -0.254 NA
HETATM    6  C11 UNL     1      26.923   1.305  53.888  1.00  0.00     0.234 C 
HETATM    7  N2  UNL     1      26.197   2.354  53.461  1.00  0.00    -0.225 NA
HETATM    8  C12 UNL     1      25.914   2.420  52.149  1.00  0.00     0.125 C 
HETATM    9  C18 UNL     1      24.853   1.740  51.597  1.00  0.00     0.051 C 
HETATM   10  C19 UNL     1      23.898   1.083  52.342  1.00  0.00     0.011 C 
ENDROOT
BRANCH   8  11
HETATM   11  N3  UNL     1      26.730   3.213  51.296  1.00  0.00    -0.370 N 
HETATM   12  H16 UNL     1      27.701   3.477  51.555  1.00  0.00     0.161 HD
BRANCH  11  13
HETATM   13  C13 UNL     1      26.009   3.560  50.086  1.00  0.00     0.167 C 
BRANCH  13  14
HETATM   14  C14 UNL     1      26.488   4.744  49.421  1.00  0.00     0.000 A 
HETATM   15  C15 UNL     1      27.658   4.933  48.645  1.00  0.00     0.017 A 
HETATM   16  C16 UNL     1      27.863   6.189  48.127  1.00  0.00     0.008 A 
HETATM   17  C17 UNL     1      26.959   7.176  48.373  1.00  0.00     0.050 A 
HETATM   18  S1  UNL     1      25.692   6.342  49.412  1.00  0.00    -0.105 SA
ENDBRANCH  13  14
ENDBRANCH  11  13
ENDBRANCH   8  11
BRANCH   1  19
HETATM   19  C6  UNL     1      22.755  -0.969  53.127  1.00  0.00     0.065 C 
BRANCH  19  20
HETATM   20  C5  UNL     1      21.983  -0.491  54.302  1.00  0.00    -0.024 C 
HETATM   21  C4  UNL     1      20.925   0.319  54.438  1.00  0.00    -0.005 C 
BRANCH  21  22
HETATM   22  C3  UNL     1      20.261   0.956  53.277  1.00  0.00     0.194 C 
BRANCH  22  23
HETATM   23  O1  UNL     1      19.563   0.066  52.508  1.00  0.00    -0.388 OA
BRANCH  23  24
HETATM   24  C2  UNL     1      19.328   0.570  51.244  1.00  0.00     0.163 C 
HETATM   25  C1  UNL     1      20.662   0.710  50.526  1.00  0.00     0.033 C 
ENDBRANCH  23  24
ENDBRANCH  22  23
ENDBRANCH  21  22
ENDBRANCH  19  20
ENDBRANCH   1  19
TORSDOF 8
ENDMDL
MODEL 4
REMARK VINA RESULT:      -6.8      2.607      4.044
REMARK  8 active torsions:
REMARK  status: ('A' for Active; 'I' for Inactive)
REMARK    1  A    between atoms: C2_2  and  O1_3 
REMARK    2  A    between atoms: O1_3  and  C3_4 
REMARK    3  A    between atoms: C3_4  and  C4_5 
REMARK    4  A    between atoms: C5_6  and  C6_7 
REMARK    5  A    between atoms: C6_7  and  C7_8 
REMARK    6  A    between atoms: C12_15  and  N3_16 
REMARK    7  A    between atoms: N3_16  and  C13_17 
REMARK    8  A    between atoms: C13_17  and  C14_18 
ROOT
HETATM    1  C7  UNL     1      25.958   2.237  51.234  1.00  0.00    -0.055 C 
HETATM    2  C8  UNL     1      24.789   2.510  51.930  1.00  0.00     0.009 C 
HETATM    3  C9  UNL     1      24.153   3.266  52.895  1.00  0.00     0.020 C 
HETATM    4  C10 UNL     1      23.642   4.536  52.730  1.00  0.00     0.118 C 
HETATM    5  N1  UNL     1      22.756   4.410  51.700  1.00  0.00    -0.254 NA
HETATM    6  C11 UNL     1      23.217   4.049  50.478  1.00  0.00     0.234 C 
HETATM    7  N2  UNL     1      23.889   4.002  49.314  1.00  0.00    -0.225 NA
HETATM    8  C12 UNL     1      25.043   4.687  49.236  1.00  0.00     0.125 C 
HETATM    9  C18 UNL     1      26.232   4.166  49.692  1.00  0.00     0.051 C 
HETATM   10  C19 UNL     1      26.385   2.860  50.103  1.00  0.00     0.011 C 
ENDROOT
BRANCH   8  11
HETATM   11  N3  UNL     1      25.046   5.990  48.666  1.00  0.00    -0.370 N 
HETATM   12  H16 UNL     1      24.331   6.288  47.973  1.00  0.00     0.161 HD
BRANCH  11  13
HETATM   13  C13 UNL     1      26.150   6.770  49.194  1.00  0.00     0.167 C 
BRANCH  13  14
HETATM   14  C14 UNL     1      27.126   7.166  48.212  1.00  0.00     0.000 A 
HETATM   15  C15 UNL     1      28.457   6.714  48.030  1.00  0.00     0.017 A 
HETATM   16  C16 UNL     1      29.167   7.277  46.997  1.00  0.00     0.008 A 
HETATM   17  C17 UNL     1      28.581   8.220  46.210  1.00  0.00     0.050 A 
HETATM   18  S1  UNL     1      26.893   8.378  46.924  1.00  0.00    -0.105 SA
ENDBRANCH  13  14
ENDBRANCH  11  13
ENDBRANCH   8  11
BRANCH   1  19
HETATM   19  C6  UNL     1      26.797   1.137  51.834  1.00  0.00     0.065 C 
BRANCH  19  20
HETATM   20  C5  UNL     1      25.843   0.175  52.442  1.00  0.00    -0.024 C 
HETATM   21  C4  UNL     1      25.659  -0.271  53.691  1.00  0.00    -0.005 C 
BRANCH  21  22
HETATM   22  C3  UNL     1      26.493   0.188  54.826  1.00  0.00     0.194 C 
BRANCH  22  23
HETATM   23  O1  UNL     1      27.649  -0.531  54.962  1.00  0.00    -0.388 OA
BRANCH  23  24
HETATM   24  C2  UNL     1      28.761   0.265  54.764  1.00  0.00     0.163 C 
HETATM   25  C1  UNL     1      29.667  -0.416  53.751  1.00  0.00     0.033 C 
ENDBRANCH  23  24
ENDBRANCH  22  23
ENDBRANCH  21  22
ENDBRANCH  19  20
ENDBRANCH   1  19
TORSDOF 8
ENDMDL
MODEL 5
REMARK VINA RESULT:      -6.8      1.411      1.824
REMARK  8 active torsions:
REMARK  status: ('A' for Active; 'I' for Inactive)
REMARK    1  A    between atoms: C2_2  and  O1_3 
REMARK    2  A    between atoms: O1_3  and  C3_4 
REMARK    3  A    between atoms: C3_4  and  C4_5 
REMARK    4  A    between atoms: C5_6  and  C6_7 
REMARK    5  A    between atoms: C6_7  and  C7_8 
REMARK    6  A    between atoms: C12_15  and  N3_16 
REMARK    7  A    between atoms: N3_16  and  C13_17 
REMARK    8  A    between atoms: C13_17  and  C14_18 
ROOT
HETATM    1  C7  UNL     1      24.055   0.115  52.912  1.00  0.00    -0.055 C 
HETATM    2  C8  UNL     1      22.896  -0.529  53.320  1.00  0.00     0.009 C 
HETATM    3  C9  UNL     1      21.979  -0.759  54.327  1.00  0.00     0.020 C 
HETATM    4  C10 UNL     1      20.928   0.065  54.676  1.00  0.00     0.118 C 
HETATM    5  N1  UNL     1      20.206   0.193  53.525  1.00  0.00    -0.254 NA
HETATM    6  C11 UNL     1      20.783   0.785  52.452  1.00  0.00     0.234 C 
HETATM    7  N2  UNL     1      21.397   1.659  51.634  1.00  0.00    -0.225 NA
HETATM    8  C12 UNL     1      22.091   2.659  52.204  1.00  0.00     0.125 C 
HETATM    9  C18 UNL     1      23.385   2.492  52.640  1.00  0.00     0.051 C 
HETATM   10  C19 UNL     1      24.137   1.366  52.385  1.00  0.00     0.011 C 
ENDROOT
BRANCH   8  11
HETATM   11  N3  UNL     1      21.478   3.932  52.365  1.00  0.00    -0.370 N 
HETATM   12  H16 UNL     1      21.164   4.277  53.294  1.00  0.00     0.161 HD
BRANCH  11  13
HETATM   13  C13 UNL     1      21.380   4.612  51.088  1.00  0.00     0.167 C 
BRANCH  13  14
HETATM   14  C14 UNL     1      22.278   5.727  50.932  1.00  0.00     0.000 A 
HETATM   15  C15 UNL     1      23.668   5.811  51.199  1.00  0.00     0.017 A 
HETATM   16  C16 UNL     1      24.275   7.019  50.954  1.00  0.00     0.008 A 
HETATM   17  C17 UNL     1      23.538   8.060  50.477  1.00  0.00     0.050 A 
HETATM   18  S1  UNL     1      21.846   7.354  50.339  1.00  0.00    -0.105 SA
ENDBRANCH  13  14
ENDBRANCH  11  13
ENDBRANCH   8  11
BRANCH   1  19
HETATM   19  C6  UNL     1      25.314  -0.695  53.093  1.00  0.00     0.065 C 
BRANCH  19  20
HETATM   20  C5  UNL     1      25.801  -0.399  54.465  1.00  0.00    -0.024 C 
HETATM   21  C4  UNL     1      26.768   0.394  54.945  1.00  0.00    -0.005 C 
BRANCH  21  22
HETATM   22  C3  UNL     1      27.625   1.219  54.063  1.00  0.00     0.194 C 
BRANCH  22  23
HETATM   23  O1  UNL     1      28.331   0.475  53.158  1.00  0.00    -0.388 OA
BRANCH  23  24
HETATM   24  C2  UNL     1      29.521   0.025  53.696  1.00  0.00     0.163 C 
HETATM   25  C1  UNL     1      29.610  -1.478  53.481  1.00  0.00     0.033 C 
ENDBRANCH  23  24
ENDBRANCH  22  23
ENDBRANCH  21  22
ENDBRANCH  19  20
ENDBRANCH   1  19
TORSDOF 8
ENDMDL
MODEL 6
REMARK VINA RESULT:      -6.7      3.693      7.285
REMARK  8 active torsions:
REMARK  status: ('A' for Active; 'I' for Inactive)
REMARK    1  A    between atoms: C2_2  and  O1_3 
REMARK    2  A    between atoms: O1_3  and  C3_4 
REMARK    3  A    between atoms: C3_4  and  C4_5 
REMARK    4  A    between atoms: C5_6  and  C6_7 
REMARK    5  A    between atoms: C6_7  and  C7_8 
REMARK    6  A    between atoms: C12_15  and  N3_16 
REMARK    7  A    between atoms: N3_16  and  C13_17 
REMARK    8  A    between atoms: C13_17  and  C14_18 
ROOT
HETATM    1  C7  UNL     1      23.180   2.070  50.360  1.00  0.00    -0.055 C 
HETATM    2  C8  UNL     1      23.765   3.077  49.603  1.00  0.00     0.009 C 
HETATM    3  C9  UNL     1      23.992   4.427  49.432  1.00  0.00     0.020 C 
HETATM    4  C10 UNL     1      24.949   5.182  50.079  1.00  0.00     0.118 C 
HETATM    5  N1  UNL     1      26.126   4.558  49.781  1.00  0.00    -0.254 NA
HETATM    6  C11 UNL     1      26.321   3.288  50.211  1.00  0.00     0.234 C 
HETATM    7  N2  UNL     1      26.449   2.189  50.977  1.00  0.00    -0.225 NA
HETATM    8  C12 UNL     1      25.902   2.221  52.204  1.00  0.00     0.125 C 
HETATM    9  C18 UNL     1      24.570   1.946  52.415  1.00  0.00     0.051 C 
HETATM   10  C19 UNL     1      23.729   1.455  51.441  1.00  0.00     0.011 C 
ENDROOT
BRANCH   8  11
HETATM   11  N3  UNL     1      26.714   2.547  53.324  1.00  0.00    -0.370 N 
HETATM   12  H16 UNL     1      27.192   3.466  53.407  1.00  0.00     0.161 HD
BRANCH  11  13
HETATM   13  C13 UNL     1      26.751   1.440  54.261  1.00  0.00     0.167 C 
BRANCH  13  14
HETATM   14  C14 UNL     1      27.708   0.413  53.940  1.00  0.00     0.000 A 
HETATM   15  C15 UNL     1      29.095   0.351  54.226  1.00  0.00     0.017 A 
HETATM   16  C16 UNL     1      29.768  -0.765  53.791  1.00  0.00     0.008 A 
HETATM   17  C17 UNL     1      29.096  -1.740  53.121  1.00  0.00     0.050 A 
HETATM   18  S1  UNL     1      27.372  -1.102  53.060  1.00  0.00    -0.105 SA
ENDBRANCH  13  14
ENDBRANCH  11  13
ENDBRANCH   8  11
BRANCH   1  19
HETATM   19  C6  UNL     1      21.806   1.660  49.893  1.00  0.00     0.065 C 
BRANCH  19  20
HETATM   20  C5  UNL     1      21.345   0.610  50.837  1.00  0.00    -0.024 C 
HETATM   21  C4  UNL     1      20.245   0.469  51.588  1.00  0.00    -0.005 C 
BRANCH  21  22
HETATM   22  C3  UNL     1      19.160   1.478  51.600  1.00  0.00     0.194 C 
BRANCH  22  23
HETATM   23  O1  UNL     1      19.472   2.588  52.335  1.00  0.00    -0.388 OA
BRANCH  23  24
HETATM   24  C2  UNL     1      19.299   3.744  51.599  1.00  0.00     0.163 C 
HETATM   25  C1  UNL     1      17.817   3.906  51.299  1.00  0.00     0.033 C 
ENDBRANCH  23  24
ENDBRANCH  22  23
ENDBRANCH  21  22
ENDBRANCH  19  20
ENDBRANCH   1  19
TORSDOF 8
ENDMDL
MODEL 7
REMARK VINA RESULT:      -6.6      2.694      5.427
REMARK  8 active torsions:
REMARK  status: ('A' for Active; 'I' for Inactive)
REMARK    1  A    between atoms: C2_2  and  O1_3 
REMARK    2  A    between atoms: O1_3  and  C3_4 
REMARK    3  A    between atoms: C3_4  and  C4_5 
REMARK    4  A    between atoms: C5_6  and  C6_7 
REMARK    5  A    between atoms: C6_7  and  C7_8 
REMARK    6  A    between atoms: C12_15  and  N3_16 
REMARK    7  A    between atoms: N3_16  and  C13_17 
REMARK    8  A    between atoms: C13_17  and  C14_18 
ROOT
HETATM    1  C7  UNL     1      24.962   2.548  51.859  1.00  0.00    -0.055 C 
HETATM    2  C8  UNL     1      24.783   3.358  50.746  1.00  0.00     0.009 C 
HETATM    3  C9  UNL     1      24.469   3.449  49.405  1.00  0.00     0.020 C 
HETATM    4  C10 UNL     1      23.200   3.447  48.863  1.00  0.00     0.118 C 
HETATM    5  N1  UNL     1      22.573   4.496  49.472  1.00  0.00    -0.254 NA
HETATM    6  C11 UNL     1      22.389   4.459  50.814  1.00  0.00     0.234 C 
HETATM    7  N2  UNL     1      22.024   4.100  52.058  1.00  0.00    -0.225 NA
HETATM    8  C12 UNL     1      21.707   2.810  52.262  1.00  0.00     0.125 C 
HETATM    9  C18 UNL     1      22.665   1.853  52.502  1.00  0.00     0.051 C 
HETATM   10  C19 UNL     1      23.994   2.142  52.723  1.00  0.00     0.011 C 
ENDROOT
BRANCH   8  11
HETATM   11  N3  UNL     1      20.342   2.412  52.232  1.00  0.00    -0.370 N 
HETATM   12  H16 UNL     1      19.600   2.956  52.717  1.00  0.00     0.161 HD
BRANCH  11  13
HETATM   13  C13 UNL     1      20.187   1.196  51.457  1.00  0.00     0.167 C 
BRANCH  13  14
HETATM   14  C14 UNL     1      19.195   0.283  51.965  1.00  0.00     0.000 A 
HETATM   15  C15 UNL     1      19.249  -0.570  53.095  1.00  0.00     0.017 A 
HETATM   16  C16 UNL     1      18.140  -1.342  53.344  1.00  0.00     0.008 A 
HETATM   17  C17 UNL     1      17.062  -1.259  52.517  1.00  0.00     0.050 A 
HETATM   18  S1  UNL     1      17.580  -0.015  51.266  1.00  0.00    -0.105 SA
ENDBRANCH  13  14
ENDBRANCH  11  13
ENDBRANCH   8  11
BRANCH   1  19
HETATM   19  C6  UNL     1      26.386   2.104  52.081  1.00  0.00     0.065 C 
BRANCH  19  20
HETATM   20  C5  UNL     1      26.456   0.693  51.621  1.00  0.00    -0.024 C 
HETATM   21  C4  UNL     1      26.572  -0.477  52.261  1.00  0.00    -0.005 C 
BRANCH  21  22
HETATM   22  C3  UNL     1      26.661  -0.566  53.737  1.00  0.00     0.194 C 
BRANCH  22  23
HETATM   23  O1  UNL     1      27.870  -1.036  54.170  1.00  0.00    -0.388 OA
BRANCH  23  24
HETATM   24  C2  UNL     1      28.759  -0.002  54.395  1.00  0.00     0.163 C 
HETATM   25  C1  UNL     1      29.986  -0.223  53.524  1.00  0.00     0.033 C 
ENDBRANCH  23  24
ENDBRANCH  22  23
ENDBRANCH  21  22
ENDBRANCH  19  20
ENDBRANCH   1  19
TORSDOF 8
ENDMDL
MODEL 8
REMARK VINA RESULT:      -6.6      3.330      6.950
REMARK  8 active torsions:
REMARK  status: ('A' for Active; 'I' for Inactive)
REMARK    1  A    between atoms: C2_2  and  O1_3 
REMARK    2  A    between atoms: O1_3  and  C3_4 
REMARK    3  A    between atoms: C3_4  and  C4_5 
REMARK    4  A    between atoms: C5_6  and  C6_7 
REMARK    5  A    between atoms: C6_7  and  C7_8 
REMARK    6  A    between atoms: C12_15  and  N3_16 
REMARK    7  A    between atoms: N3_16  and  C13_17 
REMARK    8  A    between atoms: C13_17  and  C14_18 
ROOT
HETATM    1  C7  UNL     1      25.739   4.376  49.848  1.00  0.00    -0.055 C 
HETATM    2  C8  UNL     1      24.368   4.519  50.007  1.00  0.00     0.009 C 
HETATM    3  C9  UNL     1      23.100   4.145  49.608  1.00  0.00     0.020 C 
HETATM    4  C10 UNL     1      22.422   3.010  50.004  1.00  0.00     0.118 C 
HETATM    5  N1  UNL     1      22.381   3.102  51.365  1.00  0.00    -0.254 NA
HETATM    6  C11 UNL     1      23.546   3.084  52.059  1.00  0.00     0.234 C 
HETATM    7  N2  UNL     1      24.741   2.733  52.566  1.00  0.00    -0.225 NA
HETATM    8  C12 UNL     1      25.454   1.813  51.893  1.00  0.00     0.125 C 
HETATM    9  C18 UNL     1      26.251   2.149  50.824  1.00  0.00     0.051 C 
HETATM   10  C19 UNL     1      26.526   3.447  50.455  1.00  0.00     0.011 C 
ENDROOT
BRANCH   8  11
HETATM   11  N3  UNL     1      25.390   0.450  52.292  1.00  0.00    -0.370 N 
HETATM   12  H16 UNL     1      24.954  -0.278  51.692  1.00  0.00     0.161 HD
BRANCH  11  13
HETATM   13  C13 UNL     1      26.002   0.275  53.596  1.00  0.00     0.167 C 
BRANCH  13  14
HETATM   14  C14 UNL     1      27.407  -0.041  53.561  1.00  0.00     0.000 A 
HETATM   15  C15 UNL     1      28.050  -1.259  53.230  1.00  0.00     0.017 A 
HETATM   16  C16 UNL     1      29.423  -1.271  53.283  1.00  0.00     0.008 A 
HETATM   17  C17 UNL     1      30.094  -0.142  53.642  1.00  0.00     0.050 A 
HETATM   18  S1  UNL     1      28.747   1.074  53.944  1.00  0.00    -0.105 SA
ENDBRANCH  13  14
ENDBRANCH  11  13
ENDBRANCH   8  11
BRANCH   1  19
HETATM   19  C6  UNL     1      26.363   5.370  48.902  1.00  0.00     0.065 C 
BRANCH  19  20
HETATM   20  C5  UNL     1      27.732   4.869  48.619  1.00  0.00    -0.024 C 
HETATM   21  C4  UNL     1      28.877   5.471  48.272  1.00  0.00    -0.005 C 
BRANCH  21  22
HETATM   22  C3  UNL     1      28.976   6.938  48.090  1.00  0.00     0.194 C 
BRANCH  22  23
HETATM   23  O1  UNL     1      29.057   7.306  46.775  1.00  0.00    -0.388 OA
BRANCH  23  24
HETATM   24  C2  UNL     1      28.421   8.512  46.551  1.00  0.00     0.163 C 
HETATM   25  C1  UNL     1      26.921   8.297  46.683  1.00  0.00     0.033 C 
ENDBRANCH  23  24
ENDBRANCH  22  23
ENDBRANCH  21  22
ENDBRANCH  19  20
ENDBRANCH   1  19
TORSDOF 8
ENDMDL
MODEL 9
REMARK VINA RESULT:      -6.5      1.877      2.303
REMARK  8 active torsions:
REMARK  status: ('A' for Active; 'I' for Inactive)
REMARK    1  A    between atoms: C2_2  and  O1_3 
REMARK    2  A    between atoms: O1_3  and  C3_4 
REMARK    3  A    between atoms: C3_4  and  C4_5 
REMARK    4  A    between atoms: C5_6  and  C6_7 
REMARK    5  A    between atoms: C6_7  and  C7_8 
REMARK    6  A    between atoms: C12_15  and  N3_16 
REMARK    7  A    between atoms: N3_16  and  C13_17 
REMARK    8  A    between atoms: C13_17  and  C14_18 
ROOT
HETATM    1  C7  UNL     1      24.305   0.804  53.219  1.00  0.00    -0.055 C 
HETATM    2  C8  UNL     1      23.041   0.466  52.756  1.00  0.00     0.009 C 
HETATM    3  C9  UNL     1      21.687   0.381  53.012  1.00  0.00     0.020 C 
HETATM    4  C10 UNL     1      20.778   1.417  52.946  1.00  0.00     0.118 C 
HETATM    5  N1  UNL     1      20.895   1.885  51.669  1.00  0.00    -0.254 NA
HETATM    6  C11 UNL     1      22.076   2.419  51.273  1.00  0.00     0.234 C 
HETATM    7  N2  UNL     1      23.181   3.179  51.175  1.00  0.00    -0.225 NA
HETATM    8  C12 UNL     1      23.560   3.865  52.267  1.00  0.00     0.125 C 
HETATM    9  C18 UNL     1      24.309   3.288  53.266  1.00  0.00     0.051 C 
HETATM   10  C19 UNL     1      24.877   2.037  53.169  1.00  0.00     0.011 C 
ENDROOT
BRANCH   8  11
HETATM   11  N3  UNL     1      23.181   5.229  52.403  1.00  0.00    -0.370 N 
HETATM   12  H16 UNL     1      22.530   5.546  53.148  1.00  0.00     0.161 HD
BRANCH  11  13
HETATM   13  C13 UNL     1      23.824   6.036  51.384  1.00  0.00     0.167 C 
BRANCH  13  14
HETATM   14  C14 UNL     1      22.952   6.972  50.722  1.00  0.00     0.000 A 
HETATM   15  C15 UNL     1      21.538   7.061  50.748  1.00  0.00     0.017 A 
HETATM   16  C16 UNL     1      20.966   8.069  50.010  1.00  0.00     0.008 A 
HETATM   17  C17 UNL     1      21.758   8.919  49.300  1.00  0.00     0.050 A 
HETATM   18  S1  UNL     1      23.457   8.309  49.654  1.00  0.00    -0.105 SA
ENDBRANCH  13  14
ENDBRANCH  11  13
ENDBRANCH   8  11
BRANCH   1  19
HETATM   19  C6  UNL     1      25.072  -0.343  53.826  1.00  0.00     0.065 C 
BRANCH  19  20
HETATM   20  C5  UNL     1      25.942  -0.877  52.747  1.00  0.00    -0.024 C 
HETATM   21  C4  UNL     1      27.252  -1.142  52.670  1.00  0.00    -0.005 C 
BRANCH  21  22
HETATM   22  C3  UNL     1      28.174  -0.916  53.808  1.00  0.00     0.194 C 
BRANCH  22  23
HETATM   23  O1  UNL     1      28.082   0.347  54.324  1.00  0.00    -0.388 OA
BRANCH  23  24
HETATM   24  C2  UNL     1      29.126   1.143  53.894  1.00  0.00     0.163 C 
HETATM   25  C1  UNL     1      28.578   2.527  53.579  1.00  0.00     0.033 C 
ENDBRANCH  23  24
ENDBRANCH  22  23
ENDBRANCH  21  22
ENDBRANCH  19  20
ENDBRANCH   1  19
TORSDOF 8
ENDMDL
