MODEL 1
REMARK VINA RESULT:      -8.4      0.000      0.000
REMARK  6 active torsions:
REMARK  status: ('A' for Active; 'I' for Inactive)
REMARK    1  A    between atoms: O1_2  and  C2_3 
REMARK    2  A    between atoms: C2_3  and  C13_17 
REMARK    3  A    between atoms: C3_4  and  C4_5 
REMARK    4  A    between atoms: C4_5  and  C5_6 
REMARK    5  A    between atoms: C6_7  and  N1_8 
REMARK    6  A    between atoms: N1_8  and  C7_9 
ROOT
HETATM    1  C2  UNL     1      26.328   2.683  51.541  1.00  0.00     0.078 C 
HETATM    2  C3  UNL     1      25.028   2.517  51.699  1.00  0.00     0.012 C 
ENDROOT
BRANCH   2   3
HETATM    3  C4  UNL     1      23.823   3.168  51.166  1.00  0.00     0.058 C 
BRANCH   3   4
HETATM    4  C5  UNL     1      23.300   2.414  50.007  1.00  0.00    -0.006 C 
HETATM    5  C6  UNL     1      22.342   1.515  50.165  1.00  0.00     0.084 C 
BRANCH   5   6
HETATM    6  N1  UNL     1      21.881   1.355  51.523  1.00  0.00    -0.366 N 
HETATM    7  H9  UNL     1      21.384   2.144  52.025  1.00  0.00     0.165 HD
BRANCH   6   8
HETATM    8  C7  UNL     1      21.847   0.383  52.587  1.00  0.00     0.033 A 
HETATM    9  C8  UNL     1      20.755  -0.322  53.034  1.00  0.00     0.032 A 
HETATM   10  C9  UNL     1      20.877  -1.220  54.061  1.00  0.00     0.046 A 
HETATM   11  C10 UNL     1      22.131  -1.375  54.611  1.00  0.00     0.138 A 
HETATM   12  F1  UNL     1      22.247  -2.273  55.635  1.00  0.00    -0.204 F 
HETATM   13  C11 UNL     1      23.257  -0.708  54.215  1.00  0.00     0.074 A 
HETATM   14 CL1  UNL     1      24.828  -0.953  54.961  1.00  0.00    -0.081 Cl
HETATM   15  C12 UNL     1      23.103   0.198  53.170  1.00  0.00     0.056 A 
ENDBRANCH   6   8
ENDBRANCH   5   6
ENDBRANCH   3   4
ENDBRANCH   2   3
BRANCH   1  16
HETATM   16  O1  UNL     1      26.319   3.714  50.670  1.00  0.00    -0.357 OA
HETATM   17  C1  UNL     1      26.816   3.680  49.340  1.00  0.00     0.209 C 
ENDBRANCH   1  16
BRANCH   1  18
HETATM   18  C13 UNL     1      27.212   1.804  52.271  1.00  0.00     0.128 A 
HETATM   19  C14 UNL     1      26.488   0.689  51.847  1.00  0.00     0.028 A 
HETATM   20  C15 UNL     1      27.498   0.079  52.645  1.00  0.00     0.024 A 
HETATM   21  C20 UNL     1      26.680  -0.800  52.100  1.00  0.00     0.023 A 
HETATM   22  C16 UNL     1      27.841  -1.256  52.993  1.00  0.00    -0.014 A 
HETATM   23  C17 UNL     1      28.996  -0.765  53.824  1.00  0.00     0.014 C 
HETATM   24  C18 UNL     1      29.644   0.527  53.493  1.00  0.00     0.027 C 
HETATM   25  C19 UNL     1      29.009   1.774  53.988  1.00  0.00     0.169 C 
HETATM   26  O2  UNL     1      28.278   2.544  52.978  1.00  0.00    -0.371 OA
ENDBRANCH   1  18
TORSDOF 6
ENDMDL
MODEL 2
REMARK VINA RESULT:      -8.3      3.001      4.045
REMARK  6 active torsions:
REMARK  status: ('A' for Active; 'I' for Inactive)
REMARK    1  A    between atoms: O1_2  and  C2_3 
REMARK    2  A    between atoms: C2_3  and  C13_17 
REMARK    3  A    between atoms: C3_4  and  C4_5 
REMARK    4  A    between atoms: C4_5  and  C5_6 
REMARK    5  A    between atoms: C6_7  and  N1_8 
REMARK    6  A    between atoms: N1_8  and  C7_9 
ROOT
HETATM    1  C2  UNL     1      25.276   0.511  53.203  1.00  0.00     0.078 C 
HETATM    2  C3  UNL     1      24.341  -0.206  53.796  1.00  0.00     0.012 C 
ENDROOT
BRANCH   2   3
HETATM    3  C4  UNL     1      22.872  -0.174  53.835  1.00  0.00     0.058 C 
BRANCH   3   4
HETATM    4  C5  UNL     1      22.348  -1.388  54.497  1.00  0.00    -0.006 C 
HETATM    5  C6  UNL     1      21.045  -1.609  54.565  1.00  0.00     0.084 C 
BRANCH   5   6
HETATM    6  N1  UNL     1      20.226  -0.591  53.952  1.00  0.00    -0.366 N 
HETATM    7  H9  UNL     1      20.186   0.389  54.352  1.00  0.00     0.165 HD
BRANCH   6   8
HETATM    8  C7  UNL     1      19.321  -0.397  52.847  1.00  0.00     0.033 A 
HETATM    9  C8  UNL     1      18.021  -0.832  52.753  1.00  0.00     0.032 A 
HETATM   10  C9  UNL     1      17.277  -0.570  51.633  1.00  0.00     0.046 A 
HETATM   11  C10 UNL     1      17.893   0.141  50.624  1.00  0.00     0.138 A 
HETATM   12  F1  UNL     1      17.146   0.400  49.509  1.00  0.00    -0.204 F 
HETATM   13  C11 UNL     1      19.179   0.602  50.654  1.00  0.00     0.074 A 
HETATM   14 CL1  UNL     1      19.904   1.503  49.331  1.00  0.00    -0.081 Cl
HETATM   15  C12 UNL     1      19.910   0.321  51.804  1.00  0.00     0.056 A 
ENDBRANCH   6   8
ENDBRANCH   5   6
ENDBRANCH   3   4
ENDBRANCH   2   3
BRANCH   1  16
HETATM   16  O1  UNL     1      24.498   1.401  52.551  1.00  0.00    -0.357 OA
HETATM   17  C1  UNL     1      24.914   2.239  51.483  1.00  0.00     0.209 C 
ENDBRANCH   1  16
BRANCH   1  18
HETATM   18  C13 UNL     1      26.654   0.140  53.429  1.00  0.00     0.128 A 
HETATM   19  C14 UNL     1      26.445  -1.095  52.812  1.00  0.00     0.028 A 
HETATM   20  C15 UNL     1      27.822  -1.188  53.165  1.00  0.00     0.024 A 
HETATM   21  C20 UNL     1      27.384  -2.258  52.529  1.00  0.00     0.023 A 
HETATM   22  C16 UNL     1      28.844  -2.161  52.991  1.00  0.00    -0.014 A 
HETATM   23  C17 UNL     1      29.834  -1.278  53.702  1.00  0.00     0.014 C 
HETATM   24  C18 UNL     1      29.649   0.194  53.691  1.00  0.00     0.027 C 
HETATM   25  C19 UNL     1      28.707   0.787  54.673  1.00  0.00     0.169 C 
HETATM   26  O2  UNL     1      27.412   1.201  54.123  1.00  0.00    -0.371 OA
ENDBRANCH   1  18
TORSDOF 6
ENDMDL
MODEL 3
REMARK VINA RESULT:      -8.2      3.965      6.004
REMARK  6 active torsions:
REMARK  status: ('A' for Active; 'I' for Inactive)
REMARK    1  A    between atoms: O1_2  and  C2_3 
REMARK    2  A    between atoms: C2_3  and  C13_17 
REMARK    3  A    between atoms: C3_4  and  C4_5 
REMARK    4  A    between atoms: C4_5  and  C5_6 
REMARK    5  A    between atoms: C6_7  and  N1_8 
REMARK    6  A    between atoms: N1_8  and  C7_9 
ROOT
HETATM    1  C2  UNL     1      25.107   0.148  53.101  1.00  0.00     0.078 C 
HETATM    2  C3  UNL     1      24.810   1.147  52.290  1.00  0.00     0.012 C 
ENDROOT
BRANCH   2   3
HETATM    3  C4  UNL     1      23.566   1.733  51.772  1.00  0.00     0.058 C 
BRANCH   3   4
HETATM    4  C5  UNL     1      23.230   2.967  52.514  1.00  0.00    -0.006 C 
HETATM    5  C6  UNL     1      23.444   4.156  51.975  1.00  0.00     0.084 C 
BRANCH   5   6
HETATM    6  N1  UNL     1      24.012   4.125  50.649  1.00  0.00    -0.366 N 
HETATM    7  H9  UNL     1      23.491   3.678  49.843  1.00  0.00     0.165 HD
BRANCH   6   8
HETATM    8  C7  UNL     1      25.190   4.536  49.925  1.00  0.00     0.033 A 
HETATM    9  C8  UNL     1      26.293   3.771  49.631  1.00  0.00     0.032 A 
HETATM   10  C9  UNL     1      27.343   4.301  48.930  1.00  0.00     0.046 A 
HETATM   11  C10 UNL     1      27.235   5.620  48.543  1.00  0.00     0.138 A 
HETATM   12  F1  UNL     1      28.286   6.144  47.843  1.00  0.00    -0.204 F 
HETATM   13  C11 UNL     1      26.170   6.435  48.801  1.00  0.00     0.074 A 
HETATM   14 CL1  UNL     1      26.096   8.111  48.279  1.00  0.00    -0.081 Cl
HETATM   15  C12 UNL     1      25.117   5.870  49.516  1.00  0.00     0.056 A 
ENDBRANCH   6   8
ENDBRANCH   5   6
ENDBRANCH   3   4
ENDBRANCH   2   3
BRANCH   1  16
HETATM   16  O1  UNL     1      23.861  -0.281  53.395  1.00  0.00    -0.357 OA
HETATM   17  C1  UNL     1      23.457  -0.871  54.621  1.00  0.00     0.209 C 
ENDBRANCH   1  16
BRANCH   1  18
HETATM   18  C13 UNL     1      26.504  -0.112  53.365  1.00  0.00     0.128 A 
HETATM   19  C14 UNL     1      26.411  -1.357  52.739  1.00  0.00     0.028 A 
HETATM   20  C15 UNL     1      27.781  -1.340  53.129  1.00  0.00     0.024 A 
HETATM   21  C20 UNL     1      27.449  -2.439  52.480  1.00  0.00     0.023 A 
HETATM   22  C16 UNL     1      28.883  -2.226  52.982  1.00  0.00    -0.014 A 
HETATM   23  C17 UNL     1      29.779  -1.269  53.722  1.00  0.00     0.014 C 
HETATM   24  C18 UNL     1      29.476   0.183  53.708  1.00  0.00     0.027 C 
HETATM   25  C19 UNL     1      28.462   0.693  54.665  1.00  0.00     0.169 C 
HETATM   26  O2  UNL     1      27.154   1.004  54.081  1.00  0.00    -0.371 OA
ENDBRANCH   1  18
TORSDOF 6
ENDMDL
MODEL 4
REMARK VINA RESULT:      -8.1      2.687      5.733
REMARK  6 active torsions:
REMARK  status: ('A' for Active; 'I' for Inactive)
REMARK    1  A    between atoms: O1_2  and  C2_3 
REMARK    2  A    between atoms: C2_3  and  C13_17 
REMARK    3  A    between atoms: C3_4  and  C4_5 
REMARK    4  A    between atoms: C4_5  and  C5_6 
REMARK    5  A    between atoms: C6_7  and  N1_8 
REMARK    6  A    between atoms: N1_8  and  C7_9 
ROOT
HETATM    1  C2  UNL     1      22.414   2.792  51.777  1.00  0.00     0.078 C 
HETATM    2  C3  UNL     1      23.678   3.168  51.804  1.00  0.00     0.012 C 
ENDROOT
BRANCH   2   3
HETATM    3  C4  UNL     1      24.462   4.233  51.161  1.00  0.00     0.058 C 
BRANCH   3   4
HETATM    4  C5  UNL     1      25.179   3.704  49.982  1.00  0.00    -0.006 C 
HETATM    5  C6  UNL     1      26.358   3.118  50.117  1.00  0.00     0.084 C 
BRANCH   5   6
HETATM    6  N1  UNL     1      26.847   3.049  51.473  1.00  0.00    -0.366 N 
HETATM    7  H9  UNL     1      26.751   3.875  52.128  1.00  0.00     0.165 HD
BRANCH   6   8
HETATM    8  C7  UNL     1      27.508   2.145  52.380  1.00  0.00     0.033 A 
HETATM    9  C8  UNL     1      28.429   2.465  53.348  1.00  0.00     0.032 A 
HETATM   10  C9  UNL     1      28.975   1.491  54.141  1.00  0.00     0.046 A 
HETATM   11  C10 UNL     1      28.557   0.196  53.920  1.00  0.00     0.138 A 
HETATM   12  F1  UNL     1      29.105  -0.772  54.715  1.00  0.00    -0.204 F 
HETATM   13  C11 UNL     1      27.647  -0.191  52.977  1.00  0.00     0.074 A 
HETATM   14 CL1  UNL     1      27.157  -1.862  52.747  1.00  0.00    -0.081 Cl
HETATM   15  C12 UNL     1      27.109   0.820  52.186  1.00  0.00     0.056 A 
ENDBRANCH   6   8
ENDBRANCH   5   6
ENDBRANCH   3   4
ENDBRANCH   2   3
BRANCH   1  16
HETATM   16  O1  UNL     1      21.923   3.712  50.920  1.00  0.00    -0.357 OA
HETATM   17  C1  UNL     1      20.755   4.493  51.123  1.00  0.00     0.209 C 
ENDBRANCH   1  16
BRANCH   1  18
HETATM   18  C13 UNL     1      22.033   1.653  52.582  1.00  0.00     0.128 A 
HETATM   19  C14 UNL     1      23.364   1.239  52.662  1.00  0.00     0.028 A 
HETATM   20  C15 UNL     1      22.709   0.228  53.423  1.00  0.00     0.024 A 
HETATM   21  C20 UNL     1      24.016   0.061  53.372  1.00  0.00     0.023 A 
HETATM   22  C16 UNL     1      23.129  -0.921  54.147  1.00  0.00    -0.014 A 
HETATM   23  C17 UNL     1      21.705  -1.229  54.525  1.00  0.00     0.014 C 
HETATM   24  C18 UNL     1      20.712  -0.131  54.609  1.00  0.00     0.027 C 
HETATM   25  C19 UNL     1      20.074   0.331  53.350  1.00  0.00     0.169 C 
HETATM   26  O2  UNL     1      20.577   1.604  52.828  1.00  0.00    -0.371 OA
ENDBRANCH   1  18
TORSDOF 6
ENDMDL
MODEL 5
REMARK VINA RESULT:      -7.8      2.498      5.355
REMARK  6 active torsions:
REMARK  status: ('A' for Active; 'I' for Inactive)
REMARK    1  A    between atoms: O1_2  and  C2_3 
REMARK    2  A    between atoms: C2_3  and  C13_17 
REMARK    3  A    between atoms: C3_4  and  C4_5 
REMARK    4  A    between atoms: C4_5  and  C5_6 
REMARK    5  A    between atoms: C6_7  and  N1_8 
REMARK    6  A    between atoms: N1_8  and  C7_9 
ROOT
HETATM    1  C2  UNL     1      25.595   3.754  50.018  1.00  0.00     0.078 C 
HETATM    2  C3  UNL     1      26.503   3.080  50.697  1.00  0.00     0.012 C 
ENDROOT
BRANCH   2   3
HETATM    3  C4  UNL     1      26.523   1.804  51.427  1.00  0.00     0.058 C 
BRANCH   3   4
HETATM    4  C5  UNL     1      27.274   1.947  52.693  1.00  0.00    -0.006 C 
HETATM    5  C6  UNL     1      27.063   1.115  53.699  1.00  0.00     0.084 C 
BRANCH   5   6
HETATM    6  N1  UNL     1      26.070   0.099  53.445  1.00  0.00    -0.366 N 
HETATM    7  H9  UNL     1      26.197  -0.604  52.664  1.00  0.00     0.165 HD
BRANCH   6   8
HETATM    8  C7  UNL     1      24.797  -0.369  53.934  1.00  0.00     0.033 A 
HETATM    9  C8  UNL     1      24.553  -1.037  55.110  1.00  0.00     0.032 A 
HETATM   10  C9  UNL     1      23.281  -1.421  55.444  1.00  0.00     0.046 A 
HETATM   11  C10 UNL     1      22.278  -1.105  54.552  1.00  0.00     0.138 A 
HETATM   12  F1  UNL     1      21.011  -1.490  54.891  1.00  0.00    -0.204 F 
HETATM   13  C11 UNL     1      22.451  -0.444  53.369  1.00  0.00     0.074 A 
HETATM   14 CL1  UNL     1      21.126  -0.074  52.276  1.00  0.00    -0.081 Cl
HETATM   15  C12 UNL     1      23.753  -0.067  53.056  1.00  0.00     0.056 A 
ENDBRANCH   6   8
ENDBRANCH   5   6
ENDBRANCH   3   4
ENDBRANCH   2   3
BRANCH   1  16
HETATM   16  O1  UNL     1      24.544   2.917  50.153  1.00  0.00    -0.357 OA
HETATM   17  C1  UNL     1      23.417   2.858  49.293  1.00  0.00     0.209 C 
ENDBRANCH   1  16
BRANCH   1  18
HETATM   18  C13 UNL     1      25.991   5.014  49.431  1.00  0.00     0.128 A 
HETATM   19  C14 UNL     1      27.229   4.479  49.069  1.00  0.00     0.028 A 
HETATM   20  C15 UNL     1      27.346   5.812  48.580  1.00  0.00     0.024 A 
HETATM   21  C20 UNL     1      28.414   5.081  48.328  1.00  0.00     0.023 A 
HETATM   22  C16 UNL     1      28.341   6.547  47.879  1.00  0.00    -0.014 A 
HETATM   23  C17 UNL     1      27.469   7.774  47.884  1.00  0.00     0.014 C 
HETATM   24  C18 UNL     1      25.994   7.629  47.948  1.00  0.00     0.027 C 
HETATM   25  C19 UNL     1      25.371   7.416  49.278  1.00  0.00     0.169 C 
HETATM   26  O2  UNL     1      24.937   6.042  49.550  1.00  0.00    -0.371 OA
ENDBRANCH   1  18
TORSDOF 6
ENDMDL
MODEL 6
REMARK VINA RESULT:      -7.7      3.928      5.288
REMARK  6 active torsions:
REMARK  status: ('A' for Active; 'I' for Inactive)
REMARK    1  A    between atoms: O1_2  and  C2_3 
REMARK    2  A    between atoms: C2_3  and  C13_17 
REMARK    3  A    between atoms: C3_4  and  C4_5 
REMARK    4  A    between atoms: C4_5  and  C5_6 
REMARK    5  A    between atoms: C6_7  and  N1_8 
REMARK    6  A    between atoms: N1_8  and  C7_9 
ROOT
HETATM    1  C2  UNL     1      26.236   2.472  51.649  1.00  0.00     0.078 C 
HETATM    2  C3  UNL     1      26.530   2.801  50.405  1.00  0.00     0.012 C 
ENDROOT
BRANCH   2   3
HETATM    3  C4  UNL     1      25.872   3.589  49.353  1.00  0.00     0.058 C 
BRANCH   3   4
HETATM    4  C5  UNL     1      26.603   4.853  49.122  1.00  0.00    -0.006 C 
HETATM    5  C6  UNL     1      26.159   5.991  49.630  1.00  0.00     0.084 C 
BRANCH   5   6
HETATM    6  N1  UNL     1      24.944   5.876  50.400  1.00  0.00    -0.366 N 
HETATM    7  H9  UNL     1      24.946   5.423  51.356  1.00  0.00     0.165 HD
BRANCH   6   8
HETATM    8  C7  UNL     1      23.539   6.195  50.328  1.00  0.00     0.033 A 
HETATM    9  C8  UNL     1      22.928   7.353  50.746  1.00  0.00     0.032 A 
HETATM   10  C9  UNL     1      21.575   7.515  50.611  1.00  0.00     0.046 A 
HETATM   11  C10 UNL     1      20.873   6.473  50.045  1.00  0.00     0.138 A 
HETATM   12  F1  UNL     1      19.522   6.640  49.913  1.00  0.00    -0.204 F 
HETATM   13  C11 UNL     1      21.416   5.297  49.609  1.00  0.00     0.074 A 
HETATM   14 CL1  UNL     1      20.462   4.007  48.895  1.00  0.00    -0.081 Cl
HETATM   15  C12 UNL     1      22.793   5.160  49.758  1.00  0.00     0.056 A 
ENDBRANCH   6   8
ENDBRANCH   5   6
ENDBRANCH   3   4
ENDBRANCH   2   3
BRANCH   1  16
HETATM   16  O1  UNL     1      25.044   3.093  51.771  1.00  0.00    -0.357 OA
HETATM   17  C1  UNL     1      24.274   3.179  52.960  1.00  0.00     0.209 C 
ENDBRANCH   1  16
BRANCH   1  18
HETATM   18  C13 UNL     1      27.184   1.653  52.370  1.00  0.00     0.128 A 
HETATM   19  C14 UNL     1      26.490   0.496  52.010  1.00  0.00     0.028 A 
HETATM   20  C15 UNL     1      27.556  -0.046  52.785  1.00  0.00     0.024 A 
HETATM   21  C20 UNL     1      26.754  -0.974  52.301  1.00  0.00     0.023 A 
HETATM   22  C16 UNL     1      27.967  -1.354  53.160  1.00  0.00    -0.014 A 
HETATM   23  C17 UNL     1      29.132  -0.790  53.928  1.00  0.00     0.014 C 
HETATM   24  C18 UNL     1      29.713   0.515  53.531  1.00  0.00     0.027 C 
HETATM   25  C19 UNL     1      29.047   1.751  54.012  1.00  0.00     0.169 C 
HETATM   26  O2  UNL     1      28.245   2.458  53.010  1.00  0.00    -0.371 OA
ENDBRANCH   1  18
TORSDOF 6
ENDMDL
MODEL 7
REMARK VINA RESULT:      -7.7      4.738      6.535
REMARK  6 active torsions:
REMARK  status: ('A' for Active; 'I' for Inactive)
REMARK    1  A    between atoms: O1_2  and  C2_3 
REMARK    2  A    between atoms: C2_3  and  C13_17 
REMARK    3  A    between atoms: C3_4  and  C4_5 
REMARK    4  A    between atoms: C4_5  and  C5_6 
REMARK    5  A    between atoms: C6_7  and  N1_8 
REMARK    6  A    between atoms: N1_8  and  C7_9 
ROOT
HETATM    1  C2  UNL     1      26.348   2.268  51.784  1.00  0.00     0.078 C 
HETATM    2  C3  UNL     1      26.752   2.910  50.704  1.00  0.00     0.012 C 
ENDROOT
BRANCH   2   3
HETATM    3  C4  UNL     1      26.132   3.849  49.758  1.00  0.00     0.058 C 
BRANCH   3   4
HETATM    4  C5  UNL     1      27.149   4.397  48.835  1.00  0.00    -0.006 C 
HETATM    5  C6  UNL     1      27.380   5.699  48.784  1.00  0.00     0.084 C 
BRANCH   5   6
HETATM    6  N1  UNL     1      26.575   6.492  49.682  1.00  0.00    -0.366 N 
HETATM    7  H9  UNL     1      26.919   6.730  50.654  1.00  0.00     0.165 HD
BRANCH   6   8
HETATM    8  C7  UNL     1      25.302   7.166  49.744  1.00  0.00     0.033 A 
HETATM    9  C8  UNL     1      24.410   7.160  50.789  1.00  0.00     0.032 A 
HETATM   10  C9  UNL     1      23.232   7.854  50.705  1.00  0.00     0.046 A 
HETATM   11  C10 UNL     1      22.995   8.545  49.535  1.00  0.00     0.138 A 
HETATM   12  F1  UNL     1      21.818   9.236  49.457  1.00  0.00    -0.204 F 
HETATM   13  C11 UNL     1      23.837   8.592  48.460  1.00  0.00     0.074 A 
HETATM   14 CL1  UNL     1      23.473   9.494  46.997  1.00  0.00    -0.081 Cl
HETATM   15  C12 UNL     1      25.027   7.878  48.575  1.00  0.00     0.056 A 
ENDBRANCH   6   8
ENDBRANCH   5   6
ENDBRANCH   3   4
ENDBRANCH   2   3
BRANCH   1  16
HETATM   16  O1  UNL     1      25.075   2.712  51.847  1.00  0.00    -0.357 OA
HETATM   17  C1  UNL     1      24.415   3.169  53.018  1.00  0.00     0.209 C 
ENDBRANCH   1  16
BRANCH   1  18
HETATM   18  C13 UNL     1      27.300   1.408  52.450  1.00  0.00     0.128 A 
HETATM   19  C14 UNL     1      26.560   0.279  52.094  1.00  0.00     0.028 A 
HETATM   20  C15 UNL     1      27.639  -0.308  52.816  1.00  0.00     0.024 A 
HETATM   21  C20 UNL     1      26.794  -1.204  52.344  1.00  0.00     0.023 A 
HETATM   22  C16 UNL     1      28.027  -1.635  53.148  1.00  0.00    -0.014 A 
HETATM   23  C17 UNL     1      29.236  -1.120  53.881  1.00  0.00     0.014 C 
HETATM   24  C18 UNL     1      29.838   0.178  53.489  1.00  0.00     0.027 C 
HETATM   25  C19 UNL     1      29.225   1.420  54.022  1.00  0.00     0.169 C 
HETATM   26  O2  UNL     1      28.406   2.170  53.065  1.00  0.00    -0.371 OA
ENDBRANCH   1  18
TORSDOF 6
ENDMDL
MODEL 8
REMARK VINA RESULT:      -7.7      3.087      5.654
REMARK  6 active torsions:
REMARK  status: ('A' for Active; 'I' for Inactive)
REMARK    1  A    between atoms: O1_2  and  C2_3 
REMARK    2  A    between atoms: C2_3  and  C13_17 
REMARK    3  A    between atoms: C3_4  and  C4_5 
REMARK    4  A    between atoms: C4_5  and  C5_6 
REMARK    5  A    between atoms: C6_7  and  N1_8 
REMARK    6  A    between atoms: N1_8  and  C7_9 
ROOT
HETATM    1  C2  UNL     1      23.811   4.865  50.904  1.00  0.00     0.078 C 
HETATM    2  C3  UNL     1      24.059   3.948  51.820  1.00  0.00     0.012 C 
ENDROOT
BRANCH   2   3
HETATM    3  C4  UNL     1      23.241   3.166  52.758  1.00  0.00     0.058 C 
BRANCH   3   4
HETATM    4  C5  UNL     1      22.841   1.881  52.146  1.00  0.00    -0.006 C 
HETATM    5  C6  UNL     1      23.633   0.824  52.219  1.00  0.00     0.084 C 
BRANCH   5   6
HETATM    6  N1  UNL     1      24.871   1.045  52.926  1.00  0.00    -0.366 N 
HETATM    7  H9  UNL     1      24.988   1.873  53.575  1.00  0.00     0.165 HD
BRANCH   6   8
HETATM    8  C7  UNL     1      26.184   0.471  53.092  1.00  0.00     0.033 A 
HETATM    9  C8  UNL     1      26.576  -0.809  52.780  1.00  0.00     0.032 A 
HETATM   10  C9  UNL     1      27.867  -1.214  52.993  1.00  0.00     0.046 A 
HETATM   11  C10 UNL     1      28.735  -0.286  53.527  1.00  0.00     0.138 A 
HETATM   12  F1  UNL     1      30.021  -0.696  53.737  1.00  0.00    -0.204 F 
HETATM   13  C11 UNL     1      28.411   1.000  53.859  1.00  0.00     0.074 A 
HETATM   14 CL1  UNL     1      29.568   2.134  54.538  1.00  0.00    -0.081 Cl
HETATM   15  C12 UNL     1      27.093   1.384  53.632  1.00  0.00     0.056 A 
ENDBRANCH   6   8
ENDBRANCH   5   6
ENDBRANCH   3   4
ENDBRANCH   2   3
BRANCH   1  16
HETATM   16  O1  UNL     1      22.469   4.947  51.024  1.00  0.00    -0.357 OA
HETATM   17  C1  UNL     1      21.718   6.148  51.110  1.00  0.00     0.209 C 
ENDBRANCH   1  16
BRANCH   1  18
HETATM   18  C13 UNL     1      24.934   5.404  50.170  1.00  0.00     0.128 A 
HETATM   19  C14 UNL     1      25.481   4.128  50.030  1.00  0.00     0.028 A 
HETATM   20  C15 UNL     1      26.449   4.924  49.352  1.00  0.00     0.024 A 
HETATM   21  C20 UNL     1      26.743   3.638  49.333  1.00  0.00     0.023 A 
HETATM   22  C16 UNL     1      27.659   4.664  48.653  1.00  0.00    -0.014 A 
HETATM   23  C17 UNL     1      27.837   6.131  48.372  1.00  0.00     0.014 C 
HETATM   24  C18 UNL     1      26.649   7.017  48.301  1.00  0.00     0.027 C 
HETATM   25  C19 UNL     1      26.081   7.526  49.574  1.00  0.00     0.169 C 
HETATM   26  O2  UNL     1      24.846   6.870  50.013  1.00  0.00    -0.371 OA
ENDBRANCH   1  18
TORSDOF 6
ENDMDL
MODEL 9
REMARK VINA RESULT:      -7.7      3.573      4.904
REMARK  6 active torsions:
REMARK  status: ('A' for Active; 'I' for Inactive)
REMARK    1  A    between atoms: O1_2  and  C2_3 
REMARK    2  A    between atoms: C2_3  and  C13_17 
REMARK    3  A    between atoms: C3_4  and  C4_5 
REMARK    4  A    between atoms: C4_5  and  C5_6 
REMARK    5  A    between atoms: C6_7  and  N1_8 
REMARK    6  A    between atoms: N1_8  and  C7_9 
ROOT
HETATM    1  C2  UNL     1      25.978   1.251  52.307  1.00  0.00     0.078 C 
HETATM    2  C3  UNL     1      24.888   1.163  53.047  1.00  0.00     0.012 C 
ENDROOT
BRANCH   2   3
HETATM    3  C4  UNL     1      23.519   1.689  52.950  1.00  0.00     0.058 C 
BRANCH   3   4
HETATM    4  C5  UNL     1      22.618   0.675  52.363  1.00  0.00    -0.006 C 
HETATM    5  C6  UNL     1      22.109   0.845  51.154  1.00  0.00     0.084 C 
BRANCH   5   6
HETATM    6  N1  UNL     1      22.508   2.066  50.496  1.00  0.00    -0.366 N 
HETATM    7  H9  UNL     1      23.086   2.794  51.004  1.00  0.00     0.165 HD
BRANCH   6   8
HETATM    8  C7  UNL     1      22.388   2.747  49.231  1.00  0.00     0.033 A 
HETATM    9  C8  UNL     1      21.798   2.272  48.085  1.00  0.00     0.032 A 
HETATM   10  C9  UNL     1      21.759   3.039  46.951  1.00  0.00     0.046 A 
HETATM   11  C10 UNL     1      22.333   4.290  47.021  1.00  0.00     0.138 A 
HETATM   12  F1  UNL     1      22.290   5.052  45.886  1.00  0.00    -0.204 F 
HETATM   13  C11 UNL     1      22.935   4.823  48.126  1.00  0.00     0.074 A 
HETATM   14 CL1  UNL     1      23.650   6.428  48.148  1.00  0.00    -0.081 Cl
HETATM   15  C12 UNL     1      22.960   4.021  49.263  1.00  0.00     0.056 A 
ENDBRANCH   6   8
ENDBRANCH   5   6
ENDBRANCH   3   4
ENDBRANCH   2   3
BRANCH   1  16
HETATM   16  O1  UNL     1      25.511   2.031  51.309  1.00  0.00    -0.357 OA
HETATM   17  C1  UNL     1      26.238   3.059  50.653  1.00  0.00     0.209 C 
ENDBRANCH   1  16
BRANCH   1  18
HETATM   18  C13 UNL     1      27.161   0.561  52.768  1.00  0.00     0.128 A 
HETATM   19  C14 UNL     1      26.616  -0.668  52.393  1.00  0.00     0.028 A 
HETATM   20  C15 UNL     1      27.877  -1.070  52.920  1.00  0.00     0.024 A 
HETATM   21  C20 UNL     1      27.167  -2.085  52.466  1.00  0.00     0.023 A 
HETATM   22  C16 UNL     1      28.560  -2.308  53.071  1.00  0.00    -0.014 A 
HETATM   23  C17 UNL     1      29.733  -1.609  53.703  1.00  0.00     0.014 C 
HETATM   24  C18 UNL     1      30.009  -0.190  53.372  1.00  0.00     0.027 C 
HETATM   25  C19 UNL     1      29.243   0.858  54.093  1.00  0.00     0.169 C 
HETATM   26  O2  UNL     1      28.170   1.489  53.320  1.00  0.00    -0.371 OA
ENDBRANCH   1  18
TORSDOF 6
ENDMDL
