MODEL 1
REMARK VINA RESULT:      -8.7      0.000      0.000
REMARK  8 active torsions:
REMARK  status: ('A' for Active; 'I' for Inactive)
REMARK    1  A    between atoms: O1_2  and  C2_3 
REMARK    2  A    between atoms: C5_6  and  N1_7 
REMARK       I    between atoms: N1_7  and  C6_8 
REMARK       I    between atoms: C6_8  and  N2_10 
REMARK    3  A    between atoms: N2_10  and  C7_11 
REMARK    4  A    between atoms: C8_12  and  C9_13 
REMARK    5  A    between atoms: C11_15  and  O3_16 
REMARK    6  A    between atoms: O3_16  and  C12_17 
REMARK    7  A    between atoms: C16_23  and  O4_24 
REMARK    8  A    between atoms: C18_26  and  O5_27 
ROOT
HETATM    1  C9  UNL     1      24.482   6.190  49.632  1.00  0.00    -0.030 A 
HETATM    2  C10 UNL     1      24.078   4.963  49.829  1.00  0.00     0.049 A 
HETATM    3  C11 UNL     1      23.855   5.186  51.259  1.00  0.00     0.079 A 
HETATM    4  C22 UNL     1      24.263   6.432  51.068  1.00  0.00     0.049 A 
ENDROOT
BRANCH   1   5
HETATM    5  C8  UNL     1      24.952   7.030  48.545  1.00  0.00     0.028 C 
HETATM    6  C7  UNL     1      26.235   7.214  48.331  1.00  0.00     0.093 C 
BRANCH   6   7
HETATM    7  N2  UNL     1      27.307   6.659  49.081  1.00  0.00    -0.319 N 
HETATM    8  C6  UNL     1      28.545   6.515  48.405  1.00  0.00     0.324 C 
HETATM    9  N1  UNL     1      29.725   5.985  48.979  1.00  0.00    -0.309 N 
HETATM   10  O2  UNL     1      28.558   6.894  47.216  1.00  0.00    -0.247 OA
HETATM   11  H6  UNL     1      29.566   5.711  49.969  1.00  0.00     0.170 HD
HETATM   12  H7  UNL     1      27.272   6.344  50.094  1.00  0.00     0.170 HD
BRANCH   9  13
HETATM   13  C5  UNL     1      31.003   5.796  48.401  1.00  0.00     0.036 A 
HETATM   14  C4  UNL     1      31.203   4.722  47.579  1.00  0.00     0.032 A 
HETATM   15  C3  UNL     1      32.418   4.472  46.983  1.00  0.00     0.039 A 
HETATM   16  C2  UNL     1      33.502   5.294  47.182  1.00  0.00     0.068 A 
HETATM   17  C24 UNL     1      33.334   6.372  47.996  1.00  0.00     0.039 A 
HETATM   18  C23 UNL     1      32.107   6.592  48.576  1.00  0.00     0.032 A 
BRANCH  16  19
HETATM   19  O1  UNL     1      34.719   5.024  46.571  1.00  0.00    -0.356 OA
HETATM   20  C1  UNL     1      34.823   4.080  45.508  1.00  0.00     0.210 C 
ENDBRANCH  16  19
ENDBRANCH   9  13
ENDBRANCH   6   7
ENDBRANCH   1   5
BRANCH   3  21
HETATM   21  O3  UNL     1      23.432   4.564  52.433  1.00  0.00    -0.291 OA
BRANCH  21  22
HETATM   22  C12 UNL     1      23.122   3.210  52.342  1.00  0.00     0.183 A 
HETATM   23  N3  UNL     1      21.969   2.751  51.844  1.00  0.00    -0.217 NA
HETATM   24  C13 UNL     1      21.648   1.455  51.746  1.00  0.00     0.236 A 
HETATM   25  N4  UNL     1      22.533   0.543  52.173  1.00  0.00    -0.241 NA
HETATM   26  C14 UNL     1      23.726   0.906  52.691  1.00  0.00     0.075 A 
HETATM   27  C15 UNL     1      24.622  -0.046  53.124  1.00  0.00     0.072 A 
HETATM   28  C21 UNL     1      24.028   2.248  52.778  1.00  0.00     0.049 A 
HETATM   29  C16 UNL     1      25.827   0.376  53.646  1.00  0.00     0.103 A 
HETATM   30  C18 UNL     1      26.172   1.710  53.753  1.00  0.00     0.102 A 
HETATM   31  C20 UNL     1      25.244   2.621  53.307  1.00  0.00     0.057 A 
BRANCH  29  32
HETATM   32  O4  UNL     1      26.707  -0.596  54.072  1.00  0.00    -0.353 OA
HETATM   33  C17 UNL     1      27.483  -1.329  53.136  1.00  0.00     0.210 C 
ENDBRANCH  29  32
BRANCH  30  34
HETATM   34  O5  UNL     1      27.413   2.007  54.295  1.00  0.00    -0.353 OA
HETATM   35  C19 UNL     1      28.554   2.363  53.575  1.00  0.00     0.210 C 
ENDBRANCH  30  34
ENDBRANCH  21  22
ENDBRANCH   3  21
TORSDOF 8
ENDMDL
MODEL 2
REMARK VINA RESULT:      -8.5      1.573      1.894
REMARK  8 active torsions:
REMARK  status: ('A' for Active; 'I' for Inactive)
REMARK    1  A    between atoms: O1_2  and  C2_3 
REMARK    2  A    between atoms: C5_6  and  N1_7 
REMARK       I    between atoms: N1_7  and  C6_8 
REMARK       I    between atoms: C6_8  and  N2_10 
REMARK    3  A    between atoms: N2_10  and  C7_11 
REMARK    4  A    between atoms: C8_12  and  C9_13 
REMARK    5  A    between atoms: C11_15  and  O3_16 
REMARK    6  A    between atoms: O3_16  and  C12_17 
REMARK    7  A    between atoms: C16_23  and  O4_24 
REMARK    8  A    between atoms: C18_26  and  O5_27 
ROOT
HETATM    1  C9  UNL     1      26.084   5.880  49.134  1.00  0.00    -0.030 A 
HETATM    2  C10 UNL     1      25.429   5.378  50.146  1.00  0.00     0.049 A 
HETATM    3  C11 UNL     1      26.133   4.096  50.062  1.00  0.00     0.079 A 
HETATM    4  C22 UNL     1      26.802   4.599  49.035  1.00  0.00     0.049 A 
ENDROOT
BRANCH   1   5
HETATM    5  C8  UNL     1      26.153   7.117  48.376  1.00  0.00     0.028 C 
HETATM    6  C7  UNL     1      27.223   7.880  48.411  1.00  0.00     0.093 C 
BRANCH   6   7
HETATM    7  N2  UNL     1      28.412   7.637  49.150  1.00  0.00    -0.319 N 
HETATM    8  C6  UNL     1      29.492   7.055  48.438  1.00  0.00     0.324 C 
HETATM    9  N1  UNL     1      30.753   6.738  48.996  1.00  0.00    -0.309 N 
HETATM   10  O2  UNL     1      29.277   6.818  47.232  1.00  0.00    -0.247 OA
HETATM   11  H6  UNL     1      30.787   6.988  50.004  1.00  0.00     0.170 HD
HETATM   12  H7  UNL     1      28.571   7.849  50.178  1.00  0.00     0.170 HD
BRANCH   9  13
HETATM   13  C5  UNL     1      31.890   6.159  48.384  1.00  0.00     0.036 A 
HETATM   14  C4  UNL     1      31.926   4.805  48.207  1.00  0.00     0.032 A 
HETATM   15  C3  UNL     1      32.998   4.170  47.621  1.00  0.00     0.039 A 
HETATM   16  C2  UNL     1      34.096   4.869  47.180  1.00  0.00     0.068 A 
HETATM   17  C24 UNL     1      34.091   6.220  47.342  1.00  0.00     0.039 A 
HETATM   18  C23 UNL     1      33.003   6.822  47.931  1.00  0.00     0.032 A 
BRANCH  16  19
HETATM   19  O1  UNL     1      35.168   4.211  46.592  1.00  0.00    -0.356 OA
HETATM   20  C1  UNL     1      35.174   3.899  45.200  1.00  0.00     0.210 C 
ENDBRANCH  16  19
ENDBRANCH   9  13
ENDBRANCH   6   7
ENDBRANCH   1   5
BRANCH   3  21
HETATM   21  O3  UNL     1      26.228   2.835  50.649  1.00  0.00    -0.291 OA
BRANCH  21  22
HETATM   22  C12 UNL     1      25.035   2.247  51.058  1.00  0.00     0.183 A 
HETATM   23  N3  UNL     1      23.856   2.491  50.475  1.00  0.00    -0.217 NA
HETATM   24  C13 UNL     1      22.697   1.939  50.850  1.00  0.00     0.236 A 
HETATM   25  N4  UNL     1      22.701   1.081  51.880  1.00  0.00    -0.241 NA
HETATM   26  C14 UNL     1      23.839   0.768  52.535  1.00  0.00     0.075 A 
HETATM   27  C15 UNL     1      23.823  -0.116  53.590  1.00  0.00     0.072 A 
HETATM   28  C21 UNL     1      25.018   1.353  52.124  1.00  0.00     0.049 A 
HETATM   29  C16 UNL     1      25.013  -0.401  54.226  1.00  0.00     0.103 A 
HETATM   30  C18 UNL     1      26.218   0.161  53.850  1.00  0.00     0.102 A 
HETATM   31  C20 UNL     1      26.182   1.037  52.791  1.00  0.00     0.057 A 
BRANCH  29  32
HETATM   32  O4  UNL     1      24.971  -1.289  55.279  1.00  0.00    -0.353 OA
HETATM   33  C17 UNL     1      23.741  -1.597  55.917  1.00  0.00     0.210 C 
ENDBRANCH  29  32
BRANCH  30  34
HETATM   34  O5  UNL     1      27.346  -0.206  54.568  1.00  0.00    -0.353 OA
HETATM   35  C19 UNL     1      28.667   0.048  54.197  1.00  0.00     0.210 C 
ENDBRANCH  30  34
ENDBRANCH  21  22
ENDBRANCH   3  21
TORSDOF 8
ENDMDL
MODEL 3
REMARK VINA RESULT:      -8.3      2.774      3.278
REMARK  8 active torsions:
REMARK  status: ('A' for Active; 'I' for Inactive)
REMARK    1  A    between atoms: O1_2  and  C2_3 
REMARK    2  A    between atoms: C5_6  and  N1_7 
REMARK       I    between atoms: N1_7  and  C6_8 
REMARK       I    between atoms: C6_8  and  N2_10 
REMARK    3  A    between atoms: N2_10  and  C7_11 
REMARK    4  A    between atoms: C8_12  and  C9_13 
REMARK    5  A    between atoms: C11_15  and  O3_16 
REMARK    6  A    between atoms: O3_16  and  C12_17 
REMARK    7  A    between atoms: C16_23  and  O4_24 
REMARK    8  A    between atoms: C18_26  and  O5_27 
ROOT
HETATM    1  C9  UNL     1      23.507   4.659  49.633  1.00  0.00    -0.030 A 
HETATM    2  C10 UNL     1      23.881   3.513  50.138  1.00  0.00     0.049 A 
HETATM    3  C11 UNL     1      23.223   3.778  51.419  1.00  0.00     0.079 A 
HETATM    4  C22 UNL     1      22.840   4.941  50.915  1.00  0.00     0.049 A 
ENDROOT
BRANCH   1   5
HETATM    5  C8  UNL     1      23.635   5.406  48.395  1.00  0.00     0.028 C 
HETATM    6  C7  UNL     1      24.568   6.318  48.241  1.00  0.00     0.093 C 
BRANCH   6   7
HETATM    7  N2  UNL     1      25.544   6.700  49.202  1.00  0.00    -0.319 N 
HETATM    8  C6  UNL     1      26.580   7.555  48.745  1.00  0.00     0.324 C 
HETATM    9  N1  UNL     1      27.640   8.043  49.546  1.00  0.00    -0.309 N 
HETATM   10  O2  UNL     1      26.521   7.880  47.542  1.00  0.00    -0.247 OA
HETATM   11  H6  UNL     1      27.561   7.691  50.521  1.00  0.00     0.170 HD
HETATM   12  H7  UNL     1      25.573   6.410  50.222  1.00  0.00     0.170 HD
BRANCH   9  13
HETATM   13  C5  UNL     1      28.717   8.892  49.198  1.00  0.00     0.036 A 
HETATM   14  C4  UNL     1      28.489  10.236  49.094  1.00  0.00     0.032 A 
HETATM   15  C3  UNL     1      29.485  11.125  48.759  1.00  0.00     0.039 A 
HETATM   16  C2  UNL     1      30.771  10.706  48.510  1.00  0.00     0.068 A 
HETATM   17  C24 UNL     1      31.029   9.373  48.605  1.00  0.00     0.039 A 
HETATM   18  C23 UNL     1      30.010   8.513  48.942  1.00  0.00     0.032 A 
BRANCH  16  19
HETATM   19  O1  UNL     1      31.762  11.617  48.173  1.00  0.00    -0.356 OA
HETATM   20  C1  UNL     1      32.650  11.379  47.083  1.00  0.00     0.210 C 
ENDBRANCH  16  19
ENDBRANCH   9  13
ENDBRANCH   6   7
ENDBRANCH   1   5
BRANCH   3  21
HETATM   21  O3  UNL     1      22.981   3.239  52.682  1.00  0.00    -0.291 OA
BRANCH  21  22
HETATM   22  C12 UNL     1      23.067   1.854  52.793  1.00  0.00     0.183 A 
HETATM   23  N3  UNL     1      22.056   1.028  52.504  1.00  0.00    -0.217 NA
HETATM   24  C13 UNL     1      22.115  -0.305  52.603  1.00  0.00     0.236 A 
HETATM   25  N4  UNL     1      23.259  -0.866  53.020  1.00  0.00    -0.241 NA
HETATM   26  C14 UNL     1      24.338  -0.118  53.336  1.00  0.00     0.075 A 
HETATM   27  C15 UNL     1      25.504  -0.712  53.761  1.00  0.00     0.072 A 
HETATM   28  C21 UNL     1      24.246   1.253  53.223  1.00  0.00     0.049 A 
HETATM   29  C16 UNL     1      26.577   0.096  54.073  1.00  0.00     0.103 A 
HETATM   30  C18 UNL     1      26.532   1.474  53.975  1.00  0.00     0.102 A 
HETATM   31  C20 UNL     1      25.345   2.019  53.545  1.00  0.00     0.057 A 
BRANCH  29  32
HETATM   32  O4  UNL     1      27.734  -0.523  54.496  1.00  0.00    -0.353 OA
HETATM   33  C17 UNL     1      28.627  -1.107  53.560  1.00  0.00     0.210 C 
ENDBRANCH  29  32
BRANCH  30  34
HETATM   34  O5  UNL     1      27.677   2.176  54.316  1.00  0.00    -0.353 OA
HETATM   35  C19 UNL     1      28.693   2.558  53.438  1.00  0.00     0.210 C 
ENDBRANCH  30  34
ENDBRANCH  21  22
ENDBRANCH   3  21
TORSDOF 8
ENDMDL
MODEL 4
REMARK VINA RESULT:      -8.2      0.947      1.275
REMARK  8 active torsions:
REMARK  status: ('A' for Active; 'I' for Inactive)
REMARK    1  A    between atoms: O1_2  and  C2_3 
REMARK    2  A    between atoms: C5_6  and  N1_7 
REMARK       I    between atoms: N1_7  and  C6_8 
REMARK       I    between atoms: C6_8  and  N2_10 
REMARK    3  A    between atoms: N2_10  and  C7_11 
REMARK    4  A    between atoms: C8_12  and  C9_13 
REMARK    5  A    between atoms: C11_15  and  O3_16 
REMARK    6  A    between atoms: O3_16  and  C12_17 
REMARK    7  A    between atoms: C16_23  and  O4_24 
REMARK    8  A    between atoms: C18_26  and  O5_27 
ROOT
HETATM    1  C9  UNL     1      24.624   6.867  49.436  1.00  0.00    -0.030 A 
HETATM    2  C10 UNL     1      24.081   5.692  49.615  1.00  0.00     0.049 A 
HETATM    3  C11 UNL     1      23.814   5.949  51.032  1.00  0.00     0.079 A 
HETATM    4  C22 UNL     1      24.362   7.142  50.858  1.00  0.00     0.049 A 
ENDROOT
BRANCH   1   5
HETATM    5  C8  UNL     1      25.234   7.643  48.371  1.00  0.00     0.028 C 
HETATM    6  C7  UNL     1      26.538   7.689  48.221  1.00  0.00     0.093 C 
BRANCH   6   7
HETATM    7  N2  UNL     1      27.507   7.030  49.027  1.00  0.00    -0.319 N 
HETATM    8  C6  UNL     1      28.721   6.670  48.389  1.00  0.00     0.324 C 
HETATM    9  N1  UNL     1      29.802   6.009  49.019  1.00  0.00    -0.309 N 
HETATM   10  O2  UNL     1      28.807   6.972  47.182  1.00  0.00    -0.247 OA
HETATM   11  H6  UNL     1      29.590   5.820  50.019  1.00  0.00     0.170 HD
HETATM   12  H7  UNL     1      27.410   6.783  50.054  1.00  0.00     0.170 HD
BRANCH   9  13
HETATM   13  C5  UNL     1      31.048   5.605  48.483  1.00  0.00     0.036 A 
HETATM   14  C4  UNL     1      32.195   6.106  49.032  1.00  0.00     0.032 A 
HETATM   15  C3  UNL     1      33.443   5.761  48.565  1.00  0.00     0.039 A 
HETATM   16  C2  UNL     1      33.604   4.887  47.516  1.00  0.00     0.068 A 
HETATM   17  C24 UNL     1      32.480   4.370  46.948  1.00  0.00     0.039 A 
HETATM   18  C23 UNL     1      31.249   4.737  47.440  1.00  0.00     0.032 A 
BRANCH  16  19
HETATM   19  O1  UNL     1      34.871   4.551  47.059  1.00  0.00    -0.356 OA
HETATM   20  C1  UNL     1      35.085   3.398  46.248  1.00  0.00     0.210 C 
ENDBRANCH  16  19
ENDBRANCH   9  13
ENDBRANCH   6   7
ENDBRANCH   1   5
BRANCH   3  21
HETATM   21  O3  UNL     1      23.269   5.385  52.185  1.00  0.00    -0.291 OA
BRANCH  21  22
HETATM   22  C12 UNL     1      22.723   4.111  52.056  1.00  0.00     0.183 A 
HETATM   23  N3  UNL     1      21.529   3.876  51.501  1.00  0.00    -0.217 NA
HETATM   24  C13 UNL     1      20.983   2.661  51.366  1.00  0.00     0.236 A 
HETATM   25  N4  UNL     1      21.668   1.598  51.813  1.00  0.00    -0.241 NA
HETATM   26  C14 UNL     1      22.882   1.732  52.388  1.00  0.00     0.075 A 
HETATM   27  C15 UNL     1      23.569   0.629  52.841  1.00  0.00     0.072 A 
HETATM   28  C21 UNL     1      23.418   2.996  52.513  1.00  0.00     0.049 A 
HETATM   29  C16 UNL     1      24.806   0.818  53.422  1.00  0.00     0.103 A 
HETATM   30  C18 UNL     1      25.383   2.065  53.568  1.00  0.00     0.102 A 
HETATM   31  C20 UNL     1      24.657   3.135  53.100  1.00  0.00     0.057 A 
BRANCH  29  32
HETATM   32  O4  UNL     1      25.475  -0.302  53.867  1.00  0.00    -0.353 OA
HETATM   33  C17 UNL     1      24.983  -1.047  54.971  1.00  0.00     0.210 C 
ENDBRANCH  29  32
BRANCH  30  34
HETATM   34  O5  UNL     1      26.631   2.125  54.168  1.00  0.00    -0.353 OA
HETATM   35  C19 UNL     1      27.852   2.244  53.502  1.00  0.00     0.210 C 
ENDBRANCH  30  34
ENDBRANCH  21  22
ENDBRANCH   3  21
TORSDOF 8
ENDMDL
MODEL 5
REMARK VINA RESULT:      -8.2      1.960      8.627
REMARK  8 active torsions:
REMARK  status: ('A' for Active; 'I' for Inactive)
REMARK    1  A    between atoms: O1_2  and  C2_3 
REMARK    2  A    between atoms: C5_6  and  N1_7 
REMARK       I    between atoms: N1_7  and  C6_8 
REMARK       I    between atoms: C6_8  and  N2_10 
REMARK    3  A    between atoms: N2_10  and  C7_11 
REMARK    4  A    between atoms: C8_12  and  C9_13 
REMARK    5  A    between atoms: C11_15  and  O3_16 
REMARK    6  A    between atoms: O3_16  and  C12_17 
REMARK    7  A    between atoms: C16_23  and  O4_24 
REMARK    8  A    between atoms: C18_26  and  O5_27 
ROOT
HETATM    1  C9  UNL     1      24.215   5.953  50.066  1.00  0.00    -0.030 A 
HETATM    2  C10 UNL     1      25.291   6.682  50.198  1.00  0.00     0.049 A 
HETATM    3  C11 UNL     1      25.947   6.055  49.049  1.00  0.00     0.079 A 
HETATM    4  C22 UNL     1      24.860   5.312  48.908  1.00  0.00     0.049 A 
ENDROOT
BRANCH   1   5
HETATM    5  C8  UNL     1      22.924   5.775  50.707  1.00  0.00     0.028 C 
HETATM    6  C7  UNL     1      22.827   5.260  51.912  1.00  0.00     0.093 C 
BRANCH   6   7
HETATM    7  N2  UNL     1      23.899   4.819  52.734  1.00  0.00    -0.319 N 
HETATM    8  C6  UNL     1      24.284   3.461  52.598  1.00  0.00     0.324 C 
HETATM    9  N1  UNL     1      25.324   2.836  53.325  1.00  0.00    -0.309 N 
HETATM   10  O2  UNL     1      23.633   2.797  51.766  1.00  0.00    -0.247 OA
HETATM   11  H6  UNL     1      25.775   3.507  53.979  1.00  0.00     0.170 HD
HETATM   12  H7  UNL     1      24.439   5.405  53.436  1.00  0.00     0.170 HD
BRANCH   9  13
HETATM   13  C5  UNL     1      25.788   1.500  53.271  1.00  0.00     0.036 A 
HETATM   14  C4  UNL     1      27.085   1.267  52.909  1.00  0.00     0.032 A 
HETATM   15  C3  UNL     1      27.608  -0.004  52.832  1.00  0.00     0.039 A 
HETATM   16  C2  UNL     1      26.849  -1.114  53.118  1.00  0.00     0.068 A 
HETATM   17  C24 UNL     1      25.552  -0.914  53.481  1.00  0.00     0.039 A 
HETATM   18  C23 UNL     1      25.063   0.369  53.548  1.00  0.00     0.032 A 
BRANCH  16  19
HETATM   19  O1  UNL     1      27.394  -2.388  53.034  1.00  0.00    -0.356 OA
HETATM   20  C1  UNL     1      28.805  -2.593  53.043  1.00  0.00     0.210 C 
ENDBRANCH  16  19
ENDBRANCH   9  13
ENDBRANCH   6   7
ENDBRANCH   1   5
BRANCH   3  21
HETATM   21  O3  UNL     1      27.118   6.062  48.291  1.00  0.00    -0.291 OA
BRANCH  21  22
HETATM   22  C12 UNL     1      27.977   7.141  48.484  1.00  0.00     0.183 A 
HETATM   23  N3  UNL     1      27.551   8.393  48.687  1.00  0.00    -0.217 NA
HETATM   24  C13 UNL     1      28.357   9.445  48.874  1.00  0.00     0.236 A 
HETATM   25  N4  UNL     1      29.683   9.247  48.860  1.00  0.00    -0.241 NA
HETATM   26  C14 UNL     1      30.211   8.020  48.664  1.00  0.00     0.075 A 
HETATM   27  C15 UNL     1      31.575   7.836  48.653  1.00  0.00     0.072 A 
HETATM   28  C21 UNL     1      29.356   6.955  48.474  1.00  0.00     0.049 A 
HETATM   29  C16 UNL     1      32.065   6.563  48.447  1.00  0.00     0.103 A 
HETATM   30  C18 UNL     1      31.246   5.467  48.252  1.00  0.00     0.102 A 
HETATM   31  C20 UNL     1      29.891   5.702  48.272  1.00  0.00     0.057 A 
BRANCH  29  32
HETATM   32  O4  UNL     1      33.434   6.405  48.441  1.00  0.00    -0.353 OA
HETATM   33  C17 UNL     1      34.179   6.595  47.248  1.00  0.00     0.210 C 
ENDBRANCH  29  32
BRANCH  30  34
HETATM   34  O5  UNL     1      31.859   4.239  48.056  1.00  0.00    -0.353 OA
HETATM   35  C19 UNL     1      31.918   3.540  46.850  1.00  0.00     0.210 C 
ENDBRANCH  30  34
ENDBRANCH  21  22
ENDBRANCH   3  21
TORSDOF 8
ENDMDL
MODEL 6
REMARK VINA RESULT:      -8.2      3.332      4.334
REMARK  8 active torsions:
REMARK  status: ('A' for Active; 'I' for Inactive)
REMARK    1  A    between atoms: O1_2  and  C2_3 
REMARK    2  A    between atoms: C5_6  and  N1_7 
REMARK       I    between atoms: N1_7  and  C6_8 
REMARK       I    between atoms: C6_8  and  N2_10 
REMARK    3  A    between atoms: N2_10  and  C7_11 
REMARK    4  A    between atoms: C8_12  and  C9_13 
REMARK    5  A    between atoms: C11_15  and  O3_16 
REMARK    6  A    between atoms: O3_16  and  C12_17 
REMARK    7  A    between atoms: C16_23  and  O4_24 
REMARK    8  A    between atoms: C18_26  and  O5_27 
ROOT
HETATM    1  C9  UNL     1      25.056   5.959  50.142  1.00  0.00    -0.030 A 
HETATM    2  C10 UNL     1      24.927   4.998  51.018  1.00  0.00     0.049 A 
HETATM    3  C11 UNL     1      25.838   4.111  50.291  1.00  0.00     0.079 A 
HETATM    4  C22 UNL     1      25.975   5.080  49.399  1.00  0.00     0.049 A 
ENDROOT
BRANCH   1   5
HETATM    5  C8  UNL     1      24.568   7.307  49.911  1.00  0.00     0.028 C 
HETATM    6  C7  UNL     1      25.346   8.352  50.080  1.00  0.00     0.093 C 
BRANCH   6   7
HETATM    7  N2  UNL     1      26.706   8.338  50.491  1.00  0.00    -0.319 N 
HETATM    8  C6  UNL     1      27.625   9.033  49.665  1.00  0.00     0.324 C 
HETATM    9  N1  UNL     1      29.016   9.133  49.904  1.00  0.00    -0.309 N 
HETATM   10  O2  UNL     1      27.135   9.585  48.659  1.00  0.00    -0.247 OA
HETATM   11  H6  UNL     1      29.281   8.627  50.773  1.00  0.00     0.170 HD
HETATM   12  H7  UNL     1      27.100   7.860  51.353  1.00  0.00     0.170 HD
BRANCH   9  13
HETATM   13  C5  UNL     1      30.016   9.795  49.153  1.00  0.00     0.036 A 
HETATM   14  C4  UNL     1      30.855   9.050  48.372  1.00  0.00     0.032 A 
HETATM   15  C3  UNL     1      31.852   9.621  47.615  1.00  0.00     0.039 A 
HETATM   16  C2  UNL     1      32.058  10.980  47.601  1.00  0.00     0.068 A 
HETATM   17  C24 UNL     1      31.238  11.750  48.368  1.00  0.00     0.039 A 
HETATM   18  C23 UNL     1      30.252  11.146  49.113  1.00  0.00     0.032 A 
BRANCH  16  19
HETATM   19  O1  UNL     1      33.069  11.537  46.830  1.00  0.00    -0.356 OA
HETATM   20  C1  UNL     1      32.997  11.547  45.406  1.00  0.00     0.210 C 
ENDBRANCH  16  19
ENDBRANCH   9  13
ENDBRANCH   6   7
ENDBRANCH   1   5
BRANCH   3  21
HETATM   21  O3  UNL     1      26.423   2.846  50.320  1.00  0.00    -0.291 OA
BRANCH  21  22
HETATM   22  C12 UNL     1      26.701   2.318  51.578  1.00  0.00     0.183 A 
HETATM   23  N3  UNL     1      27.865   2.499  52.210  1.00  0.00    -0.217 NA
HETATM   24  C13 UNL     1      28.155   2.002  53.419  1.00  0.00     0.236 A 
HETATM   25  N4  UNL     1      27.226   1.270  54.050  1.00  0.00    -0.241 NA
HETATM   26  C14 UNL     1      26.019   1.031  53.495  1.00  0.00     0.075 A 
HETATM   27  C15 UNL     1      25.078   0.277  54.159  1.00  0.00     0.072 A 
HETATM   28  C21 UNL     1      25.749   1.557  52.249  1.00  0.00     0.049 A 
HETATM   29  C16 UNL     1      23.860   0.061  53.548  1.00  0.00     0.103 A 
HETATM   30  C18 UNL     1      23.545   0.567  52.302  1.00  0.00     0.102 A 
HETATM   31  C20 UNL     1      24.519   1.314  51.680  1.00  0.00     0.057 A 
BRANCH  29  32
HETATM   32  O4  UNL     1      22.934  -0.696  54.233  1.00  0.00    -0.353 OA
HETATM   33  C17 UNL     1      23.284  -1.341  55.449  1.00  0.00     0.210 C 
ENDBRANCH  29  32
BRANCH  30  34
HETATM   34  O5  UNL     1      22.287   0.281  51.795  1.00  0.00    -0.353 OA
HETATM   35  C19 UNL     1      21.228   1.182  51.684  1.00  0.00     0.210 C 
ENDBRANCH  30  34
ENDBRANCH  21  22
ENDBRANCH   3  21
TORSDOF 8
ENDMDL
MODEL 7
REMARK VINA RESULT:      -8.1      1.909      2.973
REMARK  8 active torsions:
REMARK  status: ('A' for Active; 'I' for Inactive)
REMARK    1  A    between atoms: O1_2  and  C2_3 
REMARK    2  A    between atoms: C5_6  and  N1_7 
REMARK       I    between atoms: N1_7  and  C6_8 
REMARK       I    between atoms: C6_8  and  N2_10 
REMARK    3  A    between atoms: N2_10  and  C7_11 
REMARK    4  A    between atoms: C8_12  and  C9_13 
REMARK    5  A    between atoms: C11_15  and  O3_16 
REMARK    6  A    between atoms: O3_16  and  C12_17 
REMARK    7  A    between atoms: C16_23  and  O4_24 
REMARK    8  A    between atoms: C18_26  and  O5_27 
ROOT
HETATM    1  C9  UNL     1      24.900   6.601  49.065  1.00  0.00    -0.030 A 
HETATM    2  C10 UNL     1      24.551   5.388  48.731  1.00  0.00     0.049 A 
HETATM    3  C11 UNL     1      24.122   5.056  50.091  1.00  0.00     0.079 A 
HETATM    4  C22 UNL     1      24.473   6.285  50.438  1.00  0.00     0.049 A 
ENDROOT
BRANCH   1   5
HETATM    5  C8  UNL     1      25.460   7.791  48.449  1.00  0.00     0.028 C 
HETATM    6  C7  UNL     1      26.740   8.072  48.547  1.00  0.00     0.093 C 
BRANCH   6   7
HETATM    7  N2  UNL     1      27.725   7.307  49.230  1.00  0.00    -0.319 N 
HETATM    8  C6  UNL     1      28.867   6.931  48.478  1.00  0.00     0.324 C 
HETATM    9  N1  UNL     1      29.952   6.172  48.977  1.00  0.00    -0.309 N 
HETATM   10  O2  UNL     1      28.882   7.315  47.291  1.00  0.00    -0.247 OA
HETATM   11  H6  UNL     1      29.803   5.922  49.975  1.00  0.00     0.170 HD
HETATM   12  H7  UNL     1      27.690   6.993  50.242  1.00  0.00     0.170 HD
BRANCH   9  13
HETATM   13  C5  UNL     1      31.130   5.743  48.321  1.00  0.00     0.036 A 
HETATM   14  C4  UNL     1      32.292   6.428  48.540  1.00  0.00     0.032 A 
HETATM   15  C3  UNL     1      33.478   6.073  47.938  1.00  0.00     0.039 A 
HETATM   16  C2  UNL     1      33.558   5.001  47.080  1.00  0.00     0.068 A 
HETATM   17  C24 UNL     1      32.416   4.298  46.842  1.00  0.00     0.039 A 
HETATM   18  C23 UNL     1      31.249   4.682  47.460  1.00  0.00     0.032 A 
BRANCH  16  19
HETATM   19  O1  UNL     1      34.762   4.658  46.482  1.00  0.00    -0.356 OA
HETATM   20  C1  UNL     1      35.063   3.306  46.143  1.00  0.00     0.210 C 
ENDBRANCH  16  19
ENDBRANCH   9  13
ENDBRANCH   6   7
ENDBRANCH   1   5
BRANCH   3  21
HETATM   21  O3  UNL     1      23.583   4.036  50.874  1.00  0.00    -0.291 OA
BRANCH  21  22
HETATM   22  C12 UNL     1      24.465   3.046  51.298  1.00  0.00     0.183 A 
HETATM   23  N3  UNL     1      25.771   3.050  51.008  1.00  0.00    -0.217 NA
HETATM   24  C13 UNL     1      26.637   2.110  51.404  1.00  0.00     0.236 A 
HETATM   25  N4  UNL     1      26.181   1.089  52.143  1.00  0.00    -0.241 NA
HETATM   26  C14 UNL     1      24.880   0.995  52.490  1.00  0.00     0.075 A 
HETATM   27  C15 UNL     1      24.430  -0.060  53.250  1.00  0.00     0.072 A 
HETATM   28  C21 UNL     1      24.011   1.979  52.067  1.00  0.00     0.049 A 
HETATM   29  C16 UNL     1      23.091  -0.111  53.577  1.00  0.00     0.103 A 
HETATM   30  C18 UNL     1      22.183   0.851  53.176  1.00  0.00     0.102 A 
HETATM   31  C20 UNL     1      22.682   1.885  52.419  1.00  0.00     0.057 A 
BRANCH  29  32
HETATM   32  O4  UNL     1      22.665  -1.178  54.339  1.00  0.00    -0.353 OA
HETATM   33  C17 UNL     1      23.301  -1.488  55.569  1.00  0.00     0.210 C 
ENDBRANCH  29  32
BRANCH  30  34
HETATM   34  O5  UNL     1      20.864   0.689  53.569  1.00  0.00    -0.353 OA
HETATM   35  C19 UNL     1      19.795   0.376  52.728  1.00  0.00     0.210 C 
ENDBRANCH  30  34
ENDBRANCH  21  22
ENDBRANCH   3  21
TORSDOF 8
ENDMDL
MODEL 8
REMARK VINA RESULT:      -8.0      2.685     10.659
REMARK  8 active torsions:
REMARK  status: ('A' for Active; 'I' for Inactive)
REMARK    1  A    between atoms: O1_2  and  C2_3 
REMARK    2  A    between atoms: C5_6  and  N1_7 
REMARK       I    between atoms: N1_7  and  C6_8 
REMARK       I    between atoms: C6_8  and  N2_10 
REMARK    3  A    between atoms: N2_10  and  C7_11 
REMARK    4  A    between atoms: C8_12  and  C9_13 
REMARK    5  A    between atoms: C11_15  and  O3_16 
REMARK    6  A    between atoms: O3_16  and  C12_17 
REMARK    7  A    between atoms: C16_23  and  O4_24 
REMARK    8  A    between atoms: C18_26  and  O5_27 
ROOT
HETATM    1  C9  UNL     1      27.731   6.288  48.300  1.00  0.00    -0.030 A 
HETATM    2  C10 UNL     1      28.640   5.349  48.293  1.00  0.00     0.049 A 
HETATM    3  C11 UNL     1      29.742   6.313  48.311  1.00  0.00     0.079 A 
HETATM    4  C22 UNL     1      28.827   7.270  48.319  1.00  0.00     0.049 A 
ENDROOT
BRANCH   1   5
HETATM    5  C8  UNL     1      26.284   6.414  48.294  1.00  0.00     0.028 C 
HETATM    6  C7  UNL     1      25.547   5.852  49.226  1.00  0.00     0.093 C 
BRANCH   6   7
HETATM    7  N2  UNL     1      26.013   5.077  50.323  1.00  0.00    -0.319 N 
HETATM    8  C6  UNL     1      25.167   4.027  50.761  1.00  0.00     0.324 C 
HETATM    9  N1  UNL     1      25.453   3.149  51.832  1.00  0.00    -0.309 N 
HETATM   10  O2  UNL     1      24.097   3.898  50.132  1.00  0.00    -0.247 OA
HETATM   11  H6  UNL     1      26.373   3.375  52.262  1.00  0.00     0.170 HD
HETATM   12  H7  UNL     1      26.929   5.207  50.842  1.00  0.00     0.170 HD
BRANCH   9  13
HETATM   13  C5  UNL     1      24.688   2.078  52.351  1.00  0.00     0.036 A 
HETATM   14  C4  UNL     1      25.302   0.877  52.575  1.00  0.00     0.032 A 
HETATM   15  C3  UNL     1      24.624  -0.211  53.075  1.00  0.00     0.039 A 
HETATM   16  C2  UNL     1      23.285  -0.148  53.380  1.00  0.00     0.068 A 
HETATM   17  C24 UNL     1      22.645   1.035  53.168  1.00  0.00     0.039 A 
HETATM   18  C23 UNL     1      23.353   2.102  52.667  1.00  0.00     0.032 A 
BRANCH  16  19
HETATM   19  O1  UNL     1      22.618  -1.256  53.885  1.00  0.00    -0.356 OA
HETATM   20  C1  UNL     1      21.252  -1.181  54.287  1.00  0.00     0.210 C 
ENDBRANCH  16  19
ENDBRANCH   9  13
ENDBRANCH   6   7
ENDBRANCH   1   5
BRANCH   3  21
HETATM   21  O3  UNL     1      31.132   6.419  48.319  1.00  0.00    -0.291 OA
BRANCH  21  22
HETATM   22  C12 UNL     1      31.837   5.412  47.664  1.00  0.00     0.183 A 
HETATM   23  N3  UNL     1      32.160   4.248  48.238  1.00  0.00    -0.217 NA
HETATM   24  C13 UNL     1      32.836   3.266  47.629  1.00  0.00     0.236 A 
HETATM   25  N4  UNL     1      33.222   3.447  46.358  1.00  0.00    -0.241 NA
HETATM   26  C14 UNL     1      32.943   4.588  45.692  1.00  0.00     0.075 A 
HETATM   27  C15 UNL     1      33.347   4.755  44.387  1.00  0.00     0.072 A 
HETATM   28  C21 UNL     1      32.245   5.581  46.345  1.00  0.00     0.049 A 
HETATM   29  C16 UNL     1      33.039   5.939  43.750  1.00  0.00     0.103 A 
HETATM   30  C18 UNL     1      32.341   6.962  44.364  1.00  0.00     0.102 A 
HETATM   31  C20 UNL     1      31.959   6.746  45.667  1.00  0.00     0.057 A 
BRANCH  29  32
HETATM   32  O4  UNL     1      33.454   6.082  42.443  1.00  0.00    -0.353 OA
HETATM   33  C17 UNL     1      34.803   5.828  42.081  1.00  0.00     0.210 C 
ENDBRANCH  29  32
BRANCH  30  34
HETATM   34  O5  UNL     1      32.092   8.103  43.618  1.00  0.00    -0.353 OA
HETATM   35  C19 UNL     1      32.608   9.374  43.874  1.00  0.00     0.210 C 
ENDBRANCH  30  34
ENDBRANCH  21  22
ENDBRANCH   3  21
TORSDOF 8
ENDMDL
MODEL 9
REMARK VINA RESULT:      -8.0      2.131      8.580
REMARK  8 active torsions:
REMARK  status: ('A' for Active; 'I' for Inactive)
REMARK    1  A    between atoms: O1_2  and  C2_3 
REMARK    2  A    between atoms: C5_6  and  N1_7 
REMARK       I    between atoms: N1_7  and  C6_8 
REMARK       I    between atoms: C6_8  and  N2_10 
REMARK    3  A    between atoms: N2_10  and  C7_11 
REMARK    4  A    between atoms: C8_12  and  C9_13 
REMARK    5  A    between atoms: C11_15  and  O3_16 
REMARK    6  A    between atoms: O3_16  and  C12_17 
REMARK    7  A    between atoms: C16_23  and  O4_24 
REMARK    8  A    between atoms: C18_26  and  O5_27 
ROOT
HETATM    1  C9  UNL     1      23.312   6.809  50.670  1.00  0.00    -0.030 A 
HETATM    2  C10 UNL     1      24.551   6.989  51.045  1.00  0.00     0.049 A 
HETATM    3  C11 UNL     1      24.968   7.431  49.712  1.00  0.00     0.079 A 
HETATM    4  C22 UNL     1      23.715   7.252  49.325  1.00  0.00     0.049 A 
ENDROOT
BRANCH   1   5
HETATM    5  C8  UNL     1      22.046   6.378  51.236  1.00  0.00     0.028 C 
HETATM    6  C7  UNL     1      21.671   5.119  51.186  1.00  0.00     0.093 C 
BRANCH   6   7
HETATM    7  N2  UNL     1      22.395   4.042  50.606  1.00  0.00    -0.319 N 
HETATM    8  C6  UNL     1      23.240   3.307  51.476  1.00  0.00     0.324 C 
HETATM    9  N1  UNL     1      24.039   2.205  51.090  1.00  0.00    -0.309 N 
HETATM   10  O2  UNL     1      23.256   3.690  52.663  1.00  0.00    -0.247 OA
HETATM   11  H6  UNL     1      23.926   2.001  50.077  1.00  0.00     0.170 HD
HETATM   12  H7  UNL     1      22.364   3.735  49.591  1.00  0.00     0.170 HD
BRANCH   9  13
HETATM   13  C5  UNL     1      24.911   1.407  51.867  1.00  0.00     0.036 A 
HETATM   14  C4  UNL     1      26.259   1.598  51.749  1.00  0.00     0.032 A 
HETATM   15  C3  UNL     1      27.171   0.860  52.470  1.00  0.00     0.039 A 
HETATM   16  C2  UNL     1      26.771  -0.115  53.354  1.00  0.00     0.068 A 
HETATM   17  C24 UNL     1      25.434  -0.329  53.493  1.00  0.00     0.039 A 
HETATM   18  C23 UNL     1      24.551   0.427  52.757  1.00  0.00     0.032 A 
BRANCH  16  19
HETATM   19  O1  UNL     1      27.705  -0.849  54.072  1.00  0.00    -0.356 OA
HETATM   20  C1  UNL     1      29.074  -0.896  53.677  1.00  0.00     0.210 C 
ENDBRANCH  16  19
ENDBRANCH   9  13
ENDBRANCH   6   7
ENDBRANCH   1   5
BRANCH   3  21
HETATM   21  O3  UNL     1      26.068   7.870  48.976  1.00  0.00    -0.291 OA
BRANCH  21  22
HETATM   22  C12 UNL     1      27.074   6.936  48.743  1.00  0.00     0.183 A 
HETATM   23  N3  UNL     1      26.881   5.615  48.813  1.00  0.00    -0.217 NA
HETATM   24  C13 UNL     1      27.832   4.698  48.595  1.00  0.00     0.236 A 
HETATM   25  N4  UNL     1      29.067   5.119  48.283  1.00  0.00    -0.241 NA
HETATM   26  C14 UNL     1      29.362   6.432  48.187  1.00  0.00     0.075 A 
HETATM   27  C15 UNL     1      30.635   6.845  47.865  1.00  0.00     0.072 A 
HETATM   28  C21 UNL     1      28.361   7.353  48.417  1.00  0.00     0.049 A 
HETATM   29  C16 UNL     1      30.886   8.198  47.780  1.00  0.00     0.103 A 
HETATM   30  C18 UNL     1      29.915   9.156  48.003  1.00  0.00     0.102 A 
HETATM   31  C20 UNL     1      28.659   8.694  48.321  1.00  0.00     0.057 A 
BRANCH  29  32
HETATM   32  O4  UNL     1      32.168   8.586  47.456  1.00  0.00    -0.353 OA
HETATM   33  C17 UNL     1      33.272   8.164  48.243  1.00  0.00     0.210 C 
ENDBRANCH  29  32
BRANCH  30  34
HETATM   34  O5  UNL     1      30.290  10.486  47.887  1.00  0.00    -0.353 OA
HETATM   35  C19 UNL     1      30.125  11.468  48.864  1.00  0.00     0.210 C 
ENDBRANCH  30  34
ENDBRANCH  21  22
ENDBRANCH   3  21
TORSDOF 8
ENDMDL
