MODEL 1
REMARK VINA RESULT:      -9.7      0.000      0.000
REMARK  4 active torsions:
REMARK  status: ('A' for Active; 'I' for Inactive)
REMARK       I    between atoms: C1_2  and  N1_3 
REMARK    1  A    between atoms: C1_2  and  C15_18 
REMARK    2  A    between atoms: N1_3  and  C2_4 
REMARK    3  A    between atoms: C6_8  and  C7_9 
REMARK    4  A    between atoms: C7_9  and  C8_11 
ROOT
HETATM    1  C2  UNL     1      24.035   2.572  52.453  1.00  0.00     0.035 A 
HETATM    2  C3  UNL     1      22.724   2.184  52.234  1.00  0.00     0.029 A 
HETATM    3  C4  UNL     1      22.386   0.902  52.684  1.00  0.00     0.003 A 
HETATM    4  C5  UNL     1      23.320   0.097  53.302  1.00  0.00     0.015 A 
HETATM    5  C6  UNL     1      24.610   0.505  53.506  1.00  0.00     0.017 A 
HETATM    6  C14 UNL     1      24.949   1.750  53.073  1.00  0.00     0.045 A 
ENDROOT
BRANCH   1   7
HETATM    7  N1  UNL     1      24.554   3.859  52.046  1.00  0.00    -0.322 N 
HETATM    8  C1  UNL     1      25.297   3.605  50.874  1.00  0.00     0.272 C 
HETATM    9  O1  UNL     1      25.338   2.418  50.477  1.00  0.00    -0.266 OA
HETATM   10  H1  UNL     1      24.521   4.863  52.378  1.00  0.00     0.169 HD
BRANCH   8  11
HETATM   11  C15 UNL     1      26.030   4.632  50.079  1.00  0.00     0.098 C 
HETATM   12  C16 UNL     1      26.963   4.187  49.208  1.00  0.00     0.044 C 
HETATM   13  C17 UNL     1      27.549   5.388  48.551  1.00  0.00    -0.030 A 
HETATM   14  C18 UNL     1      28.384   6.211  47.958  1.00  0.00     0.009 A 
HETATM   15  C21 UNL     1      26.245   6.170  48.645  1.00  0.00     0.138 A 
HETATM   16  C19 UNL     1      27.861   7.530  47.624  1.00  0.00    -0.001 A 
HETATM   17  C20 UNL     1      26.620   7.452  48.052  1.00  0.00     0.003 A 
HETATM   18  N2  UNL     1      25.950   6.085  50.024  1.00  0.00    -0.373 N 
HETATM   19  H16 UNL     1      25.724   6.557  50.924  1.00  0.00     0.161 HD
ENDBRANCH   8  11
ENDBRANCH   1   7
BRANCH   5  20
HETATM   20  C7  UNL     1      25.536  -0.413  54.146  1.00  0.00     0.192 C 
HETATM   21  O2  UNL     1      24.957  -1.151  55.017  1.00  0.00    -0.287 OA
BRANCH  20  22
HETATM   22  C8  UNL     1      26.966  -0.589  53.937  1.00  0.00     0.015 A 
HETATM   23  C9  UNL     1      27.553  -1.520  53.113  1.00  0.00     0.015 A 
HETATM   24  C10 UNL     1      28.918  -1.651  52.971  1.00  0.00     0.001 A 
HETATM   25  C11 UNL     1      29.671  -0.792  53.707  1.00  0.00     0.000 A 
HETATM   26  C12 UNL     1      29.189   0.161  54.550  1.00  0.00     0.001 A 
HETATM   27  C13 UNL     1      27.816   0.254  54.658  1.00  0.00     0.015 A 
ENDBRANCH  20  22
ENDBRANCH   5  20
TORSDOF 4
ENDMDL
MODEL 2
REMARK VINA RESULT:      -9.0      1.402      1.593
REMARK  4 active torsions:
REMARK  status: ('A' for Active; 'I' for Inactive)
REMARK       I    between atoms: C1_2  and  N1_3 
REMARK    1  A    between atoms: C1_2  and  C15_18 
REMARK    2  A    between atoms: N1_3  and  C2_4 
REMARK    3  A    between atoms: C6_8  and  C7_9 
REMARK    4  A    between atoms: C7_9  and  C8_11 
ROOT
HETATM    1  C2  UNL     1      23.883   1.604  51.542  1.00  0.00     0.035 A 
HETATM    2  C3  UNL     1      22.563   1.275  51.800  1.00  0.00     0.029 A 
HETATM    3  C4  UNL     1      22.355   0.359  52.838  1.00  0.00     0.003 A 
HETATM    4  C5  UNL     1      23.417  -0.168  53.543  1.00  0.00     0.015 A 
HETATM    5  C6  UNL     1      24.713   0.172  53.267  1.00  0.00     0.017 A 
HETATM    6  C14 UNL     1      24.926   1.063  52.260  1.00  0.00     0.045 A 
ENDROOT
BRANCH   1   7
HETATM    7  N1  UNL     1      24.276   2.526  50.501  1.00  0.00    -0.322 N 
HETATM    8  C1  UNL     1      24.359   3.784  51.134  1.00  0.00     0.272 C 
HETATM    9  O1  UNL     1      24.096   3.820  52.358  1.00  0.00    -0.266 OA
HETATM   10  H1  UNL     1      24.499   2.501  49.468  1.00  0.00     0.169 HD
BRANCH   8  11
HETATM   11  C15 UNL     1      24.731   5.064  50.464  1.00  0.00     0.098 C 
HETATM   12  C16 UNL     1      24.894   5.032  49.122  1.00  0.00     0.044 C 
HETATM   13  C17 UNL     1      25.264   6.411  48.698  1.00  0.00    -0.030 A 
HETATM   14  C18 UNL     1      25.785   7.425  48.045  1.00  0.00     0.009 A 
HETATM   15  C21 UNL     1      24.447   7.054  49.812  1.00  0.00     0.138 A 
HETATM   16  C19 UNL     1      25.473   8.752  48.561  1.00  0.00    -0.001 A 
HETATM   17  C20 UNL     1      24.702   8.475  49.588  1.00  0.00     0.003 A 
HETATM   18  N2  UNL     1      24.959   6.413  50.961  1.00  0.00    -0.373 N 
HETATM   19  H16 UNL     1      25.384   6.476  51.909  1.00  0.00     0.161 HD
ENDBRANCH   8  11
ENDBRANCH   1   7
BRANCH   5  20
HETATM   20  C7  UNL     1      25.774  -0.445  54.044  1.00  0.00     0.192 C 
HETATM   21  O2  UNL     1      25.317  -1.132  55.022  1.00  0.00    -0.287 OA
BRANCH  20  22
HETATM   22  C8  UNL     1      27.218  -0.384  53.861  1.00  0.00     0.015 A 
HETATM   23  C9  UNL     1      28.000  -1.356  53.285  1.00  0.00     0.015 A 
HETATM   24  C10 UNL     1      29.369  -1.247  53.158  1.00  0.00     0.001 A 
HETATM   25  C11 UNL     1      29.916  -0.102  53.645  1.00  0.00     0.000 A 
HETATM   26  C12 UNL     1      29.231   0.916  54.231  1.00  0.00     0.001 A 
HETATM   27  C13 UNL     1      27.864   0.761  54.335  1.00  0.00     0.015 A 
ENDBRANCH  20  22
ENDBRANCH   5  20
TORSDOF 4
ENDMDL
MODEL 3
REMARK VINA RESULT:      -9.0      2.599      5.531
REMARK  4 active torsions:
REMARK  status: ('A' for Active; 'I' for Inactive)
REMARK       I    between atoms: C1_2  and  N1_3 
REMARK    1  A    between atoms: C1_2  and  C15_18 
REMARK    2  A    between atoms: N1_3  and  C2_4 
REMARK    3  A    between atoms: C6_8  and  C7_9 
REMARK    4  A    between atoms: C7_9  and  C8_11 
ROOT
HETATM    1  C2  UNL     1      24.153   1.854  52.714  1.00  0.00     0.035 A 
HETATM    2  C3  UNL     1      24.604   0.592  53.065  1.00  0.00     0.029 A 
HETATM    3  C4  UNL     1      23.612  -0.368  53.294  1.00  0.00     0.003 A 
HETATM    4  C5  UNL     1      22.276  -0.050  53.170  1.00  0.00     0.015 A 
HETATM    5  C6  UNL     1      21.856   1.204  52.822  1.00  0.00     0.017 A 
HETATM    6  C14 UNL     1      22.813   2.145  52.597  1.00  0.00     0.045 A 
ENDROOT
BRANCH   1   7
HETATM    7  N1  UNL     1      25.041   2.963  52.449  1.00  0.00    -0.322 N 
HETATM    8  C1  UNL     1      25.090   3.071  51.044  1.00  0.00     0.272 C 
HETATM    9  O1  UNL     1      24.407   2.251  50.390  1.00  0.00    -0.266 OA
HETATM   10  H1  UNL     1      25.619   3.658  52.998  1.00  0.00     0.169 HD
BRANCH   8  11
HETATM   11  C15 UNL     1      25.885   4.079  50.284  1.00  0.00     0.098 C 
HETATM   12  C16 UNL     1      26.821   3.610  49.430  1.00  0.00     0.044 C 
HETATM   13  C17 UNL     1      27.473   4.795  48.807  1.00  0.00    -0.030 A 
HETATM   14  C18 UNL     1      28.355   5.592  48.249  1.00  0.00     0.009 A 
HETATM   15  C21 UNL     1      26.199   5.629  48.881  1.00  0.00     0.138 A 
HETATM   16  C19 UNL     1      27.895   6.936  47.923  1.00  0.00    -0.001 A 
HETATM   17  C20 UNL     1      26.642   6.903  48.319  1.00  0.00     0.003 A 
HETATM   18  N2  UNL     1      25.866   5.535  50.250  1.00  0.00    -0.373 N 
HETATM   19  H16 UNL     1      25.636   6.002  51.152  1.00  0.00     0.161 HD
ENDBRANCH   8  11
ENDBRANCH   1   7
BRANCH   5  20
HETATM   20  C7  UNL     1      20.428   1.460  52.734  1.00  0.00     0.192 C 
HETATM   21  O2  UNL     1      20.146   2.690  52.950  1.00  0.00    -0.287 OA
BRANCH  20  22
HETATM   22  C8  UNL     1      19.333   0.543  52.450  1.00  0.00     0.015 A 
HETATM   23  C9  UNL     1      18.917  -0.490  53.254  1.00  0.00     0.015 A 
HETATM   24  C10 UNL     1      17.883  -1.340  52.920  1.00  0.00     0.001 A 
HETATM   25  C11 UNL     1      17.284  -1.095  51.724  1.00  0.00     0.000 A 
HETATM   26  C12 UNL     1      17.622  -0.102  50.858  1.00  0.00     0.001 A 
HETATM   27  C13 UNL     1      18.662   0.722  51.237  1.00  0.00     0.015 A 
ENDBRANCH  20  22
ENDBRANCH   5  20
TORSDOF 4
ENDMDL
MODEL 4
REMARK VINA RESULT:      -8.9      1.520      4.349
REMARK  4 active torsions:
REMARK  status: ('A' for Active; 'I' for Inactive)
REMARK       I    between atoms: C1_2  and  N1_3 
REMARK    1  A    between atoms: C1_2  and  C15_18 
REMARK    2  A    between atoms: N1_3  and  C2_4 
REMARK    3  A    between atoms: C6_8  and  C7_9 
REMARK    4  A    between atoms: C7_9  and  C8_11 
ROOT
HETATM    1  C2  UNL     1      26.261   1.448  52.567  1.00  0.00     0.035 A 
HETATM    2  C3  UNL     1      27.238   0.475  52.442  1.00  0.00     0.029 A 
HETATM    3  C4  UNL     1      26.844  -0.829  52.761  1.00  0.00     0.003 A 
HETATM    4  C5  UNL     1      25.556  -1.101  53.172  1.00  0.00     0.015 A 
HETATM    5  C6  UNL     1      24.608  -0.122  53.289  1.00  0.00     0.017 A 
HETATM    6  C14 UNL     1      24.981   1.150  52.980  1.00  0.00     0.045 A 
ENDROOT
BRANCH   1   7
HETATM    7  N1  UNL     1      26.499   2.845  52.286  1.00  0.00    -0.322 N 
HETATM    8  C1  UNL     1      26.242   2.994  50.907  1.00  0.00     0.272 C 
HETATM    9  O1  UNL     1      25.892   1.967  50.283  1.00  0.00    -0.266 OA
HETATM   10  H1  UNL     1      26.794   3.716  52.809  1.00  0.00     0.169 HD
BRANCH   8  11
HETATM   11  C15 UNL     1      26.355   4.269  50.142  1.00  0.00     0.098 C 
HETATM   12  C16 UNL     1      27.226   4.294  49.108  1.00  0.00     0.044 C 
HETATM   13  C17 UNL     1      27.161   5.659  48.518  1.00  0.00    -0.030 A 
HETATM   14  C18 UNL     1      27.481   6.782  47.916  1.00  0.00     0.009 A 
HETATM   15  C21 UNL     1      25.688   5.825  48.876  1.00  0.00     0.138 A 
HETATM   16  C19 UNL     1      26.424   7.779  47.807  1.00  0.00    -0.001 A 
HETATM   17  C20 UNL     1      25.412   7.174  48.387  1.00  0.00     0.003 A 
HETATM   18  N2  UNL     1      25.691   5.559  50.263  1.00  0.00    -0.373 N 
HETATM   19  H16 UNL     1      25.451   5.852  51.233  1.00  0.00     0.161 HD
ENDBRANCH   8  11
ENDBRANCH   1   7
BRANCH   5  20
HETATM   20  C7  UNL     1      23.280  -0.490  53.749  1.00  0.00     0.192 C 
HETATM   21  O2  UNL     1      23.310  -1.067  54.891  1.00  0.00    -0.287 OA
BRANCH  20  22
HETATM   22  C8  UNL     1      21.987  -0.298  53.109  1.00  0.00     0.015 A 
HETATM   23  C9  UNL     1      21.777   0.211  51.850  1.00  0.00     0.015 A 
HETATM   24  C10 UNL     1      20.523   0.387  51.304  1.00  0.00     0.001 A 
HETATM   25  C11 UNL     1      19.480   0.023  52.096  1.00  0.00     0.000 A 
HETATM   26  C12 UNL     1      19.582  -0.488  53.353  1.00  0.00     0.001 A 
HETATM   27  C13 UNL     1      20.857  -0.646  53.855  1.00  0.00     0.015 A 
ENDBRANCH  20  22
ENDBRANCH   5  20
TORSDOF 4
ENDMDL
MODEL 5
REMARK VINA RESULT:      -8.8      1.708      2.534
REMARK  4 active torsions:
REMARK  status: ('A' for Active; 'I' for Inactive)
REMARK       I    between atoms: C1_2  and  N1_3 
REMARK    1  A    between atoms: C1_2  and  C15_18 
REMARK    2  A    between atoms: N1_3  and  C2_4 
REMARK    3  A    between atoms: C6_8  and  C7_9 
REMARK    4  A    between atoms: C7_9  and  C8_11 
ROOT
HETATM    1  C2  UNL     1      25.700   2.997  50.297  1.00  0.00     0.035 A 
HETATM    2  C3  UNL     1      24.327   2.837  50.206  1.00  0.00     0.029 A 
HETATM    3  C4  UNL     1      23.738   2.047  51.199  1.00  0.00     0.003 A 
HETATM    4  C5  UNL     1      24.501   1.474  52.195  1.00  0.00     0.015 A 
HETATM    5  C6  UNL     1      25.857   1.646  52.263  1.00  0.00     0.017 A 
HETATM    6  C14 UNL     1      26.439   2.414  51.302  1.00  0.00     0.045 A 
ENDROOT
BRANCH   1   7
HETATM    7  N1  UNL     1      26.467   3.774  49.351  1.00  0.00    -0.322 N 
HETATM    8  C1  UNL     1      26.127   5.118  49.613  1.00  0.00     0.272 C 
HETATM    9  O1  UNL     1      25.303   5.323  50.533  1.00  0.00    -0.266 OA
HETATM   10  H1  UNL     1      27.164   3.605  48.573  1.00  0.00     0.169 HD
BRANCH   8  11
HETATM   11  C15 UNL     1      26.668   6.301  48.885  1.00  0.00     0.098 C 
HETATM   12  C16 UNL     1      25.835   6.929  48.023  1.00  0.00     0.044 C 
HETATM   13  C17 UNL     1      26.600   8.058  47.426  1.00  0.00    -0.030 A 
HETATM   14  C18 UNL     1      27.037   8.976  46.594  1.00  0.00     0.009 A 
HETATM   15  C21 UNL     1      27.429   8.264  48.689  1.00  0.00     0.138 A 
HETATM   16  C19 UNL     1      28.117   9.825  47.079  1.00  0.00    -0.001 A 
HETATM   17  C20 UNL     1      28.308   9.363  48.295  1.00  0.00     0.003 A 
HETATM   18  N2  UNL     1      27.959   6.973  48.906  1.00  0.00    -0.373 N 
HETATM   19  H16 UNL     1      28.784   6.356  49.058  1.00  0.00     0.161 HD
ENDBRANCH   8  11
ENDBRANCH   1   7
BRANCH   5  20
HETATM   20  C7  UNL     1      26.589   0.990  53.333  1.00  0.00     0.192 C 
HETATM   21  O2  UNL     1      26.404   1.563  54.463  1.00  0.00    -0.287 OA
BRANCH  20  22
HETATM   22  C8  UNL     1      27.462  -0.174  53.287  1.00  0.00     0.015 A 
HETATM   23  C9  UNL     1      28.785  -0.206  53.658  1.00  0.00     0.015 A 
HETATM   24  C10 UNL     1      29.567  -1.338  53.572  1.00  0.00     0.001 A 
HETATM   25  C11 UNL     1      28.946  -2.447  53.089  1.00  0.00     0.000 A 
HETATM   26  C12 UNL     1      27.646  -2.518  52.696  1.00  0.00     0.001 A 
HETATM   27  C13 UNL     1      26.904  -1.360  52.801  1.00  0.00     0.015 A 
ENDBRANCH  20  22
ENDBRANCH   5  20
TORSDOF 4
ENDMDL
MODEL 6
REMARK VINA RESULT:      -8.6      4.522      7.380
REMARK  4 active torsions:
REMARK  status: ('A' for Active; 'I' for Inactive)
REMARK       I    between atoms: C1_2  and  N1_3 
REMARK    1  A    between atoms: C1_2  and  C15_18 
REMARK    2  A    between atoms: N1_3  and  C2_4 
REMARK    3  A    between atoms: C6_8  and  C7_9 
REMARK    4  A    between atoms: C7_9  and  C8_11 
ROOT
HETATM    1  C2  UNL     1      22.235  -0.532  54.235  1.00  0.00     0.035 A 
HETATM    2  C3  UNL     1      21.268  -1.500  54.452  1.00  0.00     0.029 A 
HETATM    3  C4  UNL     1      20.031  -1.273  53.839  1.00  0.00     0.003 A 
HETATM    4  C5  UNL     1      19.814  -0.147  53.073  1.00  0.00     0.015 A 
HETATM    5  C6  UNL     1      20.786   0.796  52.874  1.00  0.00     0.017 A 
HETATM    6  C14 UNL     1      21.994   0.584  53.465  1.00  0.00     0.045 A 
ENDROOT
BRANCH   1   7
HETATM    7  N1  UNL     1      23.564  -0.606  54.798  1.00  0.00    -0.322 N 
HETATM    8  C1  UNL     1      24.432  -0.690  53.689  1.00  0.00     0.272 C 
HETATM    9  O1  UNL     1      23.902  -0.681  52.555  1.00  0.00    -0.266 OA
HETATM   10  H1  UNL     1      24.016  -0.613  55.755  1.00  0.00     0.169 HD
BRANCH   8  11
HETATM   11  C15 UNL     1      25.918  -0.788  53.764  1.00  0.00     0.098 C 
HETATM   12  C16 UNL     1      26.545  -1.444  52.761  1.00  0.00     0.044 C 
HETATM   13  C17 UNL     1      28.002  -1.410  53.065  1.00  0.00    -0.030 A 
HETATM   14  C18 UNL     1      29.275  -1.725  53.140  1.00  0.00     0.009 A 
HETATM   15  C21 UNL     1      27.902  -0.058  53.761  1.00  0.00     0.138 A 
HETATM   16  C19 UNL     1      30.134  -0.776  53.837  1.00  0.00    -0.001 A 
HETATM   17  C20 UNL     1      29.284   0.165  54.182  1.00  0.00     0.003 A 
HETATM   18  N2  UNL     1      26.896  -0.296  54.724  1.00  0.00    -0.373 N 
HETATM   19  H16 UNL     1      26.582  -0.276  55.716  1.00  0.00     0.161 HD
ENDBRANCH   8  11
ENDBRANCH   1   7
BRANCH   5  20
HETATM   20  C7  UNL     1      20.469   1.964  52.070  1.00  0.00     0.192 C 
HETATM   21  O2  UNL     1      19.898   2.879  52.757  1.00  0.00    -0.287 OA
BRANCH  20  22
HETATM   22  C8  UNL     1      20.704   2.211  50.654  1.00  0.00     0.015 A 
HETATM   23  C9  UNL     1      20.402   3.367  49.976  1.00  0.00     0.015 A 
HETATM   24  C10 UNL     1      20.632   3.535  48.627  1.00  0.00     0.001 A 
HETATM   25  C11 UNL     1      21.184   2.470  47.987  1.00  0.00     0.000 A 
HETATM   26  C12 UNL     1      21.517   1.285  48.566  1.00  0.00     0.001 A 
HETATM   27  C13 UNL     1      21.269   1.166  49.918  1.00  0.00     0.015 A 
ENDBRANCH  20  22
ENDBRANCH   5  20
TORSDOF 4
ENDMDL
MODEL 7
REMARK VINA RESULT:      -8.2      2.896      3.360
REMARK  4 active torsions:
REMARK  status: ('A' for Active; 'I' for Inactive)
REMARK       I    between atoms: C1_2  and  N1_3 
REMARK    1  A    between atoms: C1_2  and  C15_18 
REMARK    2  A    between atoms: N1_3  and  C2_4 
REMARK    3  A    between atoms: C6_8  and  C7_9 
REMARK    4  A    between atoms: C7_9  and  C8_11 
ROOT
HETATM    1  C2  UNL     1      23.032   1.255  51.569  1.00  0.00     0.035 A 
HETATM    2  C3  UNL     1      21.903   0.477  51.759  1.00  0.00     0.029 A 
HETATM    3  C4  UNL     1      22.018  -0.540  52.713  1.00  0.00     0.003 A 
HETATM    4  C5  UNL     1      23.195  -0.735  53.405  1.00  0.00     0.015 A 
HETATM    5  C6  UNL     1      24.298   0.048  53.198  1.00  0.00     0.017 A 
HETATM    6  C14 UNL     1      24.196   1.041  52.273  1.00  0.00     0.045 A 
ENDROOT
BRANCH   1   7
HETATM    7  N1  UNL     1      23.089   2.343  50.619  1.00  0.00    -0.322 N 
HETATM    8  C1  UNL     1      22.641   3.477  51.328  1.00  0.00     0.272 C 
HETATM    9  O1  UNL     1      22.322   3.305  52.526  1.00  0.00    -0.266 OA
HETATM   10  H1  UNL     1      23.358   2.493  49.607  1.00  0.00     0.169 HD
BRANCH   8  11
HETATM   11  C15 UNL     1      22.521   4.853  50.765  1.00  0.00     0.098 C 
HETATM   12  C16 UNL     1      22.669   4.988  49.428  1.00  0.00     0.044 C 
HETATM   13  C17 UNL     1      22.513   6.436  49.118  1.00  0.00    -0.030 A 
HETATM   14  C18 UNL     1      22.627   7.617  48.554  1.00  0.00     0.009 A 
HETATM   15  C21 UNL     1      21.531   6.653  50.263  1.00  0.00     0.138 A 
HETATM   16  C19 UNL     1      21.864   8.699  49.165  1.00  0.00    -0.001 A 
HETATM   17  C20 UNL     1      21.255   8.083  50.154  1.00  0.00     0.003 A 
HETATM   18  N2  UNL     1      22.253   6.151  51.368  1.00  0.00    -0.373 N 
HETATM   19  H16 UNL     1      22.638   6.289  52.326  1.00  0.00     0.161 HD
ENDBRANCH   8  11
ENDBRANCH   1   7
BRANCH   5  20
HETATM   20  C7  UNL     1      25.505  -0.237  53.955  1.00  0.00     0.192 C 
HETATM   21  O2  UNL     1      25.312  -1.133  54.848  1.00  0.00    -0.287 OA
BRANCH  20  22
HETATM   22  C8  UNL     1      26.837   0.338  53.834  1.00  0.00     0.015 A 
HETATM   23  C9  UNL     1      27.136   1.679  53.799  1.00  0.00     0.015 A 
HETATM   24  C10 UNL     1      28.420   2.165  53.663  1.00  0.00     0.001 A 
HETATM   25  C11 UNL     1      29.396   1.225  53.563  1.00  0.00     0.000 A 
HETATM   26  C12 UNL     1      29.204  -0.122  53.586  1.00  0.00     0.001 A 
HETATM   27  C13 UNL     1      27.903  -0.559  53.724  1.00  0.00     0.015 A 
ENDBRANCH  20  22
ENDBRANCH   5  20
TORSDOF 4
ENDMDL
MODEL 8
REMARK VINA RESULT:      -8.2      2.556      5.004
REMARK  4 active torsions:
REMARK  status: ('A' for Active; 'I' for Inactive)
REMARK       I    between atoms: C1_2  and  N1_3 
REMARK    1  A    between atoms: C1_2  and  C15_18 
REMARK    2  A    between atoms: N1_3  and  C2_4 
REMARK    3  A    between atoms: C6_8  and  C7_9 
REMARK    4  A    between atoms: C7_9  and  C8_11 
ROOT
HETATM    1  C2  UNL     1      25.243   3.083  51.334  1.00  0.00     0.035 A 
HETATM    2  C3  UNL     1      26.009   2.349  52.224  1.00  0.00     0.029 A 
HETATM    3  C4  UNL     1      25.446   1.146  52.664  1.00  0.00     0.003 A 
HETATM    4  C5  UNL     1      24.203   0.741  52.223  1.00  0.00     0.015 A 
HETATM    5  C6  UNL     1      23.465   1.485  51.345  1.00  0.00     0.017 A 
HETATM    6  C14 UNL     1      24.004   2.657  50.909  1.00  0.00     0.045 A 
ENDROOT
BRANCH   1   7
HETATM    7  N1  UNL     1      25.669   4.351  50.786  1.00  0.00    -0.322 N 
HETATM    8  C1  UNL     1      26.561   4.022  49.743  1.00  0.00     0.272 C 
HETATM    9  O1  UNL     1      26.767   2.805  49.539  1.00  0.00    -0.266 OA
HETATM   10  H1  UNL     1      25.497   5.381  50.955  1.00  0.00     0.169 HD
BRANCH   8  11
HETATM   11  C15 UNL     1      27.269   5.005  48.874  1.00  0.00     0.098 C 
HETATM   12  C16 UNL     1      26.662   6.195  48.665  1.00  0.00     0.044 C 
HETATM   13  C17 UNL     1      27.553   6.986  47.773  1.00  0.00    -0.030 A 
HETATM   14  C18 UNL     1      27.992   7.833  46.869  1.00  0.00     0.009 A 
HETATM   15  C21 UNL     1      28.815   6.345  48.339  1.00  0.00     0.138 A 
HETATM   16  C19 UNL     1      29.436   7.878  46.675  1.00  0.00    -0.001 A 
HETATM   17  C20 UNL     1      29.860   6.990  47.547  1.00  0.00     0.003 A 
HETATM   18  N2  UNL     1      28.545   4.969  48.173  1.00  0.00    -0.373 N 
HETATM   19  H16 UNL     1      28.830   4.037  47.807  1.00  0.00     0.161 HD
ENDBRANCH   8  11
ENDBRANCH   1   7
BRANCH   5  20
HETATM   20  C7  UNL     1      22.155   0.997  50.947  1.00  0.00     0.192 C 
HETATM   21  O2  UNL     1      21.949   1.141  49.693  1.00  0.00    -0.287 OA
BRANCH  20  22
HETATM   22  C8  UNL     1      21.102   0.397  51.754  1.00  0.00     0.015 A 
HETATM   23  C9  UNL     1      21.272  -0.244  52.957  1.00  0.00     0.015 A 
HETATM   24  C10 UNL     1      20.234  -0.810  53.667  1.00  0.00     0.001 A 
HETATM   25  C11 UNL     1      19.004  -0.699  53.099  1.00  0.00     0.000 A 
HETATM   26  C12 UNL     1      18.731  -0.086  51.915  1.00  0.00     0.001 A 
HETATM   27  C13 UNL     1      19.803   0.465  51.243  1.00  0.00     0.015 A 
ENDBRANCH  20  22
ENDBRANCH   5  20
TORSDOF 4
ENDMDL
MODEL 9
REMARK VINA RESULT:      -8.1      3.584      8.128
REMARK  4 active torsions:
REMARK  status: ('A' for Active; 'I' for Inactive)
REMARK       I    between atoms: C1_2  and  N1_3 
REMARK    1  A    between atoms: C1_2  and  C15_18 
REMARK    2  A    between atoms: N1_3  and  C2_4 
REMARK    3  A    between atoms: C6_8  and  C7_9 
REMARK    4  A    between atoms: C7_9  and  C8_11 
ROOT
HETATM    1  C2  UNL     1      23.386   3.770  48.908  1.00  0.00     0.035 A 
HETATM    2  C3  UNL     1      22.432   4.344  48.084  1.00  0.00     0.029 A 
HETATM    3  C4  UNL     1      22.697   5.653  47.665  1.00  0.00     0.003 A 
HETATM    4  C5  UNL     1      23.844   6.307  48.062  1.00  0.00     0.015 A 
HETATM    5  C6  UNL     1      24.772   5.717  48.877  1.00  0.00     0.017 A 
HETATM    6  C14 UNL     1      24.524   4.444  49.290  1.00  0.00     0.045 A 
ENDROOT
BRANCH   1   7
HETATM    7  N1  UNL     1      23.267   2.430  49.436  1.00  0.00    -0.322 N 
HETATM    8  C1  UNL     1      22.677   2.585  50.708  1.00  0.00     0.272 C 
HETATM    9  O1  UNL     1      22.408   3.754  51.068  1.00  0.00    -0.266 OA
HETATM   10  H1  UNL     1      23.492   1.441  49.136  1.00  0.00     0.169 HD
BRANCH   8  11
HETATM   11  C15 UNL     1      22.353   1.474  51.649  1.00  0.00     0.098 C 
HETATM   12  C16 UNL     1      23.221   1.249  52.661  1.00  0.00     0.044 C 
HETATM   13  C17 UNL     1      22.685   0.102  53.445  1.00  0.00    -0.030 A 
HETATM   14  C18 UNL     1      22.598  -0.970  54.199  1.00  0.00     0.009 A 
HETATM   15  C21 UNL     1      21.238   0.471  53.139  1.00  0.00     0.138 A 
HETATM   16  C19 UNL     1      21.253  -1.460  54.470  1.00  0.00    -0.001 A 
HETATM   17  C20 UNL     1      20.507  -0.592  53.825  1.00  0.00     0.003 A 
HETATM   18  N2  UNL     1      21.242   0.536  51.728  1.00  0.00    -0.373 N 
HETATM   19  H16 UNL     1      20.841   0.236  50.816  1.00  0.00     0.161 HD
ENDBRANCH   8  11
ENDBRANCH   1   7
BRANCH   5  20
HETATM   20  C7  UNL     1      25.944   6.484  49.266  1.00  0.00     0.192 C 
HETATM   21  O2  UNL     1      25.748   7.148  50.342  1.00  0.00    -0.287 OA
BRANCH  20  22
HETATM   22  C8  UNL     1      27.244   6.589  48.619  1.00  0.00     0.015 A 
HETATM   23  C9  UNL     1      27.750   7.708  48.002  1.00  0.00     0.015 A 
HETATM   24  C10 UNL     1      28.985   7.740  47.388  1.00  0.00     0.001 A 
HETATM   25  C11 UNL     1      29.690   6.579  47.425  1.00  0.00     0.000 A 
HETATM   26  C12 UNL     1      29.278   5.421  48.007  1.00  0.00     0.001 A 
HETATM   27  C13 UNL     1      28.037   5.438  48.609  1.00  0.00     0.015 A 
ENDBRANCH  20  22
ENDBRANCH   5  20
TORSDOF 4
ENDMDL
