MODEL 1
REMARK VINA RESULT:      -6.7      0.000      0.000
REMARK  9 active torsions:
REMARK  status: ('A' for Active; 'I' for Inactive)
REMARK    1  A    between atoms: O1_2  and  C2_3 
REMARK    2  A    between atoms: C2_3  and  N1_4 
REMARK    3  A    between atoms: C5_7  and  O2_8 
REMARK    4  A    between atoms: S1_12  and  C9_13 
REMARK    5  A    between atoms: C9_13  and  C10_14 
REMARK    6  A    between atoms: C10_14  and  C11_15 
REMARK    7  A    between atoms: C11_15  and  C12_16 
REMARK    8  A    between atoms: C14_19  and  C15_20 
REMARK    9  A    between atoms: C16_21  and  N2_22 
ROOT
HETATM    1  C12 UNL     1      26.245   1.766  51.682  1.00  0.00     0.066 C 
HETATM    2  C13 UNL     1      27.230   2.059  52.536  1.00  0.00     0.201 C 
HETATM    3 CL1  UNL     1      28.560   2.664  53.544  1.00  0.00    -0.234 Cl
ENDROOT
BRANCH   1   4
HETATM    4  C11 UNL     1      26.056   0.508  52.341  1.00  0.00    -0.041 C 
HETATM    5  C14 UNL     1      27.155  -0.213  52.010  1.00  0.00     0.009 C 
BRANCH   4   6
HETATM    6  C10 UNL     1      25.278  -0.362  53.192  1.00  0.00     0.071 C 
BRANCH   6   7
HETATM    7  C9  UNL     1      23.986  -0.090  53.404  1.00  0.00    -0.084 C 
BRANCH   7   8
HETATM    8  S1  UNL     1      22.449   0.384  53.228  1.00  0.00    -0.073 SA
HETATM    9  C3  UNL     1      21.693   0.770  51.656  1.00  0.00     0.098 A 
HETATM   10  N1  UNL     1      22.453   1.321  50.826  1.00  0.00    -0.257 NA
HETATM   11  C4  UNL     1      20.282   0.363  51.587  1.00  0.00     0.075 A 
HETATM   12  C5  UNL     1      19.576  -0.227  52.533  1.00  0.00     0.071 A 
HETATM   13  C7  UNL     1      20.025  -0.616  53.875  1.00  0.00     0.044 A 
HETATM   14  C8  UNL     1      21.293  -0.408  54.337  1.00  0.00     0.056 A 
BRANCH  10  15
HETATM   15  C2  UNL     1      22.067   1.704  49.508  1.00  0.00     0.317 C 
BRANCH  15  16
HETATM   16  O1  UNL     1      21.845   3.068  49.465  1.00  0.00    -0.375 OA
HETATM   17  C1  UNL     1      22.879   3.818  48.991  1.00  0.00     0.203 C 
ENDBRANCH  15  16
ENDBRANCH  10  15
BRANCH  12  18
HETATM   18  O2  UNL     1      18.251  -0.520  52.245  1.00  0.00    -0.356 OA
HETATM   19  C6  UNL     1      17.361  -1.243  53.033  1.00  0.00     0.210 C 
ENDBRANCH  12  18
ENDBRANCH   7   8
ENDBRANCH   6   7
ENDBRANCH   4   6
BRANCH   5  20
HETATM   20  C15 UNL     1      26.977  -1.472  52.677  1.00  0.00     0.012 C 
HETATM   21  C16 UNL     1      28.038  -2.275  52.857  1.00  0.00     0.054 C 
BRANCH  21  22
HETATM   22  N2  UNL     1      28.564  -3.521  53.372  1.00  0.00    -0.312 NA
HETATM   23  H18 UNL     1      28.337  -3.784  54.364  1.00  0.00     0.123 HD
HETATM   24  H19 UNL     1      28.319  -3.765  54.380  1.00  0.00     0.123 HD
ENDBRANCH  21  22
ENDBRANCH   5  20
ENDBRANCH   1   4
TORSDOF 9
ENDMDL
MODEL 2
REMARK VINA RESULT:      -6.4      5.140      7.106
REMARK  9 active torsions:
REMARK  status: ('A' for Active; 'I' for Inactive)
REMARK    1  A    between atoms: O1_2  and  C2_3 
REMARK    2  A    between atoms: C2_3  and  N1_4 
REMARK    3  A    between atoms: C5_7  and  O2_8 
REMARK    4  A    between atoms: S1_12  and  C9_13 
REMARK    5  A    between atoms: C9_13  and  C10_14 
REMARK    6  A    between atoms: C10_14  and  C11_15 
REMARK    7  A    between atoms: C11_15  and  C12_16 
REMARK    8  A    between atoms: C14_19  and  C15_20 
REMARK    9  A    between atoms: C16_21  and  N2_22 
ROOT
HETATM    1  C12 UNL     1      26.754   7.446  47.729  1.00  0.00     0.066 C 
HETATM    2  C13 UNL     1      27.106   8.067  48.858  1.00  0.00     0.201 C 
HETATM    3 CL1  UNL     1      27.420   9.077  50.284  1.00  0.00    -0.234 Cl
ENDROOT
BRANCH   1   4
HETATM    4  C11 UNL     1      27.610   6.349  48.073  1.00  0.00    -0.041 C 
HETATM    5  C14 UNL     1      28.860   6.804  47.813  1.00  0.00     0.009 C 
BRANCH   4   6
HETATM    6  C10 UNL     1      27.795   5.006  48.570  1.00  0.00     0.071 C 
BRANCH   6   7
HETATM    7  C9  UNL     1      26.766   4.366  49.135  1.00  0.00    -0.084 C 
BRANCH   7   8
HETATM    8  S1  UNL     1      25.817   3.245  49.815  1.00  0.00    -0.073 SA
HETATM    9  C3  UNL     1      26.050   2.602  51.465  1.00  0.00     0.098 A 
HETATM   10  N1  UNL     1      27.246   2.485  51.822  1.00  0.00    -0.257 NA
HETATM   11  C4  UNL     1      24.780   2.318  52.150  1.00  0.00     0.075 A 
HETATM   12  C5  UNL     1      23.562   2.490  51.673  1.00  0.00     0.071 A 
HETATM   13  C7  UNL     1      23.181   3.002  50.352  1.00  0.00     0.044 A 
HETATM   14  C8  UNL     1      24.084   3.385  49.402  1.00  0.00     0.056 A 
BRANCH  10  15
HETATM   15  C2  UNL     1      27.663   2.007  53.098  1.00  0.00     0.317 C 
BRANCH  15  16
HETATM   16  O1  UNL     1      28.944   1.494  53.008  1.00  0.00    -0.375 OA
HETATM   17  C1  UNL     1      29.322   0.672  54.027  1.00  0.00     0.203 C 
ENDBRANCH  15  16
ENDBRANCH  10  15
BRANCH  12  18
HETATM   18  O2  UNL     1      22.504   2.150  52.504  1.00  0.00    -0.356 OA
HETATM   19  C6  UNL     1      22.294   0.928  53.137  1.00  0.00     0.210 C 
ENDBRANCH  12  18
ENDBRANCH   7   8
ENDBRANCH   6   7
ENDBRANCH   4   6
BRANCH   5  20
HETATM   20  C15 UNL     1      29.724   5.714  48.166  1.00  0.00     0.012 C 
HETATM   21  C16 UNL     1      30.911   5.975  48.736  1.00  0.00     0.054 C 
BRANCH  21  22
HETATM   22  N2  UNL     1      32.145   5.467  49.295  1.00  0.00    -0.312 NA
HETATM   23  H18 UNL     1      32.944   6.137  49.424  1.00  0.00     0.123 HD
HETATM   24  H19 UNL     1      32.940   6.165  49.416  1.00  0.00     0.123 HD
ENDBRANCH  21  22
ENDBRANCH   5  20
ENDBRANCH   1   4
TORSDOF 9
ENDMDL
MODEL 3
REMARK VINA RESULT:      -6.2      3.169      7.059
REMARK  9 active torsions:
REMARK  status: ('A' for Active; 'I' for Inactive)
REMARK    1  A    between atoms: O1_2  and  C2_3 
REMARK    2  A    between atoms: C2_3  and  N1_4 
REMARK    3  A    between atoms: C5_7  and  O2_8 
REMARK    4  A    between atoms: S1_12  and  C9_13 
REMARK    5  A    between atoms: C9_13  and  C10_14 
REMARK    6  A    between atoms: C10_14  and  C11_15 
REMARK    7  A    between atoms: C11_15  and  C12_16 
REMARK    8  A    between atoms: C14_19  and  C15_20 
REMARK    9  A    between atoms: C16_21  and  N2_22 
ROOT
HETATM    1  C12 UNL     1      24.768   4.243  49.275  1.00  0.00     0.066 C 
HETATM    2  C13 UNL     1      24.228   5.104  50.142  1.00  0.00     0.201 C 
HETATM    3 CL1  UNL     1      23.714   6.391  51.253  1.00  0.00    -0.234 Cl
ENDROOT
BRANCH   1   4
HETATM    4  C11 UNL     1      23.647   3.368  49.456  1.00  0.00    -0.041 C 
HETATM    5  C14 UNL     1      22.779   3.728  48.479  1.00  0.00     0.009 C 
BRANCH   4   6
HETATM    6  C10 UNL     1      22.996   2.287  50.158  1.00  0.00     0.071 C 
BRANCH   6   7
HETATM    7  C9  UNL     1      23.596   1.736  51.218  1.00  0.00    -0.084 C 
BRANCH   7   8
HETATM    8  S1  UNL     1      24.686   1.288  52.328  1.00  0.00    -0.073 SA
HETATM    9  C3  UNL     1      24.455  -0.066  53.470  1.00  0.00     0.098 A 
HETATM   10  N1  UNL     1      23.280  -0.217  53.877  1.00  0.00    -0.257 NA
HETATM   11  C4  UNL     1      25.700  -0.799  53.744  1.00  0.00     0.075 A 
HETATM   12  C5  UNL     1      26.896  -0.551  53.245  1.00  0.00     0.071 A 
HETATM   13  C7  UNL     1      27.272   0.508  52.302  1.00  0.00     0.044 A 
HETATM   14  C8  UNL     1      26.387   1.417  51.796  1.00  0.00     0.056 A 
BRANCH  10  15
HETATM   15  C2  UNL     1      22.865  -1.239  54.781  1.00  0.00     0.317 C 
BRANCH  15  16
HETATM   16  O1  UNL     1      21.528  -1.072  55.093  1.00  0.00    -0.375 OA
HETATM   17  C1  UNL     1      20.958   0.081  54.641  1.00  0.00     0.203 C 
ENDBRANCH  15  16
ENDBRANCH  10  15
BRANCH  12  18
HETATM   18  O2  UNL     1      27.933  -1.379  53.649  1.00  0.00    -0.356 OA
HETATM   19  C6  UNL     1      29.289  -1.065  53.692  1.00  0.00     0.210 C 
ENDBRANCH  12  18
ENDBRANCH   7   8
ENDBRANCH   6   7
ENDBRANCH   4   6
BRANCH   5  20
HETATM   20  C15 UNL     1      21.659   2.847  48.647  1.00  0.00     0.012 C 
HETATM   21  C16 UNL     1      20.584   2.992  47.856  1.00  0.00     0.054 C 
BRANCH  21  22
HETATM   22  N2  UNL     1      19.260   2.542  47.483  1.00  0.00    -0.312 NA
HETATM   23  H18 UNL     1      19.021   2.494  46.461  1.00  0.00     0.123 HD
HETATM   24  H19 UNL     1      19.042   2.503  46.442  1.00  0.00     0.123 HD
ENDBRANCH  21  22
ENDBRANCH   5  20
ENDBRANCH   1   4
TORSDOF 9
ENDMDL
MODEL 4
REMARK VINA RESULT:      -6.2      4.281      6.266
REMARK  9 active torsions:
REMARK  status: ('A' for Active; 'I' for Inactive)
REMARK    1  A    between atoms: O1_2  and  C2_3 
REMARK    2  A    between atoms: C2_3  and  N1_4 
REMARK    3  A    between atoms: C5_7  and  O2_8 
REMARK    4  A    between atoms: S1_12  and  C9_13 
REMARK    5  A    between atoms: C9_13  and  C10_14 
REMARK    6  A    between atoms: C10_14  and  C11_15 
REMARK    7  A    between atoms: C11_15  and  C12_16 
REMARK    8  A    between atoms: C14_19  and  C15_20 
REMARK    9  A    between atoms: C16_21  and  N2_22 
ROOT
HETATM    1  C12 UNL     1      24.510   6.210  49.962  1.00  0.00     0.066 C 
HETATM    2  C13 UNL     1      23.857   5.774  48.881  1.00  0.00     0.201 C 
HETATM    3 CL1  UNL     1      22.815   5.367  47.503  1.00  0.00    -0.234 Cl
ENDROOT
BRANCH   1   4
HETATM    4  C11 UNL     1      25.547   5.254  49.713  1.00  0.00    -0.041 C 
HETATM    5  C14 UNL     1      26.429   5.912  48.922  1.00  0.00     0.009 C 
BRANCH   4   6
HETATM    6  C10 UNL     1      26.119   3.940  49.901  1.00  0.00     0.071 C 
BRANCH   6   7
HETATM    7  C9  UNL     1      25.482   3.051  50.669  1.00  0.00    -0.084 C 
BRANCH   7   8
HETATM    8  S1  UNL     1      24.775   1.708  51.232  1.00  0.00    -0.073 SA
HETATM    9  C3  UNL     1      25.572   0.535  52.318  1.00  0.00     0.098 A 
HETATM   10  N1  UNL     1      26.797   0.369  52.108  1.00  0.00    -0.257 NA
HETATM   11  C4  UNL     1      24.650  -0.047  53.304  1.00  0.00     0.075 A 
HETATM   12  C5  UNL     1      23.363   0.212  53.440  1.00  0.00     0.071 A 
HETATM   13  C7  UNL     1      22.546   1.136  52.647  1.00  0.00     0.044 A 
HETATM   14  C8  UNL     1      23.039   1.885  51.615  1.00  0.00     0.056 A 
BRANCH  10  15
HETATM   15  C2  UNL     1      27.633  -0.506  52.861  1.00  0.00     0.317 C 
BRANCH  15  16
HETATM   16  O1  UNL     1      28.615   0.225  53.503  1.00  0.00    -0.375 OA
HETATM   17  C1  UNL     1      28.574   0.197  54.865  1.00  0.00     0.203 C 
ENDBRANCH  15  16
ENDBRANCH  10  15
BRANCH  12  18
HETATM   18  O2  UNL     1      22.686  -0.461  54.446  1.00  0.00    -0.356 OA
HETATM   19  C6  UNL     1      21.313  -0.462  54.678  1.00  0.00     0.210 C 
ENDBRANCH  12  18
ENDBRANCH   7   8
ENDBRANCH   6   7
ENDBRANCH   4   6
BRANCH   5  20
HETATM   20  C15 UNL     1      27.477   4.962  48.678  1.00  0.00     0.012 C 
HETATM   21  C16 UNL     1      28.702   5.405  48.351  1.00  0.00     0.054 C 
BRANCH  21  22
HETATM   22  N2  UNL     1      30.072   5.092  48.009  1.00  0.00    -0.312 NA
HETATM   23  H18 UNL     1      30.333   5.047  46.993  1.00  0.00     0.123 HD
HETATM   24  H19 UNL     1      30.312   5.052  46.972  1.00  0.00     0.123 HD
ENDBRANCH  21  22
ENDBRANCH   5  20
ENDBRANCH   1   4
TORSDOF 9
ENDMDL
MODEL 5
REMARK VINA RESULT:      -6.2      3.979      5.599
REMARK  9 active torsions:
REMARK  status: ('A' for Active; 'I' for Inactive)
REMARK    1  A    between atoms: O1_2  and  C2_3 
REMARK    2  A    between atoms: C2_3  and  N1_4 
REMARK    3  A    between atoms: C5_7  and  O2_8 
REMARK    4  A    between atoms: S1_12  and  C9_13 
REMARK    5  A    between atoms: C9_13  and  C10_14 
REMARK    6  A    between atoms: C10_14  and  C11_15 
REMARK    7  A    between atoms: C11_15  and  C12_16 
REMARK    8  A    between atoms: C14_19  and  C15_20 
REMARK    9  A    between atoms: C16_21  and  N2_22 
ROOT
HETATM    1  C12 UNL     1      24.820   5.997  49.902  1.00  0.00     0.066 C 
HETATM    2  C13 UNL     1      24.070   5.422  48.958  1.00  0.00     0.201 C 
HETATM    3 CL1  UNL     1      22.895   4.823  47.769  1.00  0.00    -0.234 Cl
ENDROOT
BRANCH   1   4
HETATM    4  C11 UNL     1      25.888   5.093  49.595  1.00  0.00    -0.041 C 
HETATM    5  C14 UNL     1      26.738   5.824  48.833  1.00  0.00     0.009 C 
BRANCH   4   6
HETATM    6  C10 UNL     1      26.508   3.793  49.708  1.00  0.00     0.071 C 
BRANCH   6   7
HETATM    7  C9  UNL     1      26.123   2.964  50.684  1.00  0.00    -0.084 C 
BRANCH   7   8
HETATM    8  S1  UNL     1      25.370   2.306  51.957  1.00  0.00    -0.073 SA
HETATM    9  C3  UNL     1      23.626   2.492  52.297  1.00  0.00     0.098 A 
HETATM   10  N1  UNL     1      23.146   3.609  51.993  1.00  0.00    -0.257 NA
HETATM   11  C4  UNL     1      23.027   1.282  52.880  1.00  0.00     0.075 A 
HETATM   12  C5  UNL     1      23.636   0.144  53.153  1.00  0.00     0.071 A 
HETATM   13  C7  UNL     1      25.050  -0.188  52.944  1.00  0.00     0.044 A 
HETATM   14  C8  UNL     1      25.959   0.682  52.413  1.00  0.00     0.056 A 
BRANCH  10  15
HETATM   15  C2  UNL     1      21.778   3.972  52.164  1.00  0.00     0.317 C 
BRANCH  15  16
HETATM   16  O1  UNL     1      21.445   4.969  51.266  1.00  0.00    -0.375 OA
HETATM   17  C1  UNL     1      20.409   4.683  50.428  1.00  0.00     0.203 C 
ENDBRANCH  15  16
ENDBRANCH  10  15
BRANCH  12  18
HETATM   18  O2  UNL     1      22.866  -0.868  53.705  1.00  0.00    -0.356 OA
HETATM   19  C6  UNL     1      22.168  -0.830  54.909  1.00  0.00     0.210 C 
ENDBRANCH  12  18
ENDBRANCH   7   8
ENDBRANCH   6   7
ENDBRANCH   4   6
BRANCH   5  20
HETATM   20  C15 UNL     1      27.817   4.927  48.532  1.00  0.00     0.012 C 
HETATM   21  C16 UNL     1      29.041   5.427  48.297  1.00  0.00     0.054 C 
BRANCH  21  22
HETATM   22  N2  UNL     1      30.430   5.180  47.975  1.00  0.00    -0.312 NA
HETATM   23  H18 UNL     1      30.720   4.196  47.745  1.00  0.00     0.123 HD
HETATM   24  H19 UNL     1      30.698   4.175  47.746  1.00  0.00     0.123 HD
ENDBRANCH  21  22
ENDBRANCH   5  20
ENDBRANCH   1   4
TORSDOF 9
ENDMDL
MODEL 6
REMARK VINA RESULT:      -6.2      3.495      6.283
REMARK  9 active torsions:
REMARK  status: ('A' for Active; 'I' for Inactive)
REMARK    1  A    between atoms: O1_2  and  C2_3 
REMARK    2  A    between atoms: C2_3  and  N1_4 
REMARK    3  A    between atoms: C5_7  and  O2_8 
REMARK    4  A    between atoms: S1_12  and  C9_13 
REMARK    5  A    between atoms: C9_13  and  C10_14 
REMARK    6  A    between atoms: C10_14  and  C11_15 
REMARK    7  A    between atoms: C11_15  and  C12_16 
REMARK    8  A    between atoms: C14_19  and  C15_20 
REMARK    9  A    between atoms: C16_21  and  N2_22 
ROOT
HETATM    1  C12 UNL     1      26.818  -0.631  52.327  1.00  0.00     0.066 C 
HETATM    2  C13 UNL     1      27.360  -0.235  53.482  1.00  0.00     0.201 C 
HETATM    3 CL1  UNL     1      28.287   0.172  54.940  1.00  0.00    -0.234 Cl
ENDROOT
BRANCH   1   4
HETATM    4  C11 UNL     1      25.592   0.016  52.687  1.00  0.00    -0.041 C 
HETATM    5  C14 UNL     1      24.950  -0.889  53.466  1.00  0.00     0.009 C 
BRANCH   4   6
HETATM    6  C10 UNL     1      24.712   1.161  52.638  1.00  0.00     0.071 C 
BRANCH   6   7
HETATM    7  C9  UNL     1      24.977   2.157  51.787  1.00  0.00    -0.084 C 
BRANCH   7   8
HETATM    8  S1  UNL     1      24.951   3.172  50.526  1.00  0.00    -0.073 SA
HETATM    9  C3  UNL     1      24.040   4.708  50.494  1.00  0.00     0.098 A 
HETATM   10  N1  UNL     1      22.944   4.684  51.100  1.00  0.00    -0.257 NA
HETATM   11  C4  UNL     1      24.741   5.770  49.757  1.00  0.00     0.075 A 
HETATM   12  C5  UNL     1      25.913   5.684  49.157  1.00  0.00     0.071 A 
HETATM   13  C7  UNL     1      26.795   4.514  49.079  1.00  0.00     0.044 A 
HETATM   14  C8  UNL     1      26.501   3.307  49.647  1.00  0.00     0.056 A 
BRANCH  10  15
HETATM   15  C2  UNL     1      22.061   5.798  51.215  1.00  0.00     0.317 C 
BRANCH  15  16
HETATM   16  O1  UNL     1      20.843   5.488  50.639  1.00  0.00    -0.375 OA
HETATM   17  C1  UNL     1      20.235   4.365  51.114  1.00  0.00     0.203 C 
ENDBRANCH  15  16
ENDBRANCH  10  15
BRANCH  12  18
HETATM   18  O2  UNL     1      26.381   6.822  48.518  1.00  0.00    -0.356 OA
HETATM   19  C6  UNL     1      27.382   7.682  48.962  1.00  0.00     0.210 C 
ENDBRANCH  12  18
ENDBRANCH   7   8
ENDBRANCH   6   7
ENDBRANCH   4   6
BRANCH   5  20
HETATM   20  C15 UNL     1      23.725  -0.241  53.840  1.00  0.00     0.012 C 
HETATM   21  C16 UNL     1      22.766  -0.953  54.453  1.00  0.00     0.054 C 
BRANCH  21  22
HETATM   22  N2  UNL     1      21.448  -0.985  55.048  1.00  0.00    -0.312 NA
HETATM   23  H18 UNL     1      20.710  -0.348  54.656  1.00  0.00     0.123 HD
HETATM   24  H19 UNL     1      20.717  -0.330  54.633  1.00  0.00     0.123 HD
ENDBRANCH  21  22
ENDBRANCH   5  20
ENDBRANCH   1   4
TORSDOF 9
ENDMDL
MODEL 7
REMARK VINA RESULT:      -5.9      4.017      6.942
REMARK  9 active torsions:
REMARK  status: ('A' for Active; 'I' for Inactive)
REMARK    1  A    between atoms: O1_2  and  C2_3 
REMARK    2  A    between atoms: C2_3  and  N1_4 
REMARK    3  A    between atoms: C5_7  and  O2_8 
REMARK    4  A    between atoms: S1_12  and  C9_13 
REMARK    5  A    between atoms: C9_13  and  C10_14 
REMARK    6  A    between atoms: C10_14  and  C11_15 
REMARK    7  A    between atoms: C11_15  and  C12_16 
REMARK    8  A    between atoms: C14_19  and  C15_20 
REMARK    9  A    between atoms: C16_21  and  N2_22 
ROOT
HETATM    1  C12 UNL     1      24.642   2.574  53.333  1.00  0.00     0.066 C 
HETATM    2  C13 UNL     1      23.837   1.630  52.836  1.00  0.00     0.201 C 
HETATM    3 CL1  UNL     1      22.584   0.493  52.299  1.00  0.00    -0.234 Cl
ENDROOT
BRANCH   1   4
HETATM    4  C11 UNL     1      25.755   1.970  52.663  1.00  0.00    -0.041 C 
HETATM    5  C14 UNL     1      26.132   0.958  53.483  1.00  0.00     0.009 C 
BRANCH   4   6
HETATM    6  C10 UNL     1      26.661   1.902  51.540  1.00  0.00     0.071 C 
BRANCH   6   7
HETATM    7  C9  UNL     1      26.497   2.740  50.512  1.00  0.00    -0.084 C 
BRANCH   7   8
HETATM    8  S1  UNL     1      26.256   4.059  49.605  1.00  0.00    -0.073 SA
HETATM    9  C3  UNL     1      25.228   5.436  50.092  1.00  0.00     0.098 A 
HETATM   10  N1  UNL     1      24.207   5.125  50.750  1.00  0.00    -0.257 NA
HETATM   11  C4  UNL     1      25.759   6.731  49.642  1.00  0.00     0.075 A 
HETATM   12  C5  UNL     1      26.863   6.943  48.951  1.00  0.00     0.071 A 
HETATM   13  C7  UNL     1      27.823   5.943  48.469  1.00  0.00     0.044 A 
HETATM   14  C8  UNL     1      27.688   4.601  48.684  1.00  0.00     0.056 A 
BRANCH  10  15
HETATM   15  C2  UNL     1      23.256   6.061  51.252  1.00  0.00     0.317 C 
BRANCH  15  16
HETATM   16  O1  UNL     1      22.185   6.149  50.381  1.00  0.00    -0.375 OA
HETATM   17  C1  UNL     1      21.431   5.021  50.259  1.00  0.00     0.203 C 
ENDBRANCH  15  16
ENDBRANCH  10  15
BRANCH  12  18
HETATM   18  O2  UNL     1      27.169   8.257  48.635  1.00  0.00    -0.356 OA
HETATM   19  C6  UNL     1      27.442   9.293  49.524  1.00  0.00     0.210 C 
ENDBRANCH  12  18
ENDBRANCH   7   8
ENDBRANCH   6   7
ENDBRANCH   4   6
BRANCH   5  20
HETATM   20  C15 UNL     1      27.240   0.341  52.811  1.00  0.00     0.012 C 
HETATM   21  C16 UNL     1      27.861  -0.700  53.387  1.00  0.00     0.054 C 
BRANCH  21  22
HETATM   22  N2  UNL     1      28.904  -1.700  53.322  1.00  0.00    -0.312 NA
HETATM   23  H18 UNL     1      29.424  -1.818  52.416  1.00  0.00     0.123 HD
HETATM   24  H19 UNL     1      29.416  -1.801  52.393  1.00  0.00     0.123 HD
ENDBRANCH  21  22
ENDBRANCH   5  20
ENDBRANCH   1   4
TORSDOF 9
ENDMDL
MODEL 8
REMARK VINA RESULT:      -5.9      4.528      7.202
REMARK  9 active torsions:
REMARK  status: ('A' for Active; 'I' for Inactive)
REMARK    1  A    between atoms: O1_2  and  C2_3 
REMARK    2  A    between atoms: C2_3  and  N1_4 
REMARK    3  A    between atoms: C5_7  and  O2_8 
REMARK    4  A    between atoms: S1_12  and  C9_13 
REMARK    5  A    between atoms: C9_13  and  C10_14 
REMARK    6  A    between atoms: C10_14  and  C11_15 
REMARK    7  A    between atoms: C11_15  and  C12_16 
REMARK    8  A    between atoms: C14_19  and  C15_20 
REMARK    9  A    between atoms: C16_21  and  N2_22 
ROOT
HETATM    1  C12 UNL     1      23.678   6.362  48.074  1.00  0.00     0.066 C 
HETATM    2  C13 UNL     1      22.964   6.813  49.109  1.00  0.00     0.201 C 
HETATM    3 CL1  UNL     1      21.817   7.399  50.330  1.00  0.00    -0.234 Cl
ENDROOT
BRANCH   1   4
HETATM    4  C11 UNL     1      24.862   6.408  48.879  1.00  0.00    -0.041 C 
HETATM    5  C14 UNL     1      25.332   7.669  48.713  1.00  0.00     0.009 C 
BRANCH   4   6
HETATM    6  C10 UNL     1      25.792   5.776  49.787  1.00  0.00     0.071 C 
BRANCH   6   7
HETATM    7  C9  UNL     1      25.662   4.474  50.059  1.00  0.00    -0.084 C 
BRANCH   7   8
HETATM    8  S1  UNL     1      25.061   3.007  50.386  1.00  0.00    -0.073 SA
HETATM    9  C3  UNL     1      25.324   2.135  51.923  1.00  0.00     0.098 A 
HETATM   10  N1  UNL     1      26.453   2.306  52.439  1.00  0.00    -0.257 NA
HETATM   11  C4  UNL     1      24.152   1.354  52.343  1.00  0.00     0.075 A 
HETATM   12  C5  UNL     1      22.996   1.252  51.715  1.00  0.00     0.071 A 
HETATM   13  C7  UNL     1      22.602   1.890  50.454  1.00  0.00     0.044 A 
HETATM   14  C8  UNL     1      23.423   2.711  49.734  1.00  0.00     0.056 A 
BRANCH  10  15
HETATM   15  C2  UNL     1      26.875   1.720  53.668  1.00  0.00     0.317 C 
BRANCH  15  16
HETATM   16  O1  UNL     1      28.005   2.369  54.131  1.00  0.00    -0.375 OA
HETATM   17  C1  UNL     1      29.141   1.617  54.171  1.00  0.00     0.203 C 
ENDBRANCH  15  16
ENDBRANCH  10  15
BRANCH  12  18
HETATM   18  O2  UNL     1      22.027   0.452  52.301  1.00  0.00    -0.356 OA
HETATM   19  C6  UNL     1      21.611   0.473  53.629  1.00  0.00     0.210 C 
ENDBRANCH  12  18
ENDBRANCH   7   8
ENDBRANCH   6   7
ENDBRANCH   4   6
BRANCH   5  20
HETATM   20  C15 UNL     1      26.513   7.725  49.527  1.00  0.00     0.012 C 
HETATM   21  C16 UNL     1      26.808   8.861  50.180  1.00  0.00     0.054 C 
BRANCH  21  22
HETATM   22  N2  UNL     1      27.701   9.573  51.067  1.00  0.00    -0.312 NA
HETATM   23  H18 UNL     1      28.243  10.386  50.679  1.00  0.00     0.123 HD
HETATM   24  H19 UNL     1      28.239  10.393  50.650  1.00  0.00     0.123 HD
ENDBRANCH  21  22
ENDBRANCH   5  20
ENDBRANCH   1   4
TORSDOF 9
ENDMDL
MODEL 9
REMARK VINA RESULT:      -5.7      3.876      6.115
REMARK  9 active torsions:
REMARK  status: ('A' for Active; 'I' for Inactive)
REMARK    1  A    between atoms: O1_2  and  C2_3 
REMARK    2  A    between atoms: C2_3  and  N1_4 
REMARK    3  A    between atoms: C5_7  and  O2_8 
REMARK    4  A    between atoms: S1_12  and  C9_13 
REMARK    5  A    between atoms: C9_13  and  C10_14 
REMARK    6  A    between atoms: C10_14  and  C11_15 
REMARK    7  A    between atoms: C11_15  and  C12_16 
REMARK    8  A    between atoms: C14_19  and  C15_20 
REMARK    9  A    between atoms: C16_21  and  N2_22 
ROOT
HETATM    1  C12 UNL     1      22.976   6.070  49.124  1.00  0.00     0.066 C 
HETATM    2  C13 UNL     1      22.815   5.749  47.837  1.00  0.00     0.201 C 
HETATM    3 CL1  UNL     1      22.405   5.479  46.131  1.00  0.00    -0.234 Cl
ENDROOT
BRANCH   1   4
HETATM    4  C11 UNL     1      24.109   5.195  49.195  1.00  0.00    -0.041 C 
HETATM    5  C14 UNL     1      25.149   5.958  48.777  1.00  0.00     0.009 C 
BRANCH   4   6
HETATM    6  C10 UNL     1      24.687   3.908  49.502  1.00  0.00     0.071 C 
BRANCH   6   7
HETATM    7  C9  UNL     1      24.001   3.043  50.257  1.00  0.00    -0.084 C 
BRANCH   7   8
HETATM    8  S1  UNL     1      23.492   1.709  51.018  1.00  0.00    -0.073 SA
HETATM    9  C3  UNL     1      24.393   0.897  52.330  1.00  0.00     0.098 A 
HETATM   10  N1  UNL     1      25.639   0.921  52.206  1.00  0.00    -0.257 NA
HETATM   11  C4  UNL     1      23.511   0.332  53.362  1.00  0.00     0.075 A 
HETATM   12  C5  UNL     1      22.192   0.374  53.394  1.00  0.00     0.071 A 
HETATM   13  C7  UNL     1      21.292   0.991  52.413  1.00  0.00     0.044 A 
HETATM   14  C8  UNL     1      21.727   1.632  51.287  1.00  0.00     0.056 A 
BRANCH  10  15
HETATM   15  C2  UNL     1      26.553   0.349  53.139  1.00  0.00     0.317 C 
BRANCH  15  16
HETATM   16  O1  UNL     1      27.356  -0.576  52.499  1.00  0.00    -0.375 OA
HETATM   17  C1  UNL     1      26.945  -1.873  52.586  1.00  0.00     0.203 C 
ENDBRANCH  15  16
ENDBRANCH  10  15
BRANCH  12  18
HETATM   18  O2  UNL     1      21.566  -0.231  54.472  1.00  0.00    -0.356 OA
HETATM   19  C6  UNL     1      21.207  -1.572  54.590  1.00  0.00     0.210 C 
ENDBRANCH  12  18
ENDBRANCH   7   8
ENDBRANCH   6   7
ENDBRANCH   4   6
BRANCH   5  20
HETATM   20  C15 UNL     1      26.289   5.090  48.857  1.00  0.00     0.012 C 
HETATM   21  C16 UNL     1      27.521   5.615  48.761  1.00  0.00     0.054 C 
BRANCH  21  22
HETATM   22  N2  UNL     1      28.952   5.401  48.754  1.00  0.00    -0.312 NA
HETATM   23  H18 UNL     1      29.406   5.049  49.634  1.00  0.00     0.123 HD
HETATM   24  H19 UNL     1      29.389   5.044  49.658  1.00  0.00     0.123 HD
ENDBRANCH  21  22
ENDBRANCH   5  20
ENDBRANCH   1   4
TORSDOF 9
ENDMDL
