MODEL 1
REMARK VINA RESULT:      -6.2      0.000      0.000
REMARK  7 active torsions:
REMARK  status: ('A' for Active; 'I' for Inactive)
REMARK    1  A    between atoms: P1_2  and  C2_3 
REMARK    2  A    between atoms: C4_5  and  O1_6 
REMARK    3  A    between atoms: C6_8  and  O2_9 
REMARK    4  A    between atoms: O2_9  and  C7_10 
REMARK    5  A    between atoms: C7_10  and  C8_11 
REMARK    6  A    between atoms: C8_11  and  C9_12 
REMARK    7  A    between atoms: C9_12  and  N1_13 
ROOT
HETATM    1  C2  UNL     1      27.161   0.791  54.164  1.00  0.00     0.152 C 
HETATM    2  C3  UNL     1      26.466   1.379  53.045  1.00  0.00     0.043 C 
HETATM    3  C4  UNL     1      25.290   1.414  52.415  1.00  0.00     0.100 C 
HETATM    4  C6  UNL     1      24.028   0.734  52.682  1.00  0.00     0.103 C 
HETATM    5  C15 UNL     1      23.614  -0.162  53.540  1.00  0.00     0.060 C 
HETATM    6  C16 UNL     1      24.354  -0.846  54.623  1.00  0.00     0.141 C 
HETATM    7  N3  UNL     1      25.557  -1.007  55.060  1.00  0.00    -0.191 NA
HETATM    8  N4  UNL     1      26.782  -0.517  54.594  1.00  0.00    -0.302 N 
HETATM    9  H27 UNL     1      27.560  -1.244  54.556  1.00  0.00     0.183 HD
ENDROOT
BRANCH   4  10
HETATM   10  O2  UNL     1      22.973   1.085  51.853  1.00  0.00    -0.348 OA
BRANCH  10  11
HETATM   11  C7  UNL     1      21.636   0.875  52.204  1.00  0.00     0.177 C 
BRANCH  11  12
HETATM   12  C8  UNL     1      20.998   2.265  52.325  1.00  0.00     0.057 C 
BRANCH  12  13
HETATM   13  C9  UNL     1      21.512   3.050  51.126  1.00  0.00     0.274 C 
BRANCH  13  14
HETATM   14  N1  UNL     1      21.657   4.442  51.467  1.00  0.00     0.091 N 
HETATM   15  C10 UNL     1      22.873   4.754  52.154  1.00  0.00     0.302 C 
HETATM   16  C11 UNL     1      23.772   5.702  51.406  1.00  0.00     0.302 C 
HETATM   17  N2  UNL     1      23.098   6.893  50.983  1.00  0.00     0.087 N 
HETATM   18  C12 UNL     1      23.628   7.426  49.744  1.00  0.00     0.310 C 
HETATM   19  C13 UNL     1      21.678   6.748  50.872  1.00  0.00     0.302 C 
HETATM   20  C14 UNL     1      21.382   5.336  50.373  1.00  0.00     0.302 C 
ENDBRANCH  13  14
ENDBRANCH  12  13
ENDBRANCH  11  12
ENDBRANCH  10  11
ENDBRANCH   4  10
BRANCH   3  21
HETATM   21  O1  UNL     1      25.165   2.233  51.276  1.00  0.00    -0.353 OA
HETATM   22  C5  UNL     1      26.373   2.887  50.884  1.00  0.00     0.210 C 
ENDBRANCH   3  21
BRANCH   1  23
HETATM   23  P1  UNL     1      28.988   0.789  53.823  1.00  0.00    -0.090 P 
HETATM   24  C1  UNL     1      29.758  -0.685  53.678  1.00  0.00     0.089 C 
ENDBRANCH   1  23
TORSDOF 7
ENDMDL
MODEL 2
REMARK VINA RESULT:      -6.1      2.105      2.681
REMARK  7 active torsions:
REMARK  status: ('A' for Active; 'I' for Inactive)
REMARK    1  A    between atoms: P1_2  and  C2_3 
REMARK    2  A    between atoms: C4_5  and  O1_6 
REMARK    3  A    between atoms: C6_8  and  O2_9 
REMARK    4  A    between atoms: O2_9  and  C7_10 
REMARK    5  A    between atoms: C7_10  and  C8_11 
REMARK    6  A    between atoms: C8_11  and  C9_12 
REMARK    7  A    between atoms: C9_12  and  N1_13 
ROOT
HETATM    1  C2  UNL     1      26.208   0.621  54.322  1.00  0.00     0.152 C 
HETATM    2  C3  UNL     1      25.253   0.851  53.265  1.00  0.00     0.043 C 
HETATM    3  C4  UNL     1      24.011   0.570  52.866  1.00  0.00     0.100 C 
HETATM    4  C6  UNL     1      22.957  -0.233  53.476  1.00  0.00     0.103 C 
HETATM    5  C15 UNL     1      22.856  -0.990  54.538  1.00  0.00     0.060 C 
HETATM    6  C16 UNL     1      23.867  -1.313  55.567  1.00  0.00     0.141 C 
HETATM    7  N3  UNL     1      25.131  -1.188  55.797  1.00  0.00    -0.191 NA
HETATM    8  N4  UNL     1      26.155  -0.615  55.035  1.00  0.00    -0.302 N 
HETATM    9  H27 UNL     1      27.043  -1.201  54.981  1.00  0.00     0.183 HD
ENDROOT
BRANCH   4  10
HETATM   10  O2  UNL     1      21.742  -0.230  52.807  1.00  0.00    -0.348 OA
BRANCH  10  11
HETATM   11  C7  UNL     1      20.565   0.253  53.385  1.00  0.00     0.177 C 
BRANCH  11  12
HETATM   12  C8  UNL     1      19.920   1.176  52.344  1.00  0.00     0.057 C 
BRANCH  12  13
HETATM   13  C9  UNL     1      20.172   0.506  51.000  1.00  0.00     0.274 C 
BRANCH  13  14
HETATM   14  N1  UNL     1      20.048   1.467  49.933  1.00  0.00     0.091 N 
HETATM   15  C10 UNL     1      19.845   2.813  50.376  1.00  0.00     0.302 C 
HETATM   16  C11 UNL     1      20.947   3.759  49.980  1.00  0.00     0.302 C 
HETATM   17  N2  UNL     1      21.242   3.716  48.579  1.00  0.00     0.087 N 
HETATM   18  C12 UNL     1      22.637   3.990  48.292  1.00  0.00     0.310 C 
HETATM   19  C13 UNL     1      20.854   2.494  47.942  1.00  0.00     0.302 C 
HETATM   20  C14 UNL     1      21.074   1.352  48.931  1.00  0.00     0.302 C 
ENDBRANCH  13  14
ENDBRANCH  12  13
ENDBRANCH  11  12
ENDBRANCH  10  11
ENDBRANCH   4  10
BRANCH   3  21
HETATM   21  O1  UNL     1      23.562   1.109  51.645  1.00  0.00    -0.353 OA
HETATM   22  C5  UNL     1      24.172   2.350  51.289  1.00  0.00     0.210 C 
ENDBRANCH   3  21
BRANCH   1  23
HETATM   23  P1  UNL     1      27.930   0.840  53.656  1.00  0.00    -0.090 P 
HETATM   24  C1  UNL     1      29.123  -0.186  54.212  1.00  0.00     0.089 C 
ENDBRANCH   1  23
TORSDOF 7
ENDMDL
MODEL 3
REMARK VINA RESULT:      -6.1      3.965      7.097
REMARK  7 active torsions:
REMARK  status: ('A' for Active; 'I' for Inactive)
REMARK    1  A    between atoms: P1_2  and  C2_3 
REMARK    2  A    between atoms: C4_5  and  O1_6 
REMARK    3  A    between atoms: C6_8  and  O2_9 
REMARK    4  A    between atoms: O2_9  and  C7_10 
REMARK    5  A    between atoms: C7_10  and  C8_11 
REMARK    6  A    between atoms: C8_11  and  C9_12 
REMARK    7  A    between atoms: C9_12  and  N1_13 
ROOT
HETATM    1  C2  UNL     1      19.323  -1.191  52.950  1.00  0.00     0.152 C 
HETATM    2  C3  UNL     1      19.755   0.003  52.265  1.00  0.00     0.043 C 
HETATM    3  C4  UNL     1      20.788   0.835  52.113  1.00  0.00     0.100 C 
HETATM    4  C6  UNL     1      22.121   0.839  52.702  1.00  0.00     0.103 C 
HETATM    5  C15 UNL     1      22.749   0.121  53.598  1.00  0.00     0.060 C 
HETATM    6  C16 UNL     1      22.273  -1.039  54.381  1.00  0.00     0.141 C 
HETATM    7  N3  UNL     1      21.186  -1.680  54.652  1.00  0.00    -0.191 NA
HETATM    8  N4  UNL     1      19.865  -1.473  54.241  1.00  0.00    -0.302 N 
HETATM    9  H27 UNL     1      19.145  -1.539  55.024  1.00  0.00     0.183 HD
ENDROOT
BRANCH   4  10
HETATM   10  O2  UNL     1      22.977   1.827  52.237  1.00  0.00    -0.348 OA
BRANCH  10  11
HETATM   11  C7  UNL     1      24.029   2.335  53.004  1.00  0.00     0.177 C 
BRANCH  11  12
HETATM   12  C8  UNL     1      25.130   2.737  52.014  1.00  0.00     0.057 C 
BRANCH  12  13
HETATM   13  C9  UNL     1      25.875   1.449  51.695  1.00  0.00     0.274 C 
BRANCH  13  14
HETATM   14  N1  UNL     1      26.463   0.904  52.892  1.00  0.00     0.091 N 
HETATM   15  C10 UNL     1      26.379  -0.521  52.991  1.00  0.00     0.302 C 
HETATM   16  C11 UNL     1      27.717  -1.212  53.018  1.00  0.00     0.302 C 
HETATM   17  N2  UNL     1      28.601  -0.678  54.009  1.00  0.00     0.087 N 
HETATM   18  C12 UNL     1      29.995  -0.758  53.619  1.00  0.00     0.310 C 
HETATM   19  C13 UNL     1      28.291   0.665  54.400  1.00  0.00     0.302 C 
HETATM   20  C14 UNL     1      27.781   1.412  53.170  1.00  0.00     0.302 C 
ENDBRANCH  13  14
ENDBRANCH  12  13
ENDBRANCH  11  12
ENDBRANCH  10  11
ENDBRANCH   4  10
BRANCH   3  21
HETATM   21  O1  UNL     1      20.642   1.931  51.242  1.00  0.00    -0.353 OA
HETATM   22  C5  UNL     1      20.021   1.615  49.994  1.00  0.00     0.210 C 
ENDBRANCH   3  21
BRANCH   1  23
HETATM   23  P1  UNL     1      17.469  -1.191  53.081  1.00  0.00    -0.090 P 
HETATM   24  C1  UNL     1      16.670  -2.646  52.907  1.00  0.00     0.089 C 
ENDBRANCH   1  23
TORSDOF 7
ENDMDL
MODEL 4
REMARK VINA RESULT:      -5.9      2.691      3.814
REMARK  7 active torsions:
REMARK  status: ('A' for Active; 'I' for Inactive)
REMARK    1  A    between atoms: P1_2  and  C2_3 
REMARK    2  A    between atoms: C4_5  and  O1_6 
REMARK    3  A    between atoms: C6_8  and  O2_9 
REMARK    4  A    between atoms: O2_9  and  C7_10 
REMARK    5  A    between atoms: C7_10  and  C8_11 
REMARK    6  A    between atoms: C8_11  and  C9_12 
REMARK    7  A    between atoms: C9_12  and  N1_13 
ROOT
HETATM    1  C2  UNL     1      26.055   0.504  54.230  1.00  0.00     0.152 C 
HETATM    2  C3  UNL     1      25.118   0.805  53.176  1.00  0.00     0.043 C 
HETATM    3  C4  UNL     1      23.864   0.596  52.768  1.00  0.00     0.100 C 
HETATM    4  C6  UNL     1      22.769  -0.164  53.357  1.00  0.00     0.103 C 
HETATM    5  C15 UNL     1      22.625  -0.937  54.403  1.00  0.00     0.060 C 
HETATM    6  C16 UNL     1      23.614  -1.333  55.428  1.00  0.00     0.141 C 
HETATM    7  N3  UNL     1      24.882  -1.278  55.664  1.00  0.00    -0.191 NA
HETATM    8  N4  UNL     1      25.937  -0.743  54.917  1.00  0.00    -0.302 N 
HETATM    9  H27 UNL     1      26.794  -1.372  54.853  1.00  0.00     0.183 HD
ENDROOT
BRANCH   4  10
HETATM   10  O2  UNL     1      21.558  -0.086  52.685  1.00  0.00    -0.348 OA
BRANCH  10  11
HETATM   11  C7  UNL     1      20.326  -0.204  53.336  1.00  0.00     0.177 C 
BRANCH  11  12
HETATM   12  C8  UNL     1      19.250   0.049  52.272  1.00  0.00     0.057 C 
BRANCH  12  13
HETATM   13  C9  UNL     1      19.967   0.766  51.136  1.00  0.00     0.274 C 
BRANCH  13  14
HETATM   14  N1  UNL     1      19.151   1.842  50.633  1.00  0.00     0.091 N 
HETATM   15  C10 UNL     1      17.907   1.419  50.066  1.00  0.00     0.302 C 
HETATM   16  C11 UNL     1      16.696   1.948  50.786  1.00  0.00     0.302 C 
HETATM   17  N2  UNL     1      16.726   3.370  50.960  1.00  0.00     0.087 N 
HETATM   18  C12 UNL     1      16.061   3.800  52.173  1.00  0.00     0.310 C 
HETATM   19  C13 UNL     1      18.043   3.931  50.912  1.00  0.00     0.302 C 
HETATM   20  C14 UNL     1      19.007   2.937  51.555  1.00  0.00     0.302 C 
ENDBRANCH  13  14
ENDBRANCH  12  13
ENDBRANCH  11  12
ENDBRANCH  10  11
ENDBRANCH   4  10
BRANCH   3  21
HETATM   21  O1  UNL     1      23.448   1.182  51.557  1.00  0.00    -0.353 OA
HETATM   22  C5  UNL     1      23.645   2.596  51.489  1.00  0.00     0.210 C 
ENDBRANCH   3  21
BRANCH   1  23
HETATM   23  P1  UNL     1      27.788   0.649  53.574  1.00  0.00    -0.090 P 
HETATM   24  C1  UNL     1      28.909  -0.489  54.060  1.00  0.00     0.089 C 
ENDBRANCH   1  23
TORSDOF 7
ENDMDL
MODEL 5
REMARK VINA RESULT:      -5.8      3.863      5.708
REMARK  7 active torsions:
REMARK  status: ('A' for Active; 'I' for Inactive)
REMARK    1  A    between atoms: P1_2  and  C2_3 
REMARK    2  A    between atoms: C4_5  and  O1_6 
REMARK    3  A    between atoms: C6_8  and  O2_9 
REMARK    4  A    between atoms: O2_9  and  C7_10 
REMARK    5  A    between atoms: C7_10  and  C8_11 
REMARK    6  A    between atoms: C8_11  and  C9_12 
REMARK    7  A    between atoms: C9_12  and  N1_13 
ROOT
HETATM    1  C2  UNL     1      23.216   0.038  52.999  1.00  0.00     0.152 C 
HETATM    2  C3  UNL     1      23.124   1.352  52.410  1.00  0.00     0.043 C 
HETATM    3  C4  UNL     1      23.836   2.306  51.806  1.00  0.00     0.100 C 
HETATM    4  C6  UNL     1      25.248   2.382  51.453  1.00  0.00     0.103 C 
HETATM    5  C15 UNL     1      26.300   1.627  51.642  1.00  0.00     0.060 C 
HETATM    6  C16 UNL     1      26.418   0.328  52.339  1.00  0.00     0.141 C 
HETATM    7  N3  UNL     1      25.736  -0.459  53.101  1.00  0.00    -0.191 NA
HETATM    8  N4  UNL     1      24.442  -0.349  53.622  1.00  0.00    -0.302 N 
HETATM    9  H27 UNL     1      24.361  -0.595  54.655  1.00  0.00     0.183 HD
ENDROOT
BRANCH   4  10
HETATM   10  O2  UNL     1      25.627   3.511  50.742  1.00  0.00    -0.348 OA
BRANCH  10  11
HETATM   11  C7  UNL     1      26.383   3.444  49.568  1.00  0.00     0.177 C 
BRANCH  11  12
HETATM   12  C8  UNL     1      26.569   4.890  49.092  1.00  0.00     0.057 C 
BRANCH  12  13
HETATM   13  C9  UNL     1      27.989   4.955  48.547  1.00  0.00     0.274 C 
BRANCH  13  14
HETATM   14  N1  UNL     1      28.244   6.252  47.972  1.00  0.00     0.091 N 
HETATM   15  C10 UNL     1      27.268   7.244  48.306  1.00  0.00     0.302 C 
HETATM   16  C11 UNL     1      27.820   8.405  49.090  1.00  0.00     0.302 C 
HETATM   17  N2  UNL     1      28.968   8.998  48.472  1.00  0.00     0.087 N 
HETATM   18  C12 UNL     1      29.901   9.548  49.436  1.00  0.00     0.310 C 
HETATM   19  C13 UNL     1      29.665   8.121  47.580  1.00  0.00     0.302 C 
HETATM   20  C14 UNL     1      29.596   6.708  48.152  1.00  0.00     0.302 C 
ENDBRANCH  13  14
ENDBRANCH  12  13
ENDBRANCH  11  12
ENDBRANCH  10  11
ENDBRANCH   4  10
BRANCH   3  21
HETATM   21  O1  UNL     1      23.175   3.484  51.409  1.00  0.00    -0.353 OA
HETATM   22  C5  UNL     1      22.040   3.822  52.208  1.00  0.00     0.210 C 
ENDBRANCH   3  21
BRANCH   1  23
HETATM   23  P1  UNL     1      21.840  -0.185  54.228  1.00  0.00    -0.090 P 
HETATM   24  C1  UNL     1      21.023  -1.640  54.236  1.00  0.00     0.089 C 
ENDBRANCH   1  23
TORSDOF 7
ENDMDL
MODEL 6
REMARK VINA RESULT:      -5.7      3.215      4.837
REMARK  7 active torsions:
REMARK  status: ('A' for Active; 'I' for Inactive)
REMARK    1  A    between atoms: P1_2  and  C2_3 
REMARK    2  A    between atoms: C4_5  and  O1_6 
REMARK    3  A    between atoms: C6_8  and  O2_9 
REMARK    4  A    between atoms: O2_9  and  C7_10 
REMARK    5  A    between atoms: C7_10  and  C8_11 
REMARK    6  A    between atoms: C8_11  and  C9_12 
REMARK    7  A    between atoms: C9_12  and  N1_13 
ROOT
HETATM    1  C2  UNL     1      27.177   0.830  54.348  1.00  0.00     0.152 C 
HETATM    2  C3  UNL     1      26.509   1.396  53.202  1.00  0.00     0.043 C 
HETATM    3  C4  UNL     1      25.359   1.392  52.524  1.00  0.00     0.100 C 
HETATM    4  C6  UNL     1      24.112   0.670  52.739  1.00  0.00     0.103 C 
HETATM    5  C15 UNL     1      23.693  -0.241  53.580  1.00  0.00     0.060 C 
HETATM    6  C16 UNL     1      24.410  -0.901  54.692  1.00  0.00     0.141 C 
HETATM    7  N3  UNL     1      25.600  -1.022  55.178  1.00  0.00    -0.191 NA
HETATM    8  N4  UNL     1      26.825  -0.491  54.763  1.00  0.00    -0.302 N 
HETATM    9  H27 UNL     1      27.629  -1.190  54.757  1.00  0.00     0.183 HD
ENDROOT
BRANCH   4  10
HETATM   10  O2  UNL     1      23.080   0.985  51.867  1.00  0.00    -0.348 OA
BRANCH  10  11
HETATM   11  C7  UNL     1      21.784   1.272  52.305  1.00  0.00     0.177 C 
BRANCH  11  12
HETATM   12  C8  UNL     1      20.855   0.291  51.579  1.00  0.00     0.057 C 
BRANCH  12  13
HETATM   13  C9  UNL     1      19.557   1.055  51.356  1.00  0.00     0.274 C 
BRANCH  13  14
HETATM   14  N1  UNL     1      18.518   0.155  50.923  1.00  0.00     0.091 N 
HETATM   15  C10 UNL     1      17.892  -0.573  51.985  1.00  0.00     0.302 C 
HETATM   16  C11 UNL     1      16.424  -0.281  52.142  1.00  0.00     0.302 C 
HETATM   17  N2  UNL     1      15.692  -0.423  50.919  1.00  0.00     0.087 N 
HETATM   18  C12 UNL     1      14.563   0.482  50.834  1.00  0.00     0.310 C 
HETATM   19  C13 UNL     1      16.499  -0.291  49.743  1.00  0.00     0.302 C 
HETATM   20  C14 UNL     1      17.574   0.756  50.018  1.00  0.00     0.302 C 
ENDBRANCH  13  14
ENDBRANCH  12  13
ENDBRANCH  11  12
ENDBRANCH  10  11
ENDBRANCH   4  10
BRANCH   3  21
HETATM   21  O1  UNL     1      25.253   2.207  51.381  1.00  0.00    -0.353 OA
HETATM   22  C5  UNL     1      26.505   2.665  50.865  1.00  0.00     0.210 C 
ENDBRANCH   3  21
BRANCH   1  23
HETATM   23  P1  UNL     1      29.016   0.891  54.084  1.00  0.00    -0.090 P 
HETATM   24  C1  UNL     1      29.804  -0.536  53.725  1.00  0.00     0.089 C 
ENDBRANCH   1  23
TORSDOF 7
ENDMDL
MODEL 7
REMARK VINA RESULT:      -5.7      3.336      7.010
REMARK  7 active torsions:
REMARK  status: ('A' for Active; 'I' for Inactive)
REMARK    1  A    between atoms: P1_2  and  C2_3 
REMARK    2  A    between atoms: C4_5  and  O1_6 
REMARK    3  A    between atoms: C6_8  and  O2_9 
REMARK    4  A    between atoms: O2_9  and  C7_10 
REMARK    5  A    between atoms: C7_10  and  C8_11 
REMARK    6  A    between atoms: C8_11  and  C9_12 
REMARK    7  A    between atoms: C9_12  and  N1_13 
ROOT
HETATM    1  C2  UNL     1      20.903   2.219  48.169  1.00  0.00     0.152 C 
HETATM    2  C3  UNL     1      22.063   2.374  49.014  1.00  0.00     0.043 C 
HETATM    3  C4  UNL     1      22.567   2.053  50.207  1.00  0.00     0.100 C 
HETATM    4  C6  UNL     1      22.021   1.273  51.311  1.00  0.00     0.103 C 
HETATM    5  C15 UNL     1      20.878   0.689  51.565  1.00  0.00     0.060 C 
HETATM    6  C16 UNL     1      19.650   0.618  50.746  1.00  0.00     0.141 C 
HETATM    7  N3  UNL     1      19.132   1.132  49.681  1.00  0.00    -0.191 NA
HETATM    8  N4  UNL     1      19.621   2.087  48.784  1.00  0.00    -0.302 N 
HETATM    9  H27 UNL     1      18.917   2.840  48.516  1.00  0.00     0.183 HD
ENDROOT
BRANCH   4  10
HETATM   10  O2  UNL     1      22.879   1.070  52.381  1.00  0.00    -0.348 OA
BRANCH  10  11
HETATM   11  C7  UNL     1      22.725   0.010  53.280  1.00  0.00     0.177 C 
BRANCH  11  12
HETATM   12  C8  UNL     1      24.127  -0.308  53.816  1.00  0.00     0.057 C 
BRANCH  12  13
HETATM   13  C9  UNL     1      25.090   0.188  52.746  1.00  0.00     0.274 C 
BRANCH  13  14
HETATM   14  N1  UNL     1      26.171   0.924  53.351  1.00  0.00     0.091 N 
HETATM   15  C10 UNL     1      26.523   0.477  54.664  1.00  0.00     0.302 C 
HETATM   16  C11 UNL     1      27.928  -0.052  54.773  1.00  0.00     0.302 C 
HETATM   17  N2  UNL     1      28.908   0.856  54.258  1.00  0.00     0.087 N 
HETATM   18  C12 UNL     1      30.055   0.178  53.687  1.00  0.00     0.310 C 
HETATM   19  C13 UNL     1      28.386   1.794  53.309  1.00  0.00     0.302 C 
HETATM   20  C14 UNL     1      27.310   1.091  52.487  1.00  0.00     0.302 C 
ENDBRANCH  13  14
ENDBRANCH  12  13
ENDBRANCH  11  12
ENDBRANCH  10  11
ENDBRANCH   4  10
BRANCH   3  21
HETATM   21  O1  UNL     1      23.857   2.514  50.534  1.00  0.00    -0.353 OA
HETATM   22  C5  UNL     1      23.961   3.934  50.661  1.00  0.00     0.210 C 
ENDBRANCH   3  21
BRANCH   1  23
HETATM   23  P1  UNL     1      20.830   3.626  46.957  1.00  0.00    -0.090 P 
HETATM   24  C1  UNL     1      21.927   3.636  45.699  1.00  0.00     0.089 C 
ENDBRANCH   1  23
TORSDOF 7
ENDMDL
MODEL 8
REMARK VINA RESULT:      -5.5      2.849      5.024
REMARK  7 active torsions:
REMARK  status: ('A' for Active; 'I' for Inactive)
REMARK    1  A    between atoms: P1_2  and  C2_3 
REMARK    2  A    between atoms: C4_5  and  O1_6 
REMARK    3  A    between atoms: C6_8  and  O2_9 
REMARK    4  A    between atoms: O2_9  and  C7_10 
REMARK    5  A    between atoms: C7_10  and  C8_11 
REMARK    6  A    between atoms: C8_11  and  C9_12 
REMARK    7  A    between atoms: C9_12  and  N1_13 
ROOT
HETATM    1  C2  UNL     1      26.907   0.788  52.767  1.00  0.00     0.152 C 
HETATM    2  C3  UNL     1      25.499   0.693  53.062  1.00  0.00     0.043 C 
HETATM    3  C4  UNL     1      24.299   1.168  52.719  1.00  0.00     0.100 C 
HETATM    4  C6  UNL     1      23.898   2.153  51.722  1.00  0.00     0.103 C 
HETATM    5  C15 UNL     1      24.522   2.945  50.888  1.00  0.00     0.060 C 
HETATM    6  C16 UNL     1      25.971   3.122  50.658  1.00  0.00     0.141 C 
HETATM    7  N3  UNL     1      27.109   2.792  51.171  1.00  0.00    -0.191 NA
HETATM    8  N4  UNL     1      27.427   2.035  52.303  1.00  0.00    -0.302 N 
HETATM    9  H27 UNL     1      28.184   2.461  52.919  1.00  0.00     0.183 HD
ENDROOT
BRANCH   4  10
HETATM   10  O2  UNL     1      22.530   2.336  51.581  1.00  0.00    -0.348 OA
BRANCH  10  11
HETATM   11  C7  UNL     1      21.917   3.583  51.738  1.00  0.00     0.177 C 
BRANCH  11  12
HETATM   12  C8  UNL     1      20.609   3.524  50.940  1.00  0.00     0.057 C 
BRANCH  12  13
HETATM   13  C9  UNL     1      19.587   2.908  51.886  1.00  0.00     0.274 C 
BRANCH  13  14
HETATM   14  N1  UNL     1      19.134   1.640  51.374  1.00  0.00     0.091 N 
HETATM   15  C10 UNL     1      19.819   0.508  51.919  1.00  0.00     0.302 C 
HETATM   16  C11 UNL     1      18.931  -0.429  52.693  1.00  0.00     0.302 C 
HETATM   17  N2  UNL     1      17.772  -0.835  51.956  1.00  0.00     0.087 N 
HETATM   18  C12 UNL     1      16.625  -1.081  52.807  1.00  0.00     0.310 C 
HETATM   19  C13 UNL     1      17.404   0.072  50.909  1.00  0.00     0.302 C 
HETATM   20  C14 UNL     1      17.703   1.491  51.383  1.00  0.00     0.302 C 
ENDBRANCH  13  14
ENDBRANCH  12  13
ENDBRANCH  11  12
ENDBRANCH  10  11
ENDBRANCH   4  10
BRANCH   3  21
HETATM   21  O1  UNL     1      23.167   0.679  53.398  1.00  0.00    -0.353 OA
HETATM   22  C5  UNL     1      23.078  -0.747  53.446  1.00  0.00     0.210 C 
ENDBRANCH   3  21
BRANCH   1  23
HETATM   23  P1  UNL     1      27.887   0.264  54.257  1.00  0.00    -0.090 P 
HETATM   24  C1  UNL     1      29.429  -0.327  54.015  1.00  0.00     0.089 C 
ENDBRANCH   1  23
TORSDOF 7
ENDMDL
MODEL 9
REMARK VINA RESULT:      -5.5      2.127      2.533
REMARK  7 active torsions:
REMARK  status: ('A' for Active; 'I' for Inactive)
REMARK    1  A    between atoms: P1_2  and  C2_3 
REMARK    2  A    between atoms: C4_5  and  O1_6 
REMARK    3  A    between atoms: C6_8  and  O2_9 
REMARK    4  A    between atoms: O2_9  and  C7_10 
REMARK    5  A    between atoms: C7_10  and  C8_11 
REMARK    6  A    between atoms: C8_11  and  C9_12 
REMARK    7  A    between atoms: C9_12  and  N1_13 
ROOT
HETATM    1  C2  UNL     1      27.425   0.662  54.092  1.00  0.00     0.152 C 
HETATM    2  C3  UNL     1      26.810   1.134  52.875  1.00  0.00     0.043 C 
HETATM    3  C4  UNL     1      25.659   1.166  52.201  1.00  0.00     0.100 C 
HETATM    4  C6  UNL     1      24.340   0.628  52.513  1.00  0.00     0.103 C 
HETATM    5  C15 UNL     1      23.832  -0.101  53.473  1.00  0.00     0.060 C 
HETATM    6  C16 UNL     1      24.484  -0.675  54.669  1.00  0.00     0.141 C 
HETATM    7  N3  UNL     1      25.658  -0.861  55.171  1.00  0.00    -0.191 NA
HETATM    8  N4  UNL     1      26.931  -0.538  54.688  1.00  0.00    -0.302 N 
HETATM    9  H27 UNL     1      27.649  -1.319  54.784  1.00  0.00     0.183 HD
ENDROOT
BRANCH   4  10
HETATM   10  O2  UNL     1      23.339   0.934  51.602  1.00  0.00    -0.348 OA
BRANCH  10  11
HETATM   11  C7  UNL     1      22.252   1.752  51.923  1.00  0.00     0.177 C 
BRANCH  11  12
HETATM   12  C8  UNL     1      22.256   2.896  50.902  1.00  0.00     0.057 C 
BRANCH  12  13
HETATM   13  C9  UNL     1      22.405   2.224  49.544  1.00  0.00     0.274 C 
BRANCH  13  14
HETATM   14  N1  UNL     1      22.710   3.205  48.533  1.00  0.00     0.091 N 
HETATM   15  C10 UNL     1      22.367   2.803  47.203  1.00  0.00     0.302 C 
HETATM   16  C11 UNL     1      21.326   3.673  46.551  1.00  0.00     0.302 C 
HETATM   17  N2  UNL     1      21.653   5.066  46.600  1.00  0.00     0.087 N 
HETATM   18  C12 UNL     1      20.480   5.914  46.677  1.00  0.00     0.310 C 
HETATM   19  C13 UNL     1      22.562   5.412  47.652  1.00  0.00     0.302 C 
HETATM   20  C14 UNL     1      22.251   4.530  48.858  1.00  0.00     0.302 C 
ENDBRANCH  13  14
ENDBRANCH  12  13
ENDBRANCH  11  12
ENDBRANCH  10  11
ENDBRANCH   4  10
BRANCH   3  21
HETATM   21  O1  UNL     1      25.631   1.818  50.953  1.00  0.00    -0.353 OA
HETATM   22  C5  UNL     1      26.243   3.110  50.950  1.00  0.00     0.210 C 
ENDBRANCH   3  21
BRANCH   1  23
HETATM   23  P1  UNL     1      29.255   0.474  53.827  1.00  0.00    -0.090 P 
HETATM   24  C1  UNL     1      29.851  -1.055  53.521  1.00  0.00     0.089 C 
ENDBRANCH   1  23
TORSDOF 7
ENDMDL
