MODEL 1
REMARK VINA RESULT:      -7.7      0.000      0.000
REMARK  7 active torsions:
REMARK  status: ('A' for Active; 'I' for Inactive)
REMARK    1  A    between atoms: N1_2  and  C2_3 
REMARK    2  A    between atoms: C2_3  and  C3_4 
REMARK    3  A    between atoms: C4_5  and  C5_6 
REMARK       I    between atoms: C5_6  and  N2_8 
REMARK    4  A    between atoms: C12_17  and  C13_18 
REMARK    5  A    between atoms: C19_27  and  O2_28 
REMARK    6  A    between atoms: O2_28  and  C20_29 
REMARK    7  A    between atoms: C20_29  and  C21_30 
ROOT
HETATM    1  C5  UNL     1      27.817   5.289  48.488  1.00  0.00     0.243 C 
HETATM    2  O1  UNL     1      28.952   4.785  48.240  1.00  0.00    -0.268 OA
HETATM    3  N2  UNL     1      27.884   6.578  47.849  1.00  0.00    -0.340 N 
HETATM    4  C6  UNL     1      29.161   6.801  47.200  1.00  0.00     0.169 C 
HETATM    5  C7  UNL     1      29.898   7.709  48.143  1.00  0.00     0.018 A 
HETATM    6  C8  UNL     1      29.488   8.594  49.096  1.00  0.00     0.134 A 
HETATM    7  N3  UNL     1      30.330   9.322  49.843  1.00  0.00    -0.241 NA
HETATM    8  C9  UNL     1      31.670   9.188  49.661  1.00  0.00     0.142 A 
HETATM    9  C10 UNL     1      32.092   8.299  48.705  1.00  0.00     0.073 A 
HETATM   10  C11 UNL     1      33.519   8.151  48.504  1.00  0.00     0.102 C 
HETATM   11  N4  UNL     1      34.663   8.030  48.362  1.00  0.00    -0.191 NA
HETATM   12  C12 UNL     1      31.246   7.522  47.905  1.00  0.00     0.008 A 
HETATM   13  N5  UNL     1      28.158   8.873  49.431  1.00  0.00    -0.346 N 
HETATM   14  C19 UNL     1      26.846   8.508  48.977  1.00  0.00     0.240 C 
HETATM   15  C22 UNL     1      26.795   7.517  47.874  1.00  0.00     0.180 C 
HETATM   16  H15 UNL     1      28.002   9.539  50.247  1.00  0.00     0.163 HD
ENDROOT
BRANCH  12  17
HETATM   17  C13 UNL     1      31.830   6.610  46.919  1.00  0.00    -0.022 A 
HETATM   18  C14 UNL     1      32.074   7.131  45.648  1.00  0.00     0.015 A 
HETATM   19  C15 UNL     1      32.626   6.285  44.703  1.00  0.00     0.045 A 
HETATM   20  C16 UNL     1      32.926   4.973  45.000  1.00  0.00     0.138 A 
HETATM   21  F1  UNL     1      33.473   4.154  44.044  1.00  0.00    -0.204 F 
HETATM   22  C17 UNL     1      32.682   4.450  46.269  1.00  0.00     0.073 A 
HETATM   23 CL1  UNL     1      33.066   2.780  46.641  1.00  0.00    -0.081 Cl
HETATM   24  C18 UNL     1      32.125   5.297  47.232  1.00  0.00     0.039 A 
ENDBRANCH  12  17
BRANCH  14  25
HETATM   25  O2  UNL     1      26.145   8.032  50.061  1.00  0.00    -0.363 OA
BRANCH  25  26
HETATM   26  C20 UNL     1      24.859   8.407  50.230  1.00  0.00     0.201 C 
BRANCH  26  27
HETATM   27  C21 UNL     1      23.986   7.405  50.938  1.00  0.00     0.248 C 
HETATM   28  F2  UNL     1      24.580   6.261  51.339  1.00  0.00    -0.253 F 
ENDBRANCH  26  27
ENDBRANCH  25  26
ENDBRANCH  14  25
BRANCH   1  29
HETATM   29  C4  UNL     1      26.754   4.646  49.247  1.00  0.00     0.072 C 
HETATM   30  C3  UNL     1      26.333   3.443  49.674  1.00  0.00     0.008 C 
BRANCH  30  31
HETATM   31  C2  UNL     1      25.117   3.178  50.480  1.00  0.00     0.296 C 
BRANCH  31  32
HETATM   32  N1  UNL     1      25.423   3.158  51.907  1.00  0.00     0.082 N 
HETATM   33  C1  UNL     1      24.211   3.154  52.676  1.00  0.00     0.307 C 
HETATM   34  H4  UNL     1      26.100   3.890  52.152  1.00  0.00     0.315 HD
ENDBRANCH  31  32
ENDBRANCH  30  31
ENDBRANCH   1  29
TORSDOF 7
ENDMDL
MODEL 2
REMARK VINA RESULT:      -7.1      2.157      3.184
REMARK  7 active torsions:
REMARK  status: ('A' for Active; 'I' for Inactive)
REMARK    1  A    between atoms: N1_2  and  C2_3 
REMARK    2  A    between atoms: C2_3  and  C3_4 
REMARK    3  A    between atoms: C4_5  and  C5_6 
REMARK       I    between atoms: C5_6  and  N2_8 
REMARK    4  A    between atoms: C12_17  and  C13_18 
REMARK    5  A    between atoms: C19_27  and  O2_28 
REMARK    6  A    between atoms: O2_28  and  C20_29 
REMARK    7  A    between atoms: C20_29  and  C21_30 
ROOT
HETATM    1  C5  UNL     1      26.926   4.464  49.229  1.00  0.00     0.243 C 
HETATM    2  O1  UNL     1      28.114   4.731  48.881  1.00  0.00    -0.268 OA
HETATM    3  N2  UNL     1      26.172   5.569  48.694  1.00  0.00    -0.340 N 
HETATM    4  C6  UNL     1      27.014   6.520  47.998  1.00  0.00     0.169 C 
HETATM    5  C7  UNL     1      27.168   7.656  48.970  1.00  0.00     0.018 A 
HETATM    6  C8  UNL     1      26.409   8.098  50.012  1.00  0.00     0.134 A 
HETATM    7  N3  UNL     1      26.733   9.156  50.771  1.00  0.00    -0.241 NA
HETATM    8  C9  UNL     1      27.878   9.839  50.507  1.00  0.00     0.142 A 
HETATM    9  C10 UNL     1      28.649   9.400  49.459  1.00  0.00     0.073 A 
HETATM   10  C11 UNL     1      29.870  10.124  49.171  1.00  0.00     0.102 C 
HETATM   11  N4  UNL     1      30.851  10.702  48.959  1.00  0.00    -0.191 NA
HETATM   12  C12 UNL     1      28.344   8.303  48.646  1.00  0.00     0.008 A 
HETATM   13  N5  UNL     1      25.202   7.532  50.441  1.00  0.00    -0.346 N 
HETATM   14  C19 UNL     1      24.313   6.483  50.030  1.00  0.00     0.240 C 
HETATM   15  C22 UNL     1      24.747   5.689  48.854  1.00  0.00     0.180 C 
HETATM   16  H15 UNL     1      24.763   7.951  51.315  1.00  0.00     0.163 HD
ENDROOT
BRANCH  12  17
HETATM   17  C13 UNL     1      29.256   7.942  47.559  1.00  0.00    -0.022 A 
HETATM   18  C14 UNL     1      28.988   8.489  46.304  1.00  0.00     0.015 A 
HETATM   19  C15 UNL     1      29.839   8.160  45.265  1.00  0.00     0.045 A 
HETATM   20  C16 UNL     1      30.916   7.321  45.455  1.00  0.00     0.138 A 
HETATM   21  F1  UNL     1      31.746   7.009  44.407  1.00  0.00    -0.204 F 
HETATM   22  C17 UNL     1      31.186   6.773  46.708  1.00  0.00     0.073 A 
HETATM   23 CL1  UNL     1      32.558   5.706  46.944  1.00  0.00    -0.081 Cl
HETATM   24  C18 UNL     1      30.333   7.099  47.766  1.00  0.00     0.039 A 
ENDBRANCH  12  17
BRANCH  14  25
HETATM   25  O2  UNL     1      24.122   5.649  51.108  1.00  0.00    -0.363 OA
BRANCH  25  26
HETATM   26  C20 UNL     1      23.233   4.637  51.008  1.00  0.00     0.201 C 
BRANCH  26  27
HETATM   27  C21 UNL     1      23.117   3.764  52.229  1.00  0.00     0.248 C 
HETATM   28  F2  UNL     1      24.126   3.833  53.122  1.00  0.00    -0.253 F 
ENDBRANCH  26  27
ENDBRANCH  25  26
ENDBRANCH  14  25
BRANCH   1  29
HETATM   29  C4  UNL     1      26.510   3.295  49.989  1.00  0.00     0.072 C 
HETATM   30  C3  UNL     1      26.655   2.700  51.186  1.00  0.00     0.008 C 
BRANCH  30  31
HETATM   31  C2  UNL     1      26.026   1.427  51.612  1.00  0.00     0.296 C 
BRANCH  31  32
HETATM   32  N1  UNL     1      27.019   0.498  52.140  1.00  0.00     0.082 N 
HETATM   33  C1  UNL     1      26.378  -0.549  52.884  1.00  0.00     0.307 C 
HETATM   34  H4  UNL     1      27.769   0.996  52.634  1.00  0.00     0.315 HD
ENDBRANCH  31  32
ENDBRANCH  30  31
ENDBRANCH   1  29
TORSDOF 7
ENDMDL
MODEL 3
REMARK VINA RESULT:      -7.1      3.349      8.476
REMARK  7 active torsions:
REMARK  status: ('A' for Active; 'I' for Inactive)
REMARK    1  A    between atoms: N1_2  and  C2_3 
REMARK    2  A    between atoms: C2_3  and  C3_4 
REMARK    3  A    between atoms: C4_5  and  C5_6 
REMARK       I    between atoms: C5_6  and  N2_8 
REMARK    4  A    between atoms: C12_17  and  C13_18 
REMARK    5  A    between atoms: C19_27  and  O2_28 
REMARK    6  A    between atoms: O2_28  and  C20_29 
REMARK    7  A    between atoms: C20_29  and  C21_30 
ROOT
HETATM    1  C5  UNL     1      27.255   5.122  49.065  1.00  0.00     0.243 C 
HETATM    2  O1  UNL     1      27.086   3.942  49.492  1.00  0.00    -0.268 OA
HETATM    3  N2  UNL     1      26.090   5.816  49.553  1.00  0.00    -0.340 N 
HETATM    4  C6  UNL     1      25.210   4.946  50.306  1.00  0.00     0.169 C 
HETATM    5  C7  UNL     1      24.094   4.635  49.350  1.00  0.00     0.018 A 
HETATM    6  C8  UNL     1      23.592   5.284  48.262  1.00  0.00     0.134 A 
HETATM    7  N3  UNL     1      22.567   4.825  47.530  1.00  0.00    -0.241 NA
HETATM    8  C9  UNL     1      21.980   3.647  47.871  1.00  0.00     0.142 A 
HETATM    9  C10 UNL     1      22.478   2.986  48.966  1.00  0.00     0.073 A 
HETATM   10  C11 UNL     1      21.857   1.731  49.336  1.00  0.00     0.102 C 
HETATM   11  N4  UNL     1      21.362   0.721  49.615  1.00  0.00    -0.191 NA
HETATM   12  C12 UNL     1      23.545   3.433  49.754  1.00  0.00     0.008 A 
HETATM   13  N5  UNL     1      24.057   6.503  47.753  1.00  0.00    -0.346 N 
HETATM   14  C19 UNL     1      25.029   7.501  48.101  1.00  0.00     0.240 C 
HETATM   15  C22 UNL     1      25.853   7.212  49.300  1.00  0.00     0.180 C 
HETATM   16  H15 UNL     1      23.605   6.847  46.853  1.00  0.00     0.163 HD
ENDROOT
BRANCH  12  17
HETATM   17  C13 UNL     1      23.979   2.628  50.897  1.00  0.00    -0.022 A 
HETATM   18  C14 UNL     1      23.258   2.778  52.082  1.00  0.00     0.015 A 
HETATM   19  C15 UNL     1      23.652   2.025  53.173  1.00  0.00     0.045 A 
HETATM   20  C16 UNL     1      24.718   1.155  53.099  1.00  0.00     0.138 A 
HETATM   21  F1  UNL     1      25.089   0.418  54.197  1.00  0.00    -0.204 F 
HETATM   22  C17 UNL     1      25.440   1.002  51.916  1.00  0.00     0.073 A 
HETATM   23 CL1  UNL     1      26.795  -0.107  51.828  1.00  0.00    -0.081 Cl
HETATM   24  C18 UNL     1      25.050   1.758  50.807  1.00  0.00     0.039 A 
ENDBRANCH  12  17
BRANCH  14  25
HETATM   25  O2  UNL     1      25.846   7.689  47.010  1.00  0.00    -0.363 OA
BRANCH  25  26
HETATM   26  C20 UNL     1      26.249   8.939  46.696  1.00  0.00     0.201 C 
BRANCH  26  27
HETATM   27  C21 UNL     1      27.738   9.159  46.727  1.00  0.00     0.248 C 
HETATM   28  F2  UNL     1      28.300   9.327  47.942  1.00  0.00    -0.253 F 
ENDBRANCH  26  27
ENDBRANCH  25  26
ENDBRANCH  14  25
BRANCH   1  29
HETATM   29  C4  UNL     1      28.387   5.582  48.276  1.00  0.00     0.072 C 
HETATM   30  C3  UNL     1      29.539   6.269  48.372  1.00  0.00     0.008 C 
BRANCH  30  31
HETATM   31  C2  UNL     1      30.487   6.545  47.266  1.00  0.00     0.296 C 
BRANCH  31  32
HETATM   32  N1  UNL     1      31.829   6.068  47.589  1.00  0.00     0.082 N 
HETATM   33  C1  UNL     1      31.909   4.646  47.412  1.00  0.00     0.307 C 
HETATM   34  H4  UNL     1      32.138   6.419  48.503  1.00  0.00     0.315 HD
ENDBRANCH  31  32
ENDBRANCH  30  31
ENDBRANCH   1  29
TORSDOF 7
ENDMDL
MODEL 4
REMARK VINA RESULT:      -7.0      4.750     10.044
REMARK  7 active torsions:
REMARK  status: ('A' for Active; 'I' for Inactive)
REMARK    1  A    between atoms: N1_2  and  C2_3 
REMARK    2  A    between atoms: C2_3  and  C3_4 
REMARK    3  A    between atoms: C4_5  and  C5_6 
REMARK       I    between atoms: C5_6  and  N2_8 
REMARK    4  A    between atoms: C12_17  and  C13_18 
REMARK    5  A    between atoms: C19_27  and  O2_28 
REMARK    6  A    between atoms: O2_28  and  C20_29 
REMARK    7  A    between atoms: C20_29  and  C21_30 
ROOT
HETATM    1  C5  UNL     1      24.853   4.644  50.177  1.00  0.00     0.243 C 
HETATM    2  O1  UNL     1      24.361   3.481  50.079  1.00  0.00    -0.268 OA
HETATM    3  N2  UNL     1      23.978   5.291  51.120  1.00  0.00    -0.340 N 
HETATM    4  C6  UNL     1      22.918   4.414  51.574  1.00  0.00     0.169 C 
HETATM    5  C7  UNL     1      21.711   4.864  50.801  1.00  0.00     0.018 A 
HETATM    6  C8  UNL     1      21.372   6.044  50.209  1.00  0.00     0.134 A 
HETATM    7  N3  UNL     1      20.219   6.241  49.553  1.00  0.00    -0.241 NA
HETATM    8  C9  UNL     1      19.324   5.222  49.457  1.00  0.00     0.142 A 
HETATM    9  C10 UNL     1      19.658   4.030  50.050  1.00  0.00     0.073 A 
HETATM   10  C11 UNL     1      18.709   2.939  49.953  1.00  0.00     0.102 C 
HETATM   11  N4  UNL     1      17.949   2.070  49.857  1.00  0.00    -0.191 NA
HETATM   12  C12 UNL     1      20.850   3.786  50.743  1.00  0.00     0.008 A 
HETATM   13  N5  UNL     1      22.153   7.205  50.197  1.00  0.00    -0.346 N 
HETATM   14  C19 UNL     1      23.397   7.658  50.754  1.00  0.00     0.240 C 
HETATM   15  C22 UNL     1      24.158   6.656  51.538  1.00  0.00     0.180 C 
HETATM   16  H15 UNL     1      21.779   8.026  49.631  1.00  0.00     0.163 HD
ENDROOT
BRANCH  12  17
HETATM   17  C13 UNL     1      21.081   2.464  51.328  1.00  0.00    -0.022 A 
HETATM   18  C14 UNL     1      21.606   1.485  50.484  1.00  0.00     0.015 A 
HETATM   19  C15 UNL     1      21.832   0.230  51.019  1.00  0.00     0.045 A 
HETATM   20  C16 UNL     1      21.550  -0.051  52.338  1.00  0.00     0.138 A 
HETATM   21  F1  UNL     1      21.783  -1.305  52.845  1.00  0.00    -0.204 F 
HETATM   22  C17 UNL     1      21.025   0.926  53.184  1.00  0.00     0.073 A 
HETATM   23 CL1  UNL     1      20.669   0.562  54.862  1.00  0.00    -0.081 Cl
HETATM   24  C18 UNL     1      20.793   2.198  52.654  1.00  0.00     0.039 A 
ENDBRANCH  12  17
BRANCH  14  25
HETATM   25  O2  UNL     1      24.174   8.126  49.719  1.00  0.00    -0.363 OA
BRANCH  25  26
HETATM   26  C20 UNL     1      25.343   8.741  50.000  1.00  0.00     0.201 C 
BRANCH  26  27
HETATM   27  C21 UNL     1      25.869   9.644  48.916  1.00  0.00     0.248 C 
HETATM   28  F2  UNL     1      27.172   9.984  48.990  1.00  0.00    -0.253 F 
ENDBRANCH  26  27
ENDBRANCH  25  26
ENDBRANCH  14  25
BRANCH   1  29
HETATM   29  C4  UNL     1      26.029   5.127  49.468  1.00  0.00     0.072 C 
HETATM   30  C3  UNL     1      27.191   4.712  48.934  1.00  0.00     0.008 C 
BRANCH  30  31
HETATM   31  C2  UNL     1      28.191   5.565  48.247  1.00  0.00     0.296 C 
BRANCH  31  32
HETATM   32  N1  UNL     1      28.343   6.850  48.922  1.00  0.00     0.082 N 
HETATM   33  C1  UNL     1      29.459   7.571  48.379  1.00  0.00     0.307 C 
HETATM   34  H4  UNL     1      28.344   6.736  49.943  1.00  0.00     0.315 HD
ENDBRANCH  31  32
ENDBRANCH  30  31
ENDBRANCH   1  29
TORSDOF 7
ENDMDL
MODEL 5
REMARK VINA RESULT:      -7.0      4.593     10.607
REMARK  7 active torsions:
REMARK  status: ('A' for Active; 'I' for Inactive)
REMARK    1  A    between atoms: N1_2  and  C2_3 
REMARK    2  A    between atoms: C2_3  and  C3_4 
REMARK    3  A    between atoms: C4_5  and  C5_6 
REMARK       I    between atoms: C5_6  and  N2_8 
REMARK    4  A    between atoms: C12_17  and  C13_18 
REMARK    5  A    between atoms: C19_27  and  O2_28 
REMARK    6  A    between atoms: O2_28  and  C20_29 
REMARK    7  A    between atoms: C20_29  and  C21_30 
ROOT
HETATM    1  C5  UNL     1      24.503   3.802  50.923  1.00  0.00     0.243 C 
HETATM    2  O1  UNL     1      24.360   2.567  51.164  1.00  0.00    -0.268 OA
HETATM    3  N2  UNL     1      23.496   4.416  51.749  1.00  0.00    -0.340 N 
HETATM    4  C6  UNL     1      22.736   3.438  52.502  1.00  0.00     0.169 C 
HETATM    5  C7  UNL     1      21.438   3.324  51.752  1.00  0.00     0.018 A 
HETATM    6  C8  UNL     1      20.768   4.168  50.918  1.00  0.00     0.134 A 
HETATM    7  N3  UNL     1      19.597   3.865  50.340  1.00  0.00    -0.241 NA
HETATM    8  C9  UNL     1      19.027   2.656  50.583  1.00  0.00     0.142 A 
HETATM    9  C10 UNL     1      19.695   1.799  51.422  1.00  0.00     0.073 A 
HETATM   10  C11 UNL     1      19.093   0.508  51.687  1.00  0.00     0.102 C 
HETATM   11  N4  UNL     1      18.609  -0.526  51.881  1.00  0.00    -0.191 NA
HETATM   12  C12 UNL     1      20.917   2.079  52.044  1.00  0.00     0.008 A 
HETATM   13  N5  UNL     1      21.188   5.450  50.544  1.00  0.00    -0.346 N 
HETATM   14  C19 UNL     1      22.260   6.353  50.857  1.00  0.00     0.240 C 
HETATM   15  C22 UNL     1      23.288   5.838  51.795  1.00  0.00     0.180 C 
HETATM   16  H15 UNL     1      20.587   5.959  49.828  1.00  0.00     0.163 HD
ENDROOT
BRANCH  12  17
HETATM   17  C13 UNL     1      21.523   1.073  52.918  1.00  0.00    -0.022 A 
HETATM   18  C14 UNL     1      20.789   0.691  54.042  1.00  0.00     0.015 A 
HETATM   19  C15 UNL     1      21.344  -0.258  54.880  1.00  0.00     0.045 A 
HETATM   20  C16 UNL     1      22.580  -0.812  54.620  1.00  0.00     0.138 A 
HETATM   21  F1  UNL     1      23.109  -1.754  55.468  1.00  0.00    -0.204 F 
HETATM   22  C17 UNL     1      23.315  -0.433  53.498  1.00  0.00     0.073 A 
HETATM   23 CL1  UNL     1      24.886  -1.141  53.173  1.00  0.00    -0.081 Cl
HETATM   24  C18 UNL     1      22.763   0.526  52.644  1.00  0.00     0.039 A 
ENDBRANCH  12  17
BRANCH  14  25
HETATM   25  O2  UNL     1      22.857   6.720  49.672  1.00  0.00    -0.363 OA
BRANCH  25  26
HETATM   26  C20 UNL     1      22.182   6.551  48.515  1.00  0.00     0.201 C 
BRANCH  26  27
HETATM   27  C21 UNL     1      23.005   6.045  47.361  1.00  0.00     0.248 C 
HETATM   28  F2  UNL     1      23.749   6.958  46.701  1.00  0.00    -0.253 F 
ENDBRANCH  26  27
ENDBRANCH  25  26
ENDBRANCH  14  25
BRANCH   1  29
HETATM   29  C4  UNL     1      25.482   4.377  50.013  1.00  0.00     0.072 C 
HETATM   30  C3  UNL     1      26.721   4.186  49.527  1.00  0.00     0.008 C 
BRANCH  30  31
HETATM   31  C2  UNL     1      27.419   5.052  48.547  1.00  0.00     0.296 C 
BRANCH  31  32
HETATM   32  N1  UNL     1      27.681   6.376  49.103  1.00  0.00     0.082 N 
HETATM   33  C1  UNL     1      28.685   7.052  48.332  1.00  0.00     0.307 C 
HETATM   34  H4  UNL     1      27.857   6.326  50.114  1.00  0.00     0.315 HD
ENDBRANCH  31  32
ENDBRANCH  30  31
ENDBRANCH   1  29
TORSDOF 7
ENDMDL
MODEL 6
REMARK VINA RESULT:      -6.9      8.093     10.053
REMARK  7 active torsions:
REMARK  status: ('A' for Active; 'I' for Inactive)
REMARK    1  A    between atoms: N1_2  and  C2_3 
REMARK    2  A    between atoms: C2_3  and  C3_4 
REMARK    3  A    between atoms: C4_5  and  C5_6 
REMARK       I    between atoms: C5_6  and  N2_8 
REMARK    4  A    between atoms: C12_17  and  C13_18 
REMARK    5  A    between atoms: C19_27  and  O2_28 
REMARK    6  A    between atoms: O2_28  and  C20_29 
REMARK    7  A    between atoms: C20_29  and  C21_30 
ROOT
HETATM    1  C5  UNL     1      23.103   3.191  49.382  1.00  0.00     0.243 C 
HETATM    2  O1  UNL     1      23.794   2.194  49.746  1.00  0.00    -0.268 OA
HETATM    3  N2  UNL     1      22.820   3.864  50.623  1.00  0.00    -0.340 N 
HETATM    4  C6  UNL     1      23.400   3.181  51.761  1.00  0.00     0.169 C 
HETATM    5  C7  UNL     1      22.240   2.459  52.386  1.00  0.00     0.018 A 
HETATM    6  C8  UNL     1      20.894   2.670  52.370  1.00  0.00     0.134 A 
HETATM    7  N3  UNL     1      20.012   1.889  53.010  1.00  0.00    -0.241 NA
HETATM    8  C9  UNL     1      20.460   0.820  53.719  1.00  0.00     0.142 A 
HETATM    9  C10 UNL     1      21.815   0.598  53.741  1.00  0.00     0.073 A 
HETATM   10  C11 UNL     1      22.300  -0.539  54.495  1.00  0.00     0.102 C 
HETATM   11  N4  UNL     1      22.676  -1.459  55.090  1.00  0.00    -0.191 NA
HETATM   12  C12 UNL     1      22.766   1.390  53.087  1.00  0.00     0.008 A 
HETATM   13  N5  UNL     1      20.239   3.711  51.701  1.00  0.00    -0.346 N 
HETATM   14  C19 UNL     1      20.593   4.873  50.935  1.00  0.00     0.240 C 
HETATM   15  C22 UNL     1      22.043   5.073  50.693  1.00  0.00     0.180 C 
HETATM   16  H15 UNL     1      19.175   3.700  51.727  1.00  0.00     0.163 HD
ENDROOT
BRANCH  12  17
HETATM   17  C13 UNL     1      24.183   1.041  53.192  1.00  0.00    -0.022 A 
HETATM   18  C14 UNL     1      25.013   1.965  53.829  1.00  0.00     0.015 A 
HETATM   19  C15 UNL     1      26.356   1.653  53.939  1.00  0.00     0.045 A 
HETATM   20  C16 UNL     1      26.863   0.472  53.439  1.00  0.00     0.138 A 
HETATM   21  F1  UNL     1      28.200   0.186  53.561  1.00  0.00    -0.204 F 
HETATM   22  C17 UNL     1      26.036  -0.452  52.802  1.00  0.00     0.073 A 
HETATM   23 CL1  UNL     1      26.687  -1.952  52.169  1.00  0.00    -0.081 Cl
HETATM   24  C18 UNL     1      24.677  -0.147  52.686  1.00  0.00     0.039 A 
ENDBRANCH  12  17
BRANCH  14  25
HETATM   25  O2  UNL     1      19.928   4.800  49.732  1.00  0.00    -0.363 OA
BRANCH  25  26
HETATM   26  C20 UNL     1      18.634   4.414  49.718  1.00  0.00     0.201 C 
BRANCH  26  27
HETATM   27  C21 UNL     1      18.276   3.410  48.654  1.00  0.00     0.248 C 
HETATM   28  F2  UNL     1      19.030   2.293  48.597  1.00  0.00    -0.253 F 
ENDBRANCH  26  27
ENDBRANCH  25  26
ENDBRANCH  14  25
BRANCH   1  29
HETATM   29  C4  UNL     1      22.731   3.505  48.010  1.00  0.00     0.072 C 
HETATM   30  C3  UNL     1      21.923   3.107  47.012  1.00  0.00     0.008 C 
BRANCH  30  31
HETATM   31  C2  UNL     1      21.824   3.726  45.668  1.00  0.00     0.296 C 
BRANCH  31  32
HETATM   32  N1  UNL     1      21.331   5.098  45.753  1.00  0.00     0.082 N 
HETATM   33  C1  UNL     1      21.982   5.924  44.777  1.00  0.00     0.307 C 
HETATM   34  H4  UNL     1      21.362   5.445  46.719  1.00  0.00     0.315 HD
ENDBRANCH  31  32
ENDBRANCH  30  31
ENDBRANCH   1  29
TORSDOF 7
ENDMDL
MODEL 7
REMARK VINA RESULT:      -6.8      5.952     11.031
REMARK  7 active torsions:
REMARK  status: ('A' for Active; 'I' for Inactive)
REMARK    1  A    between atoms: N1_2  and  C2_3 
REMARK    2  A    between atoms: C2_3  and  C3_4 
REMARK    3  A    between atoms: C4_5  and  C5_6 
REMARK       I    between atoms: C5_6  and  N2_8 
REMARK    4  A    between atoms: C12_17  and  C13_18 
REMARK    5  A    between atoms: C19_27  and  O2_28 
REMARK    6  A    between atoms: O2_28  and  C20_29 
REMARK    7  A    between atoms: C20_29  and  C21_30 
ROOT
HETATM    1  C5  UNL     1      23.157   1.624  51.918  1.00  0.00     0.243 C 
HETATM    2  O1  UNL     1      22.019   1.136  51.653  1.00  0.00    -0.268 OA
HETATM    3  N2  UNL     1      22.954   3.040  51.746  1.00  0.00    -0.340 N 
HETATM    4  C6  UNL     1      21.596   3.354  51.352  1.00  0.00     0.169 C 
HETATM    5  C7  UNL     1      21.694   3.625  49.878  1.00  0.00     0.018 A 
HETATM    6  C8  UNL     1      22.716   4.030  49.072  1.00  0.00     0.134 A 
HETATM    7  N3  UNL     1      22.589   4.217  47.750  1.00  0.00    -0.241 NA
HETATM    8  C9  UNL     1      21.386   3.995  47.158  1.00  0.00     0.142 A 
HETATM    9  C10 UNL     1      20.351   3.588  47.962  1.00  0.00     0.073 A 
HETATM   10  C11 UNL     1      19.065   3.351  47.338  1.00  0.00     0.102 C 
HETATM   11  N4  UNL     1      18.045   3.151  46.826  1.00  0.00    -0.191 NA
HETATM   12  C12 UNL     1      20.443   3.382  49.343  1.00  0.00     0.008 A 
HETATM   13  N5  UNL     1      24.023   4.307  49.489  1.00  0.00    -0.346 N 
HETATM   14  C19 UNL     1      24.757   4.372  50.721  1.00  0.00     0.240 C 
HETATM   15  C22 UNL     1      24.001   4.006  51.945  1.00  0.00     0.180 C 
HETATM   16  H15 UNL     1      24.726   4.546  48.726  1.00  0.00     0.163 HD
ENDROOT
BRANCH  12  17
HETATM   17  C13 UNL     1      19.259   2.945  50.083  1.00  0.00    -0.022 A 
HETATM   18  C14 UNL     1      18.459   3.944  50.639  1.00  0.00     0.015 A 
HETATM   19  C15 UNL     1      17.335   3.552  51.341  1.00  0.00     0.045 A 
HETATM   20  C16 UNL     1      17.010   2.220  51.492  1.00  0.00     0.138 A 
HETATM   21  F1  UNL     1      15.888   1.856  52.194  1.00  0.00    -0.204 F 
HETATM   22  C17 UNL     1      17.807   1.219  50.938  1.00  0.00     0.073 A 
HETATM   23 CL1  UNL     1      17.388  -0.472  51.133  1.00  0.00    -0.081 Cl
HETATM   24  C18 UNL     1      18.946   1.606  50.225  1.00  0.00     0.039 A 
ENDBRANCH  12  17
BRANCH  14  25
HETATM   25  O2  UNL     1      25.859   3.558  50.596  1.00  0.00    -0.363 OA
BRANCH  25  26
HETATM   26  C20 UNL     1      26.484   3.476  49.402  1.00  0.00     0.201 C 
BRANCH  26  27
HETATM   27  C21 UNL     1      27.219   4.719  48.976  1.00  0.00     0.248 C 
HETATM   28  F2  UNL     1      28.337   4.540  48.242  1.00  0.00    -0.253 F 
ENDBRANCH  26  27
ENDBRANCH  25  26
ENDBRANCH  14  25
BRANCH   1  29
HETATM   29  C4  UNL     1      24.336   0.861  52.299  1.00  0.00     0.072 C 
HETATM   30  C3  UNL     1      25.014   0.420  53.373  1.00  0.00     0.008 C 
BRANCH  30  31
HETATM   31  C2  UNL     1      26.259  -0.384  53.352  1.00  0.00     0.296 C 
BRANCH  31  32
HETATM   32  N1  UNL     1      26.843  -0.490  54.686  1.00  0.00     0.082 N 
HETATM   33  C1  UNL     1      28.079   0.237  54.749  1.00  0.00     0.307 C 
HETATM   34  H4  UNL     1      26.888  -1.469  54.995  1.00  0.00     0.315 HD
ENDBRANCH  31  32
ENDBRANCH  30  31
ENDBRANCH   1  29
TORSDOF 7
ENDMDL
MODEL 8
REMARK VINA RESULT:      -6.8      5.642      8.870
REMARK  7 active torsions:
REMARK  status: ('A' for Active; 'I' for Inactive)
REMARK    1  A    between atoms: N1_2  and  C2_3 
REMARK    2  A    between atoms: C2_3  and  C3_4 
REMARK    3  A    between atoms: C4_5  and  C5_6 
REMARK       I    between atoms: C5_6  and  N2_8 
REMARK    4  A    between atoms: C12_17  and  C13_18 
REMARK    5  A    between atoms: C19_27  and  O2_28 
REMARK    6  A    between atoms: O2_28  and  C20_29 
REMARK    7  A    between atoms: C20_29  and  C21_30 
ROOT
HETATM    1  C5  UNL     1      20.963   2.616  50.448  1.00  0.00     0.243 C 
HETATM    2  O1  UNL     1      21.385   3.414  49.560  1.00  0.00    -0.268 OA
HETATM    3  N2  UNL     1      21.768   2.949  51.596  1.00  0.00    -0.340 N 
HETATM    4  C6  UNL     1      22.709   4.014  51.313  1.00  0.00     0.169 C 
HETATM    5  C7  UNL     1      24.023   3.307  51.137  1.00  0.00     0.018 A 
HETATM    6  C8  UNL     1      24.505   2.113  51.585  1.00  0.00     0.134 A 
HETATM    7  N3  UNL     1      25.735   1.658  51.306  1.00  0.00    -0.241 NA
HETATM    8  C9  UNL     1      26.564   2.408  50.535  1.00  0.00     0.142 A 
HETATM    9  C10 UNL     1      26.087   3.612  50.079  1.00  0.00     0.073 A 
HETATM   10  C11 UNL     1      26.967   4.418  49.257  1.00  0.00     0.102 C 
HETATM   11  N4  UNL     1      27.673   5.048  48.589  1.00  0.00    -0.191 NA
HETATM   12  C12 UNL     1      24.812   4.121  50.348  1.00  0.00     0.008 A 
HETATM   13  N5  UNL     1      23.808   1.201  52.387  1.00  0.00    -0.346 N 
HETATM   14  C19 UNL     1      22.543   1.126  53.061  1.00  0.00     0.240 C 
HETATM   15  C22 UNL     1      21.633   2.280  52.862  1.00  0.00     0.180 C 
HETATM   16  H15 UNL     1      24.298   0.279  52.596  1.00  0.00     0.163 HD
ENDROOT
BRANCH  12  17
HETATM   17  C13 UNL     1      24.429   5.423  49.797  1.00  0.00    -0.022 A 
HETATM   18  C14 UNL     1      24.593   6.531  50.629  1.00  0.00     0.015 A 
HETATM   19  C15 UNL     1      24.238   7.769  50.127  1.00  0.00     0.045 A 
HETATM   20  C16 UNL     1      23.738   7.911  48.850  1.00  0.00     0.138 A 
HETATM   21  F1  UNL     1      23.392   9.151  48.374  1.00  0.00    -0.204 F 
HETATM   22  C17 UNL     1      23.573   6.805  48.017  1.00  0.00     0.073 A 
HETATM   23 CL1  UNL     1      22.936   6.992  46.394  1.00  0.00    -0.081 Cl
HETATM   24  C18 UNL     1      23.929   5.548  48.514  1.00  0.00     0.039 A 
ENDBRANCH  12  17
BRANCH  14  25
HETATM   25  O2  UNL     1      21.919  -0.032  52.655  1.00  0.00    -0.363 OA
BRANCH  25  26
HETATM   26  C20 UNL     1      20.787  -0.423  53.277  1.00  0.00     0.201 C 
BRANCH  26  27
HETATM   27  C21 UNL     1      20.960  -1.526  54.288  1.00  0.00     0.248 C 
HETATM   28  F2  UNL     1      22.210  -1.729  54.755  1.00  0.00    -0.253 F 
ENDBRANCH  26  27
ENDBRANCH  25  26
ENDBRANCH  14  25
BRANCH   1  29
HETATM   29  C4  UNL     1      19.910   1.629  50.267  1.00  0.00     0.072 C 
HETATM   30  C3  UNL     1      18.613   1.398  50.536  1.00  0.00     0.008 C 
BRANCH  30  31
HETATM   31  C2  UNL     1      17.843   0.189  50.159  1.00  0.00     0.296 C 
BRANCH  31  32
HETATM   32  N1  UNL     1      17.442  -0.571  51.339  1.00  0.00     0.082 N 
HETATM   33  C1  UNL     1      16.426   0.136  52.066  1.00  0.00     0.307 C 
HETATM   34  H4  UNL     1      18.259  -0.862  51.889  1.00  0.00     0.315 HD
ENDBRANCH  31  32
ENDBRANCH  30  31
ENDBRANCH   1  29
TORSDOF 7
ENDMDL
MODEL 9
REMARK VINA RESULT:      -6.6      3.785      6.014
REMARK  7 active torsions:
REMARK  status: ('A' for Active; 'I' for Inactive)
REMARK    1  A    between atoms: N1_2  and  C2_3 
REMARK    2  A    between atoms: C2_3  and  C3_4 
REMARK    3  A    between atoms: C4_5  and  C5_6 
REMARK       I    between atoms: C5_6  and  N2_8 
REMARK    4  A    between atoms: C12_17  and  C13_18 
REMARK    5  A    between atoms: C19_27  and  O2_28 
REMARK    6  A    between atoms: O2_28  and  C20_29 
REMARK    7  A    between atoms: C20_29  and  C21_30 
ROOT
HETATM    1  C5  UNL     1      26.244   2.879  50.449  1.00  0.00     0.243 C 
HETATM    2  O1  UNL     1      27.185   3.700  50.243  1.00  0.00    -0.268 OA
HETATM    3  N2  UNL     1      25.176   3.390  49.629  1.00  0.00    -0.340 N 
HETATM    4  C6  UNL     1      25.562   4.592  48.916  1.00  0.00     0.169 C 
HETATM    5  C7  UNL     1      24.917   5.704  49.694  1.00  0.00     0.018 A 
HETATM    6  C8  UNL     1      23.835   5.756  50.521  1.00  0.00     0.134 A 
HETATM    7  N3  UNL     1      23.419   6.876  51.130  1.00  0.00    -0.241 NA
HETATM    8  C9  UNL     1      24.099   8.035  50.929  1.00  0.00     0.142 A 
HETATM    9  C10 UNL     1      25.191   7.993  50.098  1.00  0.00     0.073 A 
HETATM   10  C11 UNL     1      25.920   9.225  49.878  1.00  0.00     0.102 C 
HETATM   11  N4  UNL     1      26.503  10.213  49.720  1.00  0.00    -0.191 NA
HETATM   12  C12 UNL     1      25.655   6.845  49.445  1.00  0.00     0.008 A 
HETATM   13  N5  UNL     1      23.010   4.675  50.854  1.00  0.00    -0.346 N 
HETATM   14  C19 UNL     1      22.872   3.291  50.497  1.00  0.00     0.240 C 
HETATM   15  C22 UNL     1      23.885   2.762  49.551  1.00  0.00     0.180 C 
HETATM   16  H15 UNL     1      22.244   4.863  51.569  1.00  0.00     0.163 HD
ENDROOT
BRANCH  12  17
HETATM   17  C13 UNL     1      26.835   6.938  48.584  1.00  0.00    -0.022 A 
HETATM   18  C14 UNL     1      28.002   6.329  49.047  1.00  0.00     0.015 A 
HETATM   19  C15 UNL     1      29.128   6.405  48.248  1.00  0.00     0.045 A 
HETATM   20  C16 UNL     1      29.105   7.060  47.035  1.00  0.00     0.138 A 
HETATM   21  F1  UNL     1      30.236   7.122  46.260  1.00  0.00    -0.204 F 
HETATM   22  C17 UNL     1      27.941   7.670  46.570  1.00  0.00     0.073 A 
HETATM   23 CL1  UNL     1      27.919   8.501  45.026  1.00  0.00    -0.081 Cl
HETATM   24  C18 UNL     1      26.797   7.598  47.370  1.00  0.00     0.039 A 
ENDBRANCH  12  17
BRANCH  14  25
HETATM   25  O2  UNL     1      22.894   2.555  51.660  1.00  0.00    -0.363 OA
BRANCH  25  26
HETATM   26  C20 UNL     1      22.716   1.218  51.595  1.00  0.00     0.201 C 
BRANCH  26  27
HETATM   27  C21 UNL     1      23.109   0.459  52.836  1.00  0.00     0.248 C 
HETATM   28  F2  UNL     1      22.832  -0.861  52.850  1.00  0.00    -0.253 F 
ENDBRANCH  26  27
ENDBRANCH  25  26
ENDBRANCH  14  25
BRANCH   1  29
HETATM   29  C4  UNL     1      26.312   1.718  51.325  1.00  0.00     0.072 C 
HETATM   30  C3  UNL     1      27.114   1.102  52.210  1.00  0.00     0.008 C 
BRANCH  30  31
HETATM   31  C2  UNL     1      26.808  -0.148  52.946  1.00  0.00     0.296 C 
BRANCH  31  32
HETATM   32  N1  UNL     1      27.681  -0.307  54.105  1.00  0.00     0.082 N 
HETATM   33  C1  UNL     1      28.765   0.633  54.046  1.00  0.00     0.307 C 
HETATM   34  H4  UNL     1      27.953  -1.289  54.234  1.00  0.00     0.315 HD
ENDBRANCH  31  32
ENDBRANCH  30  31
ENDBRANCH   1  29
TORSDOF 7
ENDMDL
