MODEL 1
REMARK VINA RESULT:      -8.0      0.000      0.000
REMARK  2 active torsions:
REMARK  status: ('A' for Active; 'I' for Inactive)
REMARK    1  A    between atoms: C1_3  and  N2_4 
REMARK    2  A    between atoms: N2_4  and  C2_5 
ROOT
HETATM    1  C2  UNL     1      23.426   0.152  53.352  1.00  0.00     0.038 C 
HETATM    2  C3  UNL     1      24.569  -0.501  53.249  1.00  0.00     0.095 C 
HETATM    3  C4  UNL     1      25.956  -0.843  52.999  1.00  0.00     0.047 C 
HETATM    4  C5  UNL     1      26.903   0.297  53.137  1.00  0.00    -0.049 A 
HETATM    5  C6  UNL     1      27.731  -0.059  54.227  1.00  0.00     0.011 A 
HETATM    6  C7  UNL     1      28.803   0.621  54.829  1.00  0.00     0.043 A 
HETATM    7  C8  UNL     1      29.089   1.860  54.242  1.00  0.00     0.117 A 
HETATM    8  F2  UNL     1      30.108   2.570  54.768  1.00  0.00    -0.206 F 
HETATM    9  C9  UNL     1      28.255   2.197  53.160  1.00  0.00     0.052 A 
HETATM   10  C10 UNL     1      27.172   1.526  52.539  1.00  0.00    -0.025 A 
HETATM   11  C11 UNL     1      26.746   2.439  51.478  1.00  0.00     0.207 C 
HETATM   12  O1  UNL     1      25.473   2.959  51.812  1.00  0.00    -0.381 OA
HETATM   13  C12 UNL     1      24.551   2.015  51.519  1.00  0.00     0.219 C 
HETATM   14  C13 UNL     1      23.218   2.257  52.076  1.00  0.00     0.033 C 
HETATM   15 CL1  UNL     1      22.237   3.657  51.697  1.00  0.00    -0.087 Cl
HETATM   16  C14 UNL     1      22.684   1.375  52.930  1.00  0.00     0.020 C 
ENDROOT
BRANCH   1  17
HETATM   17  N2  UNL     1      22.670  -0.955  53.881  1.00  0.00    -0.374 N 
HETATM   18  H2  UNL     1      22.938  -1.767  54.519  1.00  0.00     0.161 HD
BRANCH  17  19
HETATM   19  C1  UNL     1      21.299  -0.994  53.491  1.00  0.00     0.238 C 
HETATM   20  N1  UNL     1      20.487  -1.741  54.200  1.00  0.00    -0.083 NA
HETATM   21  F1  UNL     1      19.201  -1.748  53.796  1.00  0.00    -0.073 F 
ENDBRANCH  17  19
ENDBRANCH   1  17
TORSDOF 2
ENDMDL
MODEL 2
REMARK VINA RESULT:      -7.9      2.712      6.301
REMARK  2 active torsions:
REMARK  status: ('A' for Active; 'I' for Inactive)
REMARK    1  A    between atoms: C1_3  and  N2_4 
REMARK    2  A    between atoms: N2_4  and  C2_5 
ROOT
HETATM    1  C2  UNL     1      26.118  -0.648  52.963  1.00  0.00     0.038 C 
HETATM    2  C3  UNL     1      25.245  -0.827  53.937  1.00  0.00     0.095 C 
HETATM    3  C4  UNL     1      24.082  -0.725  54.796  1.00  0.00     0.047 C 
HETATM    4  C5  UNL     1      22.843  -0.281  54.100  1.00  0.00    -0.049 A 
HETATM    5  C6  UNL     1      21.963  -1.384  54.203  1.00  0.00     0.011 A 
HETATM    6  C7  UNL     1      20.651  -1.561  53.732  1.00  0.00     0.043 A 
HETATM    7  C8  UNL     1      20.140  -0.452  53.047  1.00  0.00     0.117 A 
HETATM    8  F2  UNL     1      18.884  -0.551  52.566  1.00  0.00    -0.206 F 
HETATM    9  C9  UNL     1      21.029   0.634  52.954  1.00  0.00     0.052 A 
HETATM   10  C10 UNL     1      22.352   0.833  53.421  1.00  0.00    -0.025 A 
HETATM   11  C11 UNL     1      22.691   2.184  52.975  1.00  0.00     0.207 C 
HETATM   12  O1  UNL     1      23.682   2.095  51.969  1.00  0.00    -0.381 OA
HETATM   13  C12 UNL     1      24.870   1.880  52.576  1.00  0.00     0.219 C 
HETATM   14  C13 UNL     1      25.955   1.460  51.686  1.00  0.00     0.033 C 
HETATM   15 CL1  UNL     1      26.553   2.422  50.350  1.00  0.00    -0.087 Cl
HETATM   16  C14 UNL     1      26.549   0.276  51.873  1.00  0.00     0.020 C 
ENDROOT
BRANCH   1  17
HETATM   17  N2  UNL     1      27.045  -1.658  53.405  1.00  0.00    -0.374 N 
HETATM   18  H2  UNL     1      26.908  -2.579  53.928  1.00  0.00     0.161 HD
BRANCH  17  19
HETATM   19  C1  UNL     1      28.414  -1.402  53.099  1.00  0.00     0.238 C 
HETATM   20  N1  UNL     1      29.181  -0.965  54.068  1.00  0.00    -0.083 NA
HETATM   21  F1  UNL     1      30.468  -0.736  53.735  1.00  0.00    -0.073 F 
ENDBRANCH  17  19
ENDBRANCH   1  17
TORSDOF 2
ENDMDL
MODEL 3
REMARK VINA RESULT:      -7.5      3.725      6.280
REMARK  2 active torsions:
REMARK  status: ('A' for Active; 'I' for Inactive)
REMARK    1  A    between atoms: C1_3  and  N2_4 
REMARK    2  A    between atoms: N2_4  and  C2_5 
ROOT
HETATM    1  C2  UNL     1      27.119   1.152  53.420  1.00  0.00     0.038 C 
HETATM    2  C3  UNL     1      26.900   1.700  52.239  1.00  0.00     0.095 C 
HETATM    3  C4  UNL     1      26.263   2.212  51.041  1.00  0.00     0.047 C 
HETATM    4  C5  UNL     1      24.866   2.682  51.244  1.00  0.00    -0.049 A 
HETATM    5  C6  UNL     1      24.916   4.070  50.976  1.00  0.00     0.011 A 
HETATM    6  C7  UNL     1      23.910   5.051  51.008  1.00  0.00     0.043 A 
HETATM    7  C8  UNL     1      22.649   4.558  51.369  1.00  0.00     0.117 A 
HETATM    8  F2  UNL     1      21.634   5.444  51.420  1.00  0.00    -0.206 F 
HETATM    9  C9  UNL     1      22.619   3.176  51.632  1.00  0.00     0.052 A 
HETATM   10  C10 UNL     1      23.620   2.173  51.604  1.00  0.00    -0.025 A 
HETATM   11  C11 UNL     1      22.913   0.951  51.991  1.00  0.00     0.207 C 
HETATM   12  O1  UNL     1      23.369   0.550  53.270  1.00  0.00    -0.381 OA
HETATM   13  C12 UNL     1      24.564  -0.061  53.110  1.00  0.00     0.219 C 
HETATM   14  C13 UNL     1      25.323  -0.270  54.345  1.00  0.00     0.033 C 
HETATM   15 CL1  UNL     1      24.754  -1.232  55.693  1.00  0.00    -0.087 Cl
HETATM   16  C14 UNL     1      26.529   0.291  54.487  1.00  0.00     0.020 C 
ENDROOT
BRANCH   1  17
HETATM   17  N2  UNL     1      28.546   1.347  53.414  1.00  0.00    -0.374 N 
HETATM   18  H2  UNL     1      29.165   2.100  52.980  1.00  0.00     0.161 HD
BRANCH  17  19
HETATM   19  C1  UNL     1      29.296   0.358  54.114  1.00  0.00     0.238 C 
HETATM   20  N1  UNL     1      29.934  -0.539  53.400  1.00  0.00    -0.083 NA
HETATM   21  F1  UNL     1      30.631  -1.455  54.103  1.00  0.00    -0.073 F 
ENDBRANCH  17  19
ENDBRANCH   1  17
TORSDOF 2
ENDMDL
MODEL 4
REMARK VINA RESULT:      -7.4      4.129      6.290
REMARK  2 active torsions:
REMARK  status: ('A' for Active; 'I' for Inactive)
REMARK    1  A    between atoms: C1_3  and  N2_4 
REMARK    2  A    between atoms: N2_4  and  C2_5 
ROOT
HETATM    1  C2  UNL     1      25.967   2.375  52.438  1.00  0.00     0.038 C 
HETATM    2  C3  UNL     1      26.433   2.759  51.264  1.00  0.00     0.095 C 
HETATM    3  C4  UNL     1      26.535   3.183  49.881  1.00  0.00     0.047 C 
HETATM    4  C5  UNL     1      25.349   3.930  49.380  1.00  0.00    -0.049 A 
HETATM    5  C6  UNL     1      25.842   5.225  49.091  1.00  0.00     0.011 A 
HETATM    6  C7  UNL     1      25.191   6.367  48.594  1.00  0.00     0.043 A 
HETATM    7  C8  UNL     1      23.824   6.179  48.350  1.00  0.00     0.117 A 
HETATM    8  F2  UNL     1      23.135   7.234  47.871  1.00  0.00    -0.206 F 
HETATM    9  C9  UNL     1      23.354   4.887  48.643  1.00  0.00     0.052 A 
HETATM   10  C10 UNL     1      23.992   3.724  49.143  1.00  0.00    -0.025 A 
HETATM   11  C11 UNL     1      22.920   2.731  49.221  1.00  0.00     0.207 C 
HETATM   12  O1  UNL     1      22.651   2.461  50.584  1.00  0.00    -0.381 OA
HETATM   13  C12 UNL     1      23.610   1.621  51.035  1.00  0.00     0.219 C 
HETATM   14  C13 UNL     1      23.668   1.474  52.491  1.00  0.00     0.033 C 
HETATM   15 CL1  UNL     1      22.350   0.861  53.468  1.00  0.00    -0.087 Cl
HETATM   16  C14 UNL     1      24.781   1.818  53.151  1.00  0.00     0.020 C 
ENDROOT
BRANCH   1  17
HETATM   17  N2  UNL     1      27.250   2.299  53.090  1.00  0.00    -0.374 N 
HETATM   18  H2  UNL     1      28.038   3.009  53.209  1.00  0.00     0.161 HD
BRANCH  17  19
HETATM   19  C1  UNL     1      27.547   1.044  53.699  1.00  0.00     0.238 C 
HETATM   20  N1  UNL     1      28.319   1.052  54.759  1.00  0.00    -0.083 NA
HETATM   21  F1  UNL     1      28.574  -0.155  55.303  1.00  0.00    -0.073 F 
ENDBRANCH  17  19
ENDBRANCH   1  17
TORSDOF 2
ENDMDL
MODEL 5
REMARK VINA RESULT:      -7.3      3.569      4.679
REMARK  2 active torsions:
REMARK  status: ('A' for Active; 'I' for Inactive)
REMARK    1  A    between atoms: C1_3  and  N2_4 
REMARK    2  A    between atoms: N2_4  and  C2_5 
ROOT
HETATM    1  C2  UNL     1      20.944   1.319  52.051  1.00  0.00     0.038 C 
HETATM    2  C3  UNL     1      22.099   1.880  52.356  1.00  0.00     0.095 C 
HETATM    3  C4  UNL     1      23.422   2.134  52.893  1.00  0.00     0.047 C 
HETATM    4  C5  UNL     1      24.242   0.910  53.104  1.00  0.00    -0.049 A 
HETATM    5  C6  UNL     1      25.331   1.054  52.213  1.00  0.00     0.011 A 
HETATM    6  C7  UNL     1      26.429   0.214  51.958  1.00  0.00     0.043 A 
HETATM    7  C8  UNL     1      26.434  -0.960  52.723  1.00  0.00     0.117 A 
HETATM    8  F2  UNL     1      27.459  -1.814  52.531  1.00  0.00    -0.206 F 
HETATM    9  C9  UNL     1      25.343  -1.085  53.602  1.00  0.00     0.052 A 
HETATM   10  C10 UNL     1      24.229  -0.252  53.873  1.00  0.00    -0.025 A 
HETATM   11  C11 UNL     1      23.474  -0.983  54.891  1.00  0.00     0.207 C 
HETATM   12  O1  UNL     1      22.260  -1.432  54.319  1.00  0.00    -0.381 OA
HETATM   13  C12 UNL     1      21.407  -0.384  54.283  1.00  0.00     0.219 C 
HETATM   14  C13 UNL     1      20.217  -0.582  53.452  1.00  0.00     0.033 C 
HETATM   15 CL1  UNL     1      19.026  -1.835  53.729  1.00  0.00    -0.087 Cl
HETATM   16  C14 UNL     1      19.993   0.225  52.408  1.00  0.00     0.020 C 
ENDROOT
BRANCH   1  17
HETATM   17  N2  UNL     1      20.456   2.408  51.244  1.00  0.00    -0.374 N 
HETATM   18  H2  UNL     1      20.952   3.118  50.620  1.00  0.00     0.161 HD
BRANCH  17  19
HETATM   19  C1  UNL     1      19.043   2.596  51.269  1.00  0.00     0.238 C 
HETATM   20  N1  UNL     1      18.578   3.616  51.949  1.00  0.00    -0.083 NA
HETATM   21  F1  UNL     1      17.236   3.755  51.945  1.00  0.00    -0.073 F 
ENDBRANCH  17  19
ENDBRANCH   1  17
TORSDOF 2
ENDMDL
MODEL 6
REMARK VINA RESULT:      -7.2      4.016      6.558
REMARK  2 active torsions:
REMARK  status: ('A' for Active; 'I' for Inactive)
REMARK    1  A    between atoms: C1_3  and  N2_4 
REMARK    2  A    between atoms: N2_4  and  C2_5 
ROOT
HETATM    1  C2  UNL     1      25.123   3.226  50.099  1.00  0.00     0.038 C 
HETATM    2  C3  UNL     1      25.248   2.910  51.375  1.00  0.00     0.095 C 
HETATM    3  C4  UNL     1      24.970   2.514  52.742  1.00  0.00     0.047 C 
HETATM    4  C5  UNL     1      23.780   1.633  52.894  1.00  0.00    -0.049 A 
HETATM    5  C6  UNL     1      24.302   0.410  53.376  1.00  0.00     0.011 A 
HETATM    6  C7  UNL     1      23.663  -0.798  53.703  1.00  0.00     0.043 A 
HETATM    7  C8  UNL     1      22.275  -0.774  53.515  1.00  0.00     0.117 A 
HETATM    8  F2  UNL     1      21.595  -1.901  53.809  1.00  0.00    -0.206 F 
HETATM    9  C9  UNL     1      21.775   0.449  53.035  1.00  0.00     0.052 A 
HETATM   10  C10 UNL     1      22.400   1.676  52.701  1.00  0.00    -0.025 A 
HETATM   11  C11 UNL     1      21.299   2.532  52.258  1.00  0.00     0.207 C 
HETATM   12  O1  UNL     1      21.431   2.757  50.867  1.00  0.00    -0.381 OA
HETATM   13  C12 UNL     1      22.381   3.702  50.689  1.00  0.00     0.219 C 
HETATM   14  C13 UNL     1      22.864   3.843  49.314  1.00  0.00     0.033 C 
HETATM   15 CL1  UNL     1      21.847   4.284  47.958  1.00  0.00    -0.087 Cl
HETATM   16  C14 UNL     1      24.156   3.630  49.037  1.00  0.00     0.020 C 
ENDROOT
BRANCH   1  17
HETATM   17  N2  UNL     1      26.526   3.451  49.863  1.00  0.00    -0.374 N 
HETATM   18  H2  UNL     1      27.400   2.927  50.180  1.00  0.00     0.161 HD
BRANCH  17  19
HETATM   19  C1  UNL     1      26.831   4.585  49.055  1.00  0.00     0.238 C 
HETATM   20  N1  UNL     1      28.067   4.719  48.638  1.00  0.00    -0.083 NA
HETATM   21  F1  UNL     1      28.311   5.805  47.877  1.00  0.00    -0.073 F 
ENDBRANCH  17  19
ENDBRANCH   1  17
TORSDOF 2
ENDMDL
MODEL 7
REMARK VINA RESULT:      -7.2      3.214      5.206
REMARK  2 active torsions:
REMARK  status: ('A' for Active; 'I' for Inactive)
REMARK    1  A    between atoms: C1_3  and  N2_4 
REMARK    2  A    between atoms: N2_4  and  C2_5 
ROOT
HETATM    1  C2  UNL     1      24.211   0.121  53.381  1.00  0.00     0.038 C 
HETATM    2  C3  UNL     1      23.102   0.713  52.979  1.00  0.00     0.095 C 
HETATM    3  C4  UNL     1      22.155   1.576  52.299  1.00  0.00     0.047 C 
HETATM    4  C5  UNL     1      22.587   2.011  50.943  1.00  0.00    -0.049 A 
HETATM    5  C6  UNL     1      21.637   1.437  50.066  1.00  0.00     0.011 A 
HETATM    6  C7  UNL     1      21.526   1.491  48.666  1.00  0.00     0.043 A 
HETATM    7  C8  UNL     1      22.531   2.244  48.047  1.00  0.00     0.117 A 
HETATM    8  F2  UNL     1      22.488   2.340  46.703  1.00  0.00    -0.206 F 
HETATM    9  C9  UNL     1      23.466   2.807  48.934  1.00  0.00     0.052 A 
HETATM   10  C10 UNL     1      23.596   2.764  50.345  1.00  0.00    -0.025 A 
HETATM   11  C11 UNL     1      24.795   3.556  50.619  1.00  0.00     0.207 C 
HETATM   12  O1  UNL     1      25.814   2.690  51.084  1.00  0.00    -0.381 OA
HETATM   13  C12 UNL     1      25.563   2.417  52.384  1.00  0.00     0.219 C 
HETATM   14  C13 UNL     1      26.334   1.304  52.943  1.00  0.00     0.033 C 
HETATM   15 CL1  UNL     1      28.083   1.273  53.036  1.00  0.00    -0.087 Cl
HETATM   16  C14 UNL     1      25.699   0.228  53.422  1.00  0.00     0.020 C 
ENDROOT
BRANCH   1  17
HETATM   17  N2  UNL     1      23.570  -0.799  54.286  1.00  0.00    -0.374 N 
HETATM   18  H2  UNL     1      23.886  -1.238  55.205  1.00  0.00     0.161 HD
BRANCH  17  19
HETATM   19  C1  UNL     1      22.263  -1.217  53.900  1.00  0.00     0.238 C 
HETATM   20  N1  UNL     1      21.472  -1.681  54.837  1.00  0.00    -0.083 NA
HETATM   21  F1  UNL     1      20.246  -2.065  54.428  1.00  0.00    -0.073 F 
ENDBRANCH  17  19
ENDBRANCH   1  17
TORSDOF 2
ENDMDL
MODEL 8
REMARK VINA RESULT:      -7.2      3.817      5.796
REMARK  2 active torsions:
REMARK  status: ('A' for Active; 'I' for Inactive)
REMARK    1  A    between atoms: C1_3  and  N2_4 
REMARK    2  A    between atoms: N2_4  and  C2_5 
ROOT
HETATM    1  C2  UNL     1      24.823   0.138  53.303  1.00  0.00     0.038 C 
HETATM    2  C3  UNL     1      25.048   0.933  52.272  1.00  0.00     0.095 C 
HETATM    3  C4  UNL     1      24.879   1.846  51.159  1.00  0.00     0.047 C 
HETATM    4  C5  UNL     1      23.694   2.740  51.275  1.00  0.00    -0.049 A 
HETATM    5  C6  UNL     1      24.240   4.042  51.363  1.00  0.00     0.011 A 
HETATM    6  C7  UNL     1      23.615   5.295  51.494  1.00  0.00     0.043 A 
HETATM    7  C8  UNL     1      22.217   5.228  51.546  1.00  0.00     0.117 A 
HETATM    8  F2  UNL     1      21.551   6.393  51.671  1.00  0.00    -0.206 F 
HETATM    9  C9  UNL     1      21.694   3.925  51.457  1.00  0.00     0.052 A 
HETATM   10  C10 UNL     1      22.305   2.653  51.324  1.00  0.00    -0.025 A 
HETATM   11  C11 UNL     1      21.181   1.717  51.300  1.00  0.00     0.207 C 
HETATM   12  O1  UNL     1      21.201   0.954  52.493  1.00  0.00    -0.381 OA
HETATM   13  C12 UNL     1      22.144  -0.004  52.355  1.00  0.00     0.219 C 
HETATM   14  C13 UNL     1      22.515  -0.691  53.594  1.00  0.00     0.033 C 
HETATM   15 CL1  UNL     1      21.395  -1.613  54.576  1.00  0.00    -0.087 Cl
HETATM   16  C14 UNL     1      23.777  -0.633  54.035  1.00  0.00     0.020 C 
ENDROOT
BRANCH   1  17
HETATM   17  N2  UNL     1      26.205  -0.192  53.541  1.00  0.00    -0.374 N 
HETATM   18  H2  UNL     1      26.966   0.279  54.122  1.00  0.00     0.161 HD
BRANCH  17  19
HETATM   19  C1  UNL     1      26.668  -1.371  52.885  1.00  0.00     0.238 C 
HETATM   20  N1  UNL     1      27.773  -1.918  53.331  1.00  0.00    -0.083 NA
HETATM   21  F1  UNL     1      28.175  -3.030  52.682  1.00  0.00    -0.073 F 
ENDBRANCH  17  19
ENDBRANCH   1  17
TORSDOF 2
ENDMDL
MODEL 9
REMARK VINA RESULT:      -7.2      2.726      6.244
REMARK  2 active torsions:
REMARK  status: ('A' for Active; 'I' for Inactive)
REMARK    1  A    between atoms: C1_3  and  N2_4 
REMARK    2  A    between atoms: N2_4  and  C2_5 
ROOT
HETATM    1  C2  UNL     1      25.875   0.662  51.998  1.00  0.00     0.038 C 
HETATM    2  C3  UNL     1      24.840   0.458  52.792  1.00  0.00     0.095 C 
HETATM    3  C4  UNL     1      23.548   0.554  53.443  1.00  0.00     0.047 C 
HETATM    4  C5  UNL     1      22.463   1.087  52.573  1.00  0.00    -0.049 A 
HETATM    5  C6  UNL     1      21.548   0.015  52.450  1.00  0.00     0.011 A 
HETATM    6  C7  UNL     1      20.334  -0.082  51.748  1.00  0.00     0.043 A 
HETATM    7  C8  UNL     1      19.983   1.086  51.059  1.00  0.00     0.117 A 
HETATM    8  F2  UNL     1      18.828   1.065  50.363  1.00  0.00    -0.206 F 
HETATM    9  C9  UNL     1      20.905   2.140  51.194  1.00  0.00     0.052 A 
HETATM   10  C10 UNL     1      22.131   2.258  51.895  1.00  0.00    -0.025 A 
HETATM   11  C11 UNL     1      22.580   3.620  51.605  1.00  0.00     0.207 C 
HETATM   12  O1  UNL     1      23.729   3.552  50.782  1.00  0.00    -0.381 OA
HETATM   13  C12 UNL     1      24.786   3.255  51.570  1.00  0.00     0.219 C 
HETATM   14  C13 UNL     1      25.997   2.848  50.855  1.00  0.00     0.033 C 
HETATM   15 CL1  UNL     1      26.847   3.864  49.709  1.00  0.00    -0.087 Cl
HETATM   16  C14 UNL     1      26.516   1.632  51.063  1.00  0.00     0.020 C 
ENDROOT
BRANCH   1  17
HETATM   17  N2  UNL     1      26.682  -0.409  52.526  1.00  0.00    -0.374 N 
HETATM   18  H2  UNL     1      26.622  -1.470  52.425  1.00  0.00     0.161 HD
BRANCH  17  19
HETATM   19  C1  UNL     1      27.774   0.002  53.346  1.00  0.00     0.238 C 
HETATM   20  N1  UNL     1      27.760  -0.366  54.604  1.00  0.00    -0.083 NA
HETATM   21  F1  UNL     1      28.812   0.044  55.342  1.00  0.00    -0.073 F 
ENDBRANCH  17  19
ENDBRANCH   1  17
TORSDOF 2
ENDMDL
