MODEL 1
REMARK VINA RESULT:      -7.3      0.000      0.000
REMARK  6 active torsions:
REMARK  status: ('A' for Active; 'I' for Inactive)
REMARK    1  A    between atoms: C3_3  and  N1_4 
REMARK    2  A    between atoms: C10_12  and  N2_13 
REMARK    3  A    between atoms: C12_16  and  C13_17 
REMARK    4  A    between atoms: C13_17  and  C14_18 
REMARK    5  A    between atoms: C14_18  and  N4_19 
REMARK       I    between atoms: N4_19  and  C15_20 
REMARK    6  A    between atoms: C15_20  and  C16_22 
ROOT
HETATM    1  C16 UNL     1      27.511   0.228  53.693  1.00  0.00    -0.004 C 
HETATM    2  C17 UNL     1      28.532  -0.425  53.551  1.00  0.00    -0.101 C 
HETATM    3  C18 UNL     1      29.772  -1.191  53.392  1.00  0.00     0.112 C 
ENDROOT
BRANCH   1   4
HETATM    4  C15 UNL     1      26.313   1.013  53.867  1.00  0.00     0.321 C 
HETATM    5  N4  UNL     1      25.087   0.407  53.409  1.00  0.00    -0.215 NA
HETATM    6  O1  UNL     1      26.501   2.140  54.402  1.00  0.00    -0.256 OA
BRANCH   5   7
HETATM    7  C14 UNL     1      24.367   0.902  52.498  1.00  0.00     0.123 C 
BRANCH   7   8
HETATM    8  C13 UNL     1      23.740   1.687  51.452  1.00  0.00     0.051 C 
BRANCH   8   9
HETATM    9  C12 UNL     1      23.823   3.004  51.488  1.00  0.00     0.066 A 
HETATM   10  C2  UNL     1      24.245   3.744  50.428  1.00  0.00    -0.000 A 
HETATM   11  C1  UNL     1      24.550   2.988  49.423  1.00  0.00     0.048 C 
HETATM   12  C3  UNL     1      24.378   5.104  50.329  1.00  0.00     0.066 A 
HETATM   13  C10 UNL     1      24.004   5.679  51.520  1.00  0.00     0.051 A 
HETATM   14  C11 UNL     1      23.563   5.006  52.647  1.00  0.00     0.142 A 
HETATM   15  N3  UNL     1      23.480   3.662  52.608  1.00  0.00    -0.259 NA
BRANCH  12  16
HETATM   16  N1  UNL     1      24.772   5.895  49.261  1.00  0.00    -0.346 N 
HETATM   17  C4  UNL     1      23.839   6.330  48.290  1.00  0.00     0.092 C 
HETATM   18  C5  UNL     1      24.000   7.171  47.285  1.00  0.00     0.018 C 
HETATM   19  C6  UNL     1      25.310   7.775  47.082  1.00  0.00     0.018 C 
HETATM   20  C7  UNL     1      26.208   7.386  47.952  1.00  0.00     0.011 C 
HETATM   21 BR1  UNL     1      28.010   8.071  47.869  1.00  0.00    -0.053 Br
HETATM   22  C8  UNL     1      26.099   6.385  49.049  1.00  0.00     0.125 C 
HETATM   23  C9  UNL     1      27.075   5.274  48.708  1.00  0.00     0.038 C 
ENDBRANCH  12  16
BRANCH  13  24
HETATM   24  N2  UNL     1      23.974   7.053  51.832  1.00  0.00    -0.300 NA
HETATM   25  H10 UNL     1      24.133   7.656  52.680  1.00  0.00     0.124 HD
HETATM   26  H11 UNL     1      24.132   7.671  52.681  1.00  0.00     0.124 HD
ENDBRANCH  13  24
ENDBRANCH   8   9
ENDBRANCH   7   8
ENDBRANCH   5   7
ENDBRANCH   1   4
TORSDOF 6
ENDMDL
MODEL 2
REMARK VINA RESULT:      -6.9      1.840      2.537
REMARK  6 active torsions:
REMARK  status: ('A' for Active; 'I' for Inactive)
REMARK    1  A    between atoms: C3_3  and  N1_4 
REMARK    2  A    between atoms: C10_12  and  N2_13 
REMARK    3  A    between atoms: C12_16  and  C13_17 
REMARK    4  A    between atoms: C13_17  and  C14_18 
REMARK    5  A    between atoms: C14_18  and  N4_19 
REMARK       I    between atoms: N4_19  and  C15_20 
REMARK    6  A    between atoms: C15_20  and  C16_22 
ROOT
HETATM    1  C16 UNL     1      27.695  -0.169  54.168  1.00  0.00    -0.004 C 
HETATM    2  C17 UNL     1      28.830  -0.505  53.873  1.00  0.00    -0.101 C 
HETATM    3  C18 UNL     1      30.187  -0.933  53.518  1.00  0.00     0.112 C 
ENDROOT
BRANCH   1   4
HETATM    4  C15 UNL     1      26.349   0.212  54.520  1.00  0.00     0.321 C 
HETATM    5  N4  UNL     1      25.299  -0.336  53.697  1.00  0.00    -0.215 NA
HETATM    6  O1  UNL     1      26.268   0.985  55.515  1.00  0.00    -0.256 OA
BRANCH   5   7
HETATM    7  C14 UNL     1      24.510   0.376  53.015  1.00  0.00     0.123 C 
BRANCH   7   8
HETATM    8  C13 UNL     1      23.850   1.325  52.141  1.00  0.00     0.051 C 
BRANCH   8   9
HETATM    9  C12 UNL     1      24.571   2.219  51.488  1.00  0.00     0.066 A 
HETATM   10  C2  UNL     1      24.053   3.391  51.032  1.00  0.00    -0.000 A 
HETATM   11  C1  UNL     1      22.795   3.488  51.317  1.00  0.00     0.048 C 
HETATM   12  C3  UNL     1      24.681   4.398  50.347  1.00  0.00     0.066 A 
HETATM   13  C10 UNL     1      26.000   4.059  50.161  1.00  0.00     0.051 A 
HETATM   14  C11 UNL     1      26.610   2.892  50.589  1.00  0.00     0.142 A 
HETATM   15  N3  UNL     1      25.872   1.981  51.254  1.00  0.00    -0.259 NA
BRANCH  12  16
HETATM   16  N1  UNL     1      24.199   5.617  49.896  1.00  0.00    -0.346 N 
HETATM   17  C4  UNL     1      24.015   6.704  50.781  1.00  0.00     0.092 C 
HETATM   18  C5  UNL     1      23.685   7.956  50.522  1.00  0.00     0.018 C 
HETATM   19  C6  UNL     1      23.454   8.344  49.137  1.00  0.00     0.018 C 
HETATM   20  C7  UNL     1      23.598   7.361  48.284  1.00  0.00     0.011 C 
HETATM   21 BR1  UNL     1      23.344   7.660  46.395  1.00  0.00    -0.053 Br
HETATM   22  C8  UNL     1      23.890   5.922  48.532  1.00  0.00     0.125 C 
HETATM   23  C9  UNL     1      22.682   5.152  48.030  1.00  0.00     0.038 C 
ENDBRANCH  12  16
BRANCH  13  24
HETATM   24  N2  UNL     1      26.996   4.824  49.521  1.00  0.00    -0.300 NA
HETATM   25  H10 UNL     1      27.036   5.646  48.867  1.00  0.00     0.124 HD
HETATM   26  H11 UNL     1      27.048   5.653  48.861  1.00  0.00     0.124 HD
ENDBRANCH  13  24
ENDBRANCH   8   9
ENDBRANCH   7   8
ENDBRANCH   5   7
ENDBRANCH   1   4
TORSDOF 6
ENDMDL
MODEL 3
REMARK VINA RESULT:      -6.8      3.296      3.901
REMARK  6 active torsions:
REMARK  status: ('A' for Active; 'I' for Inactive)
REMARK    1  A    between atoms: C3_3  and  N1_4 
REMARK    2  A    between atoms: C10_12  and  N2_13 
REMARK    3  A    between atoms: C12_16  and  C13_17 
REMARK    4  A    between atoms: C13_17  and  C14_18 
REMARK    5  A    between atoms: C14_18  and  N4_19 
REMARK       I    between atoms: N4_19  and  C15_20 
REMARK    6  A    between atoms: C15_20  and  C16_22 
ROOT
HETATM    1  C16 UNL     1      27.748  -0.136  54.202  1.00  0.00    -0.004 C 
HETATM    2  C17 UNL     1      28.846  -0.537  53.855  1.00  0.00    -0.101 C 
HETATM    3  C18 UNL     1      30.168  -1.033  53.457  1.00  0.00     0.112 C 
ENDROOT
BRANCH   1   4
HETATM    4  C15 UNL     1      26.451   0.332  54.628  1.00  0.00     0.321 C 
HETATM    5  N4  UNL     1      25.390  -0.645  54.618  1.00  0.00    -0.215 NA
HETATM    6  O1  UNL     1      26.418   1.550  54.958  1.00  0.00    -0.256 OA
BRANCH   5   7
HETATM    7  C14 UNL     1      24.353  -0.535  53.906  1.00  0.00     0.123 C 
BRANCH   7   8
HETATM    8  C13 UNL     1      23.233  -0.122  53.084  1.00  0.00     0.051 C 
BRANCH   8   9
HETATM    9  C12 UNL     1      23.222   1.089  52.558  1.00  0.00     0.066 A 
HETATM   10  C2  UNL     1      22.445   1.422  51.493  1.00  0.00    -0.000 A 
HETATM   11  C1  UNL     1      21.753   0.408  51.085  1.00  0.00     0.048 C 
HETATM   12  C3  UNL     1      22.336   2.628  50.854  1.00  0.00     0.066 A 
HETATM   13  C10 UNL     1      23.170   3.536  51.463  1.00  0.00     0.051 A 
HETATM   14  C11 UNL     1      23.993   3.285  52.549  1.00  0.00     0.142 A 
HETATM   15  N3  UNL     1      24.003   2.048  53.083  1.00  0.00    -0.259 NA
BRANCH  12  16
HETATM   16  N1  UNL     1      21.535   3.016  49.790  1.00  0.00    -0.346 N 
HETATM   17  C4  UNL     1      20.186   3.391  49.989  1.00  0.00     0.092 C 
HETATM   18  C5  UNL     1      19.316   3.893  49.133  1.00  0.00     0.018 C 
HETATM   19  C6  UNL     1      19.740   4.115  47.757  1.00  0.00     0.018 C 
HETATM   20  C7  UNL     1      20.980   3.766  47.526  1.00  0.00     0.011 C 
HETATM   21 BR1  UNL     1      21.746   3.983  45.768  1.00  0.00    -0.053 Br
HETATM   22  C8  UNL     1      21.972   3.125  48.432  1.00  0.00     0.125 C 
HETATM   23  C9  UNL     1      22.293   1.772  47.821  1.00  0.00     0.038 C 
ENDBRANCH  12  16
BRANCH  13  24
HETATM   24  N2  UNL     1      23.345   4.893  51.129  1.00  0.00    -0.300 NA
HETATM   25  H10 UNL     1      24.149   5.553  50.973  1.00  0.00     0.124 HD
HETATM   26  H11 UNL     1      24.149   5.567  50.969  1.00  0.00     0.124 HD
ENDBRANCH  13  24
ENDBRANCH   8   9
ENDBRANCH   7   8
ENDBRANCH   5   7
ENDBRANCH   1   4
TORSDOF 6
ENDMDL
MODEL 4
REMARK VINA RESULT:      -6.6      3.905      7.319
REMARK  6 active torsions:
REMARK  status: ('A' for Active; 'I' for Inactive)
REMARK    1  A    between atoms: C3_3  and  N1_4 
REMARK    2  A    between atoms: C10_12  and  N2_13 
REMARK    3  A    between atoms: C12_16  and  C13_17 
REMARK    4  A    between atoms: C13_17  and  C14_18 
REMARK    5  A    between atoms: C14_18  and  N4_19 
REMARK       I    between atoms: N4_19  and  C15_20 
REMARK    6  A    between atoms: C15_20  and  C16_22 
ROOT
HETATM    1  C16 UNL     1      30.393   9.286  48.416  1.00  0.00    -0.004 C 
HETATM    2  C17 UNL     1      30.471  10.456  48.752  1.00  0.00    -0.101 C 
HETATM    3  C18 UNL     1      30.580  11.866  49.137  1.00  0.00     0.112 C 
ENDROOT
BRANCH   1   4
HETATM    4  C15 UNL     1      30.316   7.904  48.009  1.00  0.00     0.321 C 
HETATM    5  N4  UNL     1      29.059   7.480  47.441  1.00  0.00    -0.215 NA
HETATM    6  O1  UNL     1      31.371   7.241  48.207  1.00  0.00    -0.256 OA
BRANCH   5   7
HETATM    7  C14 UNL     1      28.337   6.579  47.951  1.00  0.00     0.123 C 
BRANCH   7   8
HETATM    8  C13 UNL     1      27.758   5.393  48.551  1.00  0.00     0.051 C 
BRANCH   8   9
HETATM    9  C12 UNL     1      26.654   5.498  49.268  1.00  0.00     0.066 A 
HETATM   10  C2  UNL     1      25.935   4.418  49.674  1.00  0.00    -0.000 A 
HETATM   11  C1  UNL     1      26.472   3.316  49.258  1.00  0.00     0.048 C 
HETATM   12  C3  UNL     1      24.783   4.383  50.414  1.00  0.00     0.066 A 
HETATM   13  C10 UNL     1      24.409   5.669  50.725  1.00  0.00     0.051 A 
HETATM   14  C11 UNL     1      25.079   6.823  50.355  1.00  0.00     0.142 A 
HETATM   15  N3  UNL     1      26.205   6.714  49.623  1.00  0.00    -0.259 NA
BRANCH  12  16
HETATM   16  N1  UNL     1      24.040   3.306  50.875  1.00  0.00    -0.346 N 
HETATM   17  C4  UNL     1      22.801   2.967  50.283  1.00  0.00     0.092 C 
HETATM   18  C5  UNL     1      22.020   1.924  50.502  1.00  0.00     0.018 C 
HETATM   19  C6  UNL     1      22.433   0.939  51.493  1.00  0.00     0.018 C 
HETATM   20  C7  UNL     1      23.570   1.224  52.076  1.00  0.00     0.011 C 
HETATM   21 BR1  UNL     1      24.304   0.047  53.417  1.00  0.00    -0.053 Br
HETATM   22  C8  UNL     1      24.444   2.420  51.923  1.00  0.00     0.125 C 
HETATM   23  C9  UNL     1      24.466   3.105  53.278  1.00  0.00     0.038 C 
ENDBRANCH  12  16
BRANCH  13  24
HETATM   24  N2  UNL     1      23.296   6.074  51.487  1.00  0.00    -0.300 NA
HETATM   25  H10 UNL     1      22.448   6.682  51.352  1.00  0.00     0.124 HD
HETATM   26  H11 UNL     1      22.436   6.685  51.362  1.00  0.00     0.124 HD
ENDBRANCH  13  24
ENDBRANCH   8   9
ENDBRANCH   7   8
ENDBRANCH   5   7
ENDBRANCH   1   4
TORSDOF 6
ENDMDL
MODEL 5
REMARK VINA RESULT:      -6.6      2.188      3.484
REMARK  6 active torsions:
REMARK  status: ('A' for Active; 'I' for Inactive)
REMARK    1  A    between atoms: C3_3  and  N1_4 
REMARK    2  A    between atoms: C10_12  and  N2_13 
REMARK    3  A    between atoms: C12_16  and  C13_17 
REMARK    4  A    between atoms: C13_17  and  C14_18 
REMARK    5  A    between atoms: C14_18  and  N4_19 
REMARK       I    between atoms: N4_19  and  C15_20 
REMARK    6  A    between atoms: C15_20  and  C16_22 
ROOT
HETATM    1  C16 UNL     1      24.844  -0.086  53.047  1.00  0.00    -0.004 C 
HETATM    2  C17 UNL     1      23.813  -0.425  53.603  1.00  0.00    -0.101 C 
HETATM    3  C18 UNL     1      22.563  -0.837  54.250  1.00  0.00     0.112 C 
ENDROOT
BRANCH   1   4
HETATM    4  C15 UNL     1      26.054   0.318  52.373  1.00  0.00     0.321 C 
HETATM    5  N4  UNL     1      26.282   1.739  52.276  1.00  0.00    -0.215 NA
HETATM    6  O1  UNL     1      26.762  -0.639  51.953  1.00  0.00    -0.256 OA
BRANCH   5   7
HETATM    7  C14 UNL     1      26.368   2.353  51.176  1.00  0.00     0.123 C 
BRANCH   7   8
HETATM    8  C13 UNL     1      26.183   3.118  49.959  1.00  0.00     0.051 C 
BRANCH   8   9
HETATM    9  C12 UNL     1      25.840   4.392  50.036  1.00  0.00     0.066 A 
HETATM   10  C2  UNL     1      26.501   5.373  49.365  1.00  0.00    -0.000 A 
HETATM   11  C1  UNL     1      27.483   4.889  48.676  1.00  0.00     0.048 C 
HETATM   12  C3  UNL     1      26.255   6.721  49.354  1.00  0.00     0.066 A 
HETATM   13  C10 UNL     1      25.175   6.986  50.163  1.00  0.00     0.051 A 
HETATM   14  C11 UNL     1      24.446   6.053  50.880  1.00  0.00     0.142 A 
HETATM   15  N3  UNL     1      24.798   4.755  50.801  1.00  0.00    -0.259 NA
BRANCH  12  16
HETATM   16  N1  UNL     1      26.882   7.746  48.662  1.00  0.00    -0.346 N 
HETATM   17  C4  UNL     1      27.758   8.642  49.318  1.00  0.00     0.092 C 
HETATM   18  C5  UNL     1      28.525   9.590  48.813  1.00  0.00     0.018 C 
HETATM   19  C6  UNL     1      28.513   9.805  47.373  1.00  0.00     0.018 C 
HETATM   20  C7  UNL     1      27.702   9.005  46.728  1.00  0.00     0.011 C 
HETATM   21 BR1  UNL     1      27.538   9.117  44.809  1.00  0.00    -0.053 Br
HETATM   22  C8  UNL     1      26.761   7.979  47.256  1.00  0.00     0.125 C 
HETATM   23  C9  UNL     1      25.368   8.441  46.867  1.00  0.00     0.038 C 
ENDBRANCH  12  16
BRANCH  13  24
HETATM   24  N2  UNL     1      24.584   8.240  50.414  1.00  0.00    -0.300 NA
HETATM   25  H10 UNL     1      24.604   8.964  51.177  1.00  0.00     0.124 HD
HETATM   26  H11 UNL     1      24.596   8.978  51.178  1.00  0.00     0.124 HD
ENDBRANCH  13  24
ENDBRANCH   8   9
ENDBRANCH   7   8
ENDBRANCH   5   7
ENDBRANCH   1   4
TORSDOF 6
ENDMDL
MODEL 6
REMARK VINA RESULT:      -6.6      3.881      7.251
REMARK  6 active torsions:
REMARK  status: ('A' for Active; 'I' for Inactive)
REMARK    1  A    between atoms: C3_3  and  N1_4 
REMARK    2  A    between atoms: C10_12  and  N2_13 
REMARK    3  A    between atoms: C12_16  and  C13_17 
REMARK    4  A    between atoms: C13_17  and  C14_18 
REMARK    5  A    between atoms: C14_18  and  N4_19 
REMARK       I    between atoms: N4_19  and  C15_20 
REMARK    6  A    between atoms: C15_20  and  C16_22 
ROOT
HETATM    1  C16 UNL     1      30.893   9.059  48.758  1.00  0.00    -0.004 C 
HETATM    2  C17 UNL     1      30.908  10.278  48.702  1.00  0.00    -0.101 C 
HETATM    3  C18 UNL     1      30.949  11.742  48.630  1.00  0.00     0.112 C 
ENDROOT
BRANCH   1   4
HETATM    4  C15 UNL     1      30.894   7.618  48.824  1.00  0.00     0.321 C 
HETATM    5  N4  UNL     1      30.050   6.940  47.871  1.00  0.00    -0.215 NA
HETATM    6  O1  UNL     1      31.642   7.136  49.719  1.00  0.00    -0.256 OA
BRANCH   5   7
HETATM    7  C14 UNL     1      29.085   6.196  48.206  1.00  0.00     0.123 C 
BRANCH   7   8
HETATM    8  C13 UNL     1      28.009   5.232  48.319  1.00  0.00     0.051 C 
BRANCH   8   9
HETATM    9  C12 UNL     1      26.955   5.517  49.063  1.00  0.00     0.066 A 
HETATM   10  C2  UNL     1      26.172   4.559  49.627  1.00  0.00    -0.000 A 
HETATM   11  C1  UNL     1      26.595   3.373  49.327  1.00  0.00     0.048 C 
HETATM   12  C3  UNL     1      25.061   4.712  50.413  1.00  0.00     0.066 A 
HETATM   13  C10 UNL     1      24.810   6.053  50.580  1.00  0.00     0.051 A 
HETATM   14  C11 UNL     1      25.552   7.093  50.045  1.00  0.00     0.142 A 
HETATM   15  N3  UNL     1      26.626   6.800  49.286  1.00  0.00    -0.259 NA
BRANCH  12  16
HETATM   16  N1  UNL     1      24.257   3.766  51.031  1.00  0.00    -0.346 N 
HETATM   17  C4  UNL     1      24.677   3.109  52.211  1.00  0.00     0.092 C 
HETATM   18  C5  UNL     1      24.013   2.280  52.996  1.00  0.00     0.018 C 
HETATM   19  C6  UNL     1      22.639   1.943  52.651  1.00  0.00     0.018 C 
HETATM   20  C7  UNL     1      22.215   2.519  51.554  1.00  0.00     0.011 C 
HETATM   21 BR1  UNL     1      20.419   2.214  50.920  1.00  0.00    -0.053 Br
HETATM   22  C8  UNL     1      22.946   3.394  50.597  1.00  0.00     0.125 C 
HETATM   23  C9  UNL     1      22.969   2.648  49.274  1.00  0.00     0.038 C 
ENDBRANCH  12  16
BRANCH  13  24
HETATM   24  N2  UNL     1      23.774   6.641  51.332  1.00  0.00    -0.300 NA
HETATM   25  H10 UNL     1      23.470   6.667  52.339  1.00  0.00     0.124 HD
HETATM   26  H11 UNL     1      23.459   6.674  52.346  1.00  0.00     0.124 HD
ENDBRANCH  13  24
ENDBRANCH   8   9
ENDBRANCH   7   8
ENDBRANCH   5   7
ENDBRANCH   1   4
TORSDOF 6
ENDMDL
MODEL 7
REMARK VINA RESULT:      -6.5      2.263      2.855
REMARK  6 active torsions:
REMARK  status: ('A' for Active; 'I' for Inactive)
REMARK    1  A    between atoms: C3_3  and  N1_4 
REMARK    2  A    between atoms: C10_12  and  N2_13 
REMARK    3  A    between atoms: C12_16  and  C13_17 
REMARK    4  A    between atoms: C13_17  and  C14_18 
REMARK    5  A    between atoms: C14_18  and  N4_19 
REMARK       I    between atoms: N4_19  and  C15_20 
REMARK    6  A    between atoms: C15_20  and  C16_22 
ROOT
HETATM    1  C16 UNL     1      27.574  -0.124  53.926  1.00  0.00    -0.004 C 
HETATM    2  C17 UNL     1      28.636  -0.681  53.704  1.00  0.00    -0.101 C 
HETATM    3  C18 UNL     1      29.905  -1.371  53.452  1.00  0.00     0.112 C 
ENDROOT
BRANCH   1   4
HETATM    4  C15 UNL     1      26.314   0.524  54.200  1.00  0.00     0.321 C 
HETATM    5  N4  UNL     1      25.130  -0.214  53.837  1.00  0.00    -0.215 NA
HETATM    6  O1  UNL     1      26.418   1.666  54.727  1.00  0.00    -0.256 OA
BRANCH   5   7
HETATM    7  C14 UNL     1      24.289   0.197  52.989  1.00  0.00     0.123 C 
BRANCH   7   8
HETATM    8  C13 UNL     1      23.391   0.935  52.123  1.00  0.00     0.051 C 
BRANCH   8   9
HETATM    9  C12 UNL     1      23.484   2.251  52.057  1.00  0.00     0.066 A 
HETATM   10  C2  UNL     1      23.173   2.955  50.936  1.00  0.00    -0.000 A 
HETATM   11  C1  UNL     1      22.796   2.169  49.980  1.00  0.00     0.048 C 
HETATM   12  C3  UNL     1      23.224   4.309  50.732  1.00  0.00     0.066 A 
HETATM   13  C10 UNL     1      23.658   4.921  51.884  1.00  0.00     0.051 A 
HETATM   14  C11 UNL     1      23.995   4.285  53.067  1.00  0.00     0.142 A 
HETATM   15  N3  UNL     1      23.900   2.943  53.131  1.00  0.00    -0.259 NA
BRANCH  12  16
HETATM   16  N1  UNL     1      22.886   5.066  49.620  1.00  0.00    -0.346 N 
HETATM   17  C4  UNL     1      23.881   5.644  48.799  1.00  0.00     0.092 C 
HETATM   18  C5  UNL     1      23.759   6.287  47.652  1.00  0.00     0.018 C 
HETATM   19  C6  UNL     1      22.427   6.468  47.092  1.00  0.00     0.018 C 
HETATM   20  C7  UNL     1      21.472   5.960  47.831  1.00  0.00     0.011 C 
HETATM   21 BR1  UNL     1      19.630   6.083  47.269  1.00  0.00    -0.053 Br
HETATM   22  C8  UNL     1      21.550   5.300  49.163  1.00  0.00     0.125 C 
HETATM   23  C9  UNL     1      20.761   6.178  50.118  1.00  0.00     0.038 C 
ENDBRANCH  12  16
BRANCH  13  24
HETATM   24  N2  UNL     1      23.831   6.302  52.104  1.00  0.00    -0.300 NA
HETATM   25  H10 UNL     1      24.259   6.919  52.841  1.00  0.00     0.124 HD
HETATM   26  H11 UNL     1      24.260   6.934  52.841  1.00  0.00     0.124 HD
ENDBRANCH  13  24
ENDBRANCH   8   9
ENDBRANCH   7   8
ENDBRANCH   5   7
ENDBRANCH   1   4
TORSDOF 6
ENDMDL
MODEL 8
REMARK VINA RESULT:      -6.4      2.545      3.859
REMARK  6 active torsions:
REMARK  status: ('A' for Active; 'I' for Inactive)
REMARK    1  A    between atoms: C3_3  and  N1_4 
REMARK    2  A    between atoms: C10_12  and  N2_13 
REMARK    3  A    between atoms: C12_16  and  C13_17 
REMARK    4  A    between atoms: C13_17  and  C14_18 
REMARK    5  A    between atoms: C14_18  and  N4_19 
REMARK       I    between atoms: N4_19  and  C15_20 
REMARK    6  A    between atoms: C15_20  and  C16_22 
ROOT
HETATM    1  C16 UNL     1      22.836   0.240  53.386  1.00  0.00    -0.004 C 
HETATM    2  C17 UNL     1      22.097  -0.644  53.788  1.00  0.00    -0.101 C 
HETATM    3  C18 UNL     1      21.228  -1.717  54.281  1.00  0.00     0.112 C 
ENDROOT
BRANCH   1   4
HETATM    4  C15 UNL     1      23.723   1.275  52.915  1.00  0.00     0.321 C 
HETATM    5  N4  UNL     1      23.117   2.556  52.648  1.00  0.00    -0.215 NA
HETATM    6  O1  UNL     1      24.928   0.916  52.797  1.00  0.00    -0.256 OA
BRANCH   5   7
HETATM    7  C14 UNL     1      23.113   3.096  51.506  1.00  0.00     0.123 C 
BRANCH   7   8
HETATM    8  C13 UNL     1      23.354   3.561  50.155  1.00  0.00     0.051 C 
BRANCH   8   9
HETATM    9  C12 UNL     1      24.553   4.002  49.821  1.00  0.00     0.066 A 
HETATM   10  C2  UNL     1      24.806   5.310  49.549  1.00  0.00    -0.000 A 
HETATM   11  C1  UNL     1      23.733   6.025  49.652  1.00  0.00     0.048 C 
HETATM   12  C3  UNL     1      25.991   5.899  49.195  1.00  0.00     0.066 A 
HETATM   13  C10 UNL     1      26.973   4.938  49.145  1.00  0.00     0.051 A 
HETATM   14  C11 UNL     1      26.805   3.588  49.406  1.00  0.00     0.142 A 
HETATM   15  N3  UNL     1      25.581   3.140  49.744  1.00  0.00    -0.259 NA
BRANCH  12  16
HETATM   16  N1  UNL     1      26.297   7.227  48.941  1.00  0.00    -0.346 N 
HETATM   17  C4  UNL     1      26.539   8.137  49.997  1.00  0.00     0.092 C 
HETATM   18  C5  UNL     1      26.953   9.390  49.952  1.00  0.00     0.018 C 
HETATM   19  C6  UNL     1      27.213   9.992  48.652  1.00  0.00     0.018 C 
HETATM   20  C7  UNL     1      26.986   9.188  47.644  1.00  0.00     0.011 C 
HETATM   21 BR1  UNL     1      27.274   9.784  45.832  1.00  0.00    -0.053 Br
HETATM   22  C8  UNL     1      26.446   7.800  47.639  1.00  0.00     0.125 C 
HETATM   23  C9  UNL     1      25.131   7.860  46.883  1.00  0.00     0.038 C 
ENDBRANCH  12  16
BRANCH  13  24
HETATM   24  N2  UNL     1      28.336   5.124  48.839  1.00  0.00    -0.300 NA
HETATM   25  H10 UNL     1      28.903   5.662  48.135  1.00  0.00     0.124 HD
HETATM   26  H11 UNL     1      28.918   5.663  48.134  1.00  0.00     0.124 HD
ENDBRANCH  13  24
ENDBRANCH   8   9
ENDBRANCH   7   8
ENDBRANCH   5   7
ENDBRANCH   1   4
TORSDOF 6
ENDMDL
MODEL 9
REMARK VINA RESULT:      -6.4      1.732      2.166
REMARK  6 active torsions:
REMARK  status: ('A' for Active; 'I' for Inactive)
REMARK    1  A    between atoms: C3_3  and  N1_4 
REMARK    2  A    between atoms: C10_12  and  N2_13 
REMARK    3  A    between atoms: C12_16  and  C13_17 
REMARK    4  A    between atoms: C13_17  and  C14_18 
REMARK    5  A    between atoms: C14_18  and  N4_19 
REMARK       I    between atoms: N4_19  and  C15_20 
REMARK    6  A    between atoms: C15_20  and  C16_22 
ROOT
HETATM    1  C16 UNL     1      24.109   0.077  53.210  1.00  0.00    -0.004 C 
HETATM    2  C17 UNL     1      25.264  -0.202  53.483  1.00  0.00    -0.101 C 
HETATM    3  C18 UNL     1      26.652  -0.556  53.796  1.00  0.00     0.112 C 
ENDROOT
BRANCH   1   4
HETATM    4  C15 UNL     1      22.740   0.391  52.881  1.00  0.00     0.321 C 
HETATM    5  N4  UNL     1      22.388   0.303  51.484  1.00  0.00    -0.215 NA
HETATM    6  O1  UNL     1      22.023   0.706  53.871  1.00  0.00    -0.256 OA
BRANCH   5   7
HETATM    7  C14 UNL     1      21.978   1.288  50.809  1.00  0.00     0.123 C 
BRANCH   7   8
HETATM    8  C13 UNL     1      21.713   2.569  50.184  1.00  0.00     0.051 C 
BRANCH   8   9
HETATM    9  C12 UNL     1      22.423   3.625  50.535  1.00  0.00     0.066 A 
HETATM   10  C2  UNL     1      23.230   4.291  49.666  1.00  0.00    -0.000 A 
HETATM   11  C1  UNL     1      23.202   3.747  48.492  1.00  0.00     0.048 C 
HETATM   12  C3  UNL     1      24.014   5.391  49.894  1.00  0.00     0.066 A 
HETATM   13  C10 UNL     1      23.879   5.774  51.207  1.00  0.00     0.051 A 
HETATM   14  C11 UNL     1      23.084   5.157  52.158  1.00  0.00     0.142 A 
HETATM   15  N3  UNL     1      22.361   4.079  51.798  1.00  0.00    -0.259 NA
BRANCH  12  16
HETATM   16  N1  UNL     1      24.822   6.116  49.031  1.00  0.00    -0.346 N 
HETATM   17  C4  UNL     1      24.264   6.913  48.004  1.00  0.00     0.092 C 
HETATM   18  C5  UNL     1      24.856   7.753  47.174  1.00  0.00     0.018 C 
HETATM   19  C6  UNL     1      26.298   7.929  47.271  1.00  0.00     0.018 C 
HETATM   20  C7  UNL     1      26.857   7.197  48.201  1.00  0.00     0.011 C 
HETATM   21 BR1  UNL     1      28.761   7.283  48.502  1.00  0.00    -0.053 Br
HETATM   22  C8  UNL     1      26.249   6.181  49.104  1.00  0.00     0.125 C 
HETATM   23  C9  UNL     1      26.903   4.857  48.755  1.00  0.00     0.038 C 
ENDBRANCH  12  16
BRANCH  13  24
HETATM   24  N2  UNL     1      24.498   6.867  51.846  1.00  0.00    -0.300 NA
HETATM   25  H10 UNL     1      25.466   7.273  51.917  1.00  0.00     0.124 HD
HETATM   26  H11 UNL     1      25.471   7.285  51.925  1.00  0.00     0.124 HD
ENDBRANCH  13  24
ENDBRANCH   8   9
ENDBRANCH   7   8
ENDBRANCH   5   7
ENDBRANCH   1   4
TORSDOF 6
ENDMDL
