MODEL 1
REMARK VINA RESULT:      -9.0      0.000      0.000
REMARK  1 active torsions:
REMARK  status: ('A' for Active; 'I' for Inactive)
REMARK    1  A    between atoms: N1_1  and  C1_2 
ROOT
HETATM    1  C1  UNL     1      25.926  -0.094  53.462  1.00  0.00     0.259 C 
HETATM    2  C2  UNL     1      25.679   0.491  52.087  1.00  0.00     0.100 C 
HETATM    3  C3  UNL     1      24.742   1.598  52.010  1.00  0.00     0.048 C 
HETATM    4  C4  UNL     1      23.355   1.886  52.197  1.00  0.00    -0.010 A 
HETATM    5  C5  UNL     1      22.906   3.166  52.108  1.00  0.00     0.013 A 
HETATM    6  C6  UNL     1      21.561   3.496  52.253  1.00  0.00     0.002 A 
HETATM    7  C7  UNL     1      20.645   2.507  52.497  1.00  0.00     0.019 A 
HETATM    8  C8  UNL     1      21.022   1.186  52.601  1.00  0.00     0.011 A 
HETATM    9 BR1  UNL     1      19.750  -0.191  52.938  1.00  0.00    -0.051 Br
HETATM   10  C9  UNL     1      22.370   0.954  52.442  1.00  0.00     0.032 A 
HETATM   11  N2  UNL     1      25.410   2.707  51.695  1.00  0.00    -0.246 NA
HETATM   12  C10 UNL     1      26.838   2.639  51.495  1.00  0.00     0.229 C 
HETATM   13  N3  UNL     1      27.171   2.516  52.717  1.00  0.00    -0.257 NA
HETATM   14  C11 UNL     1      28.503   2.384  53.254  1.00  0.00     0.325 C 
HETATM   15  O1  UNL     1      28.575   1.235  54.078  1.00  0.00    -0.330 OA
HETATM   16  C12 UNL     1      28.332  -0.068  53.704  1.00  0.00     0.079 A 
HETATM   17  C13 UNL     1      29.570  -0.724  53.647  1.00  0.00     0.037 A 
HETATM   18  C14 UNL     1      29.716  -2.073  53.298  1.00  0.00     0.003 A 
HETATM   19  C15 UNL     1      28.569  -2.811  52.993  1.00  0.00     0.001 A 
HETATM   20  C16 UNL     1      27.369  -2.134  53.060  1.00  0.00     0.012 A 
HETATM   21  C17 UNL     1      27.199  -0.814  53.397  1.00  0.00     0.008 A 
ENDROOT
BRANCH   1  22
HETATM   22  N1  UNL     1      24.768  -0.861  53.840  1.00  0.00     0.087 N 
HETATM   23  H1  UNL     1      24.173  -1.165  53.064  1.00  0.00     0.313 HD
HETATM   24  H2  UNL     1      24.202  -0.275  54.489  1.00  0.00     0.313 HD
ENDBRANCH   1  22
TORSDOF 1
ENDMDL
MODEL 2
REMARK VINA RESULT:      -8.7      2.741      4.971
REMARK  1 active torsions:
REMARK  status: ('A' for Active; 'I' for Inactive)
REMARK    1  A    between atoms: N1_1  and  C1_2 
ROOT
HETATM    1  C1  UNL     1      23.794   2.286  50.577  1.00  0.00     0.259 C 
HETATM    2  C2  UNL     1      23.585   2.647  52.032  1.00  0.00     0.100 C 
HETATM    3  C3  UNL     1      23.255   1.556  52.933  1.00  0.00     0.048 C 
HETATM    4  C4  UNL     1      22.212   0.615  53.191  1.00  0.00    -0.010 A 
HETATM    5  C5  UNL     1      22.383  -0.353  54.130  1.00  0.00     0.013 A 
HETATM    6  C6  UNL     1      21.387  -1.276  54.440  1.00  0.00     0.002 A 
HETATM    7  C7  UNL     1      20.187  -1.221  53.783  1.00  0.00     0.019 A 
HETATM    8  C8  UNL     1      19.937  -0.269  52.818  1.00  0.00     0.011 A 
HETATM    9 BR1  UNL     1      18.268  -0.190  51.904  1.00  0.00    -0.051 Br
HETATM   10  C9  UNL     1      20.976   0.601  52.579  1.00  0.00     0.032 A 
HETATM   11  N2  UNL     1      24.281   1.353  53.759  1.00  0.00    -0.246 NA
HETATM   12  C10 UNL     1      25.457   2.182  53.641  1.00  0.00     0.229 C 
HETATM   13  N3  UNL     1      25.921   1.660  52.577  1.00  0.00    -0.257 NA
HETATM   14  C11 UNL     1      27.123   2.031  51.870  1.00  0.00     0.325 C 
HETATM   15  O1  UNL     1      26.820   2.288  50.511  1.00  0.00    -0.330 OA
HETATM   16  C12 UNL     1      25.947   3.235  50.023  1.00  0.00     0.079 A 
HETATM   17  C13 UNL     1      26.719   4.261  49.460  1.00  0.00     0.037 A 
HETATM   18  C14 UNL     1      26.170   5.402  48.860  1.00  0.00     0.003 A 
HETATM   19  C15 UNL     1      24.780   5.529  48.817  1.00  0.00     0.001 A 
HETATM   20  C16 UNL     1      24.052   4.501  49.380  1.00  0.00     0.012 A 
HETATM   21  C17 UNL     1      24.565   3.375  49.973  1.00  0.00     0.008 A 
ENDROOT
BRANCH   1  22
HETATM   22  N1  UNL     1      22.507   2.005  49.994  1.00  0.00     0.087 N 
HETATM   23  H1  UNL     1      22.524   1.740  49.005  1.00  0.00     0.313 HD
HETATM   24  H2  UNL     1      21.921   2.860  50.103  1.00  0.00     0.313 HD
ENDBRANCH   1  22
TORSDOF 1
ENDMDL
MODEL 3
REMARK VINA RESULT:      -8.1      2.534      3.778
REMARK  1 active torsions:
REMARK  status: ('A' for Active; 'I' for Inactive)
REMARK    1  A    between atoms: N1_1  and  C1_2 
ROOT
HETATM    1  C1  UNL     1      26.198   1.454  51.677  1.00  0.00     0.259 C 
HETATM    2  C2  UNL     1      24.939   1.709  52.479  1.00  0.00     0.100 C 
HETATM    3  C3  UNL     1      23.680   1.360  51.843  1.00  0.00     0.048 C 
HETATM    4  C4  UNL     1      22.855   1.746  50.742  1.00  0.00    -0.010 A 
HETATM    5  C5  UNL     1      21.739   1.029  50.442  1.00  0.00     0.013 A 
HETATM    6  C6  UNL     1      20.887   1.381  49.398  1.00  0.00     0.002 A 
HETATM    7  C7  UNL     1      21.169   2.483  48.637  1.00  0.00     0.019 A 
HETATM    8  C8  UNL     1      22.282   3.260  48.879  1.00  0.00     0.011 A 
HETATM    9 BR1  UNL     1      22.675   4.794  47.822  1.00  0.00    -0.051 Br
HETATM   10  C9  UNL     1      23.065   2.839  49.929  1.00  0.00     0.032 A 
HETATM   11  N2  UNL     1      23.149   0.317  52.481  1.00  0.00    -0.246 NA
HETATM   12  C10 UNL     1      23.847  -0.251  53.609  1.00  0.00     0.229 C 
HETATM   13  N3  UNL     1      24.770  -0.835  52.956  1.00  0.00    -0.257 NA
HETATM   14  C11 UNL     1      25.860  -1.617  53.487  1.00  0.00     0.325 C 
HETATM   15  O1  UNL     1      27.090  -1.123  52.990  1.00  0.00    -0.330 OA
HETATM   16  C12 UNL     1      27.599   0.147  53.151  1.00  0.00     0.079 A 
HETATM   17  C13 UNL     1      28.652   0.060  54.072  1.00  0.00     0.037 A 
HETATM   18  C14 UNL     1      29.413   1.162  54.485  1.00  0.00     0.003 A 
HETATM   19  C15 UNL     1      29.110   2.418  53.953  1.00  0.00     0.001 A 
HETATM   20  C16 UNL     1      28.068   2.466  53.050  1.00  0.00     0.012 A 
HETATM   21  C17 UNL     1      27.308   1.403  52.630  1.00  0.00     0.008 A 
ENDROOT
BRANCH   1  22
HETATM   22  N1  UNL     1      26.281   2.452  50.642  1.00  0.00     0.087 N 
HETATM   23  H1  UNL     1      25.382   2.796  50.293  1.00  0.00     0.313 HD
HETATM   24  H2  UNL     1      26.814   2.036  49.848  1.00  0.00     0.313 HD
ENDBRANCH   1  22
TORSDOF 1
ENDMDL
MODEL 4
REMARK VINA RESULT:      -8.1      4.098      6.356
REMARK  1 active torsions:
REMARK  status: ('A' for Active; 'I' for Inactive)
REMARK    1  A    between atoms: N1_1  and  C1_2 
ROOT
HETATM    1  C1  UNL     1      25.337   4.363  50.213  1.00  0.00     0.259 C 
HETATM    2  C2  UNL     1      24.673   3.322  49.338  1.00  0.00     0.100 C 
HETATM    3  C3  UNL     1      23.480   2.687  49.873  1.00  0.00     0.048 C 
HETATM    4  C4  UNL     1      23.072   1.816  50.929  1.00  0.00    -0.010 A 
HETATM    5  C5  UNL     1      21.753   1.551  51.124  1.00  0.00     0.013 A 
HETATM    6  C6  UNL     1      21.306   0.687  52.120  1.00  0.00     0.002 A 
HETATM    7  C7  UNL     1      22.214   0.075  52.942  1.00  0.00     0.019 A 
HETATM    8  C8  UNL     1      23.569   0.293  52.807  1.00  0.00     0.011 A 
HETATM    9 BR1  UNL     1      24.834  -0.558  53.948  1.00  0.00    -0.051 Br
HETATM   10  C9  UNL     1      23.918   1.159  51.797  1.00  0.00     0.032 A 
HETATM   11  N2  UNL     1      22.426   3.081  49.160  1.00  0.00    -0.246 NA
HETATM   12  C10 UNL     1      22.618   3.995  48.060  1.00  0.00     0.229 C 
HETATM   13  N3  UNL     1      22.825   5.044  48.750  1.00  0.00    -0.257 NA
HETATM   14  C11 UNL     1      23.105   6.373  48.265  1.00  0.00     0.325 C 
HETATM   15  O1  UNL     1      24.291   6.862  48.864  1.00  0.00    -0.330 OA
HETATM   16  C12 UNL     1      25.547   6.304  48.787  1.00  0.00     0.079 A 
HETATM   17  C13 UNL     1      26.313   7.116  47.937  1.00  0.00     0.037 A 
HETATM   18  C14 UNL     1      27.653   6.858  47.621  1.00  0.00     0.003 A 
HETATM   19  C15 UNL     1      28.266   5.734  48.181  1.00  0.00     0.001 A 
HETATM   20  C16 UNL     1      27.484   4.959  49.012  1.00  0.00     0.012 A 
HETATM   21  C17 UNL     1      26.170   5.189  49.336  1.00  0.00     0.008 A 
ENDROOT
BRANCH   1  22
HETATM   22  N1  UNL     1      26.009   3.683  51.290  1.00  0.00     0.087 N 
HETATM   23  H1  UNL     1      25.395   3.219  51.965  1.00  0.00     0.313 HD
HETATM   24  H2  UNL     1      26.590   4.389  51.792  1.00  0.00     0.313 HD
ENDBRANCH   1  22
TORSDOF 1
ENDMDL
MODEL 5
REMARK VINA RESULT:      -7.9      3.547      7.557
REMARK  1 active torsions:
REMARK  status: ('A' for Active; 'I' for Inactive)
REMARK    1  A    between atoms: N1_1  and  C1_2 
ROOT
HETATM    1  C1  UNL     1      22.778   3.662  51.946  1.00  0.00     0.259 C 
HETATM    2  C2  UNL     1      23.031   2.310  51.314  1.00  0.00     0.100 C 
HETATM    3  C3  UNL     1      23.510   1.259  52.195  1.00  0.00     0.048 C 
HETATM    4  C4  UNL     1      24.649   0.914  52.985  1.00  0.00    -0.010 A 
HETATM    5  C5  UNL     1      24.621  -0.189  53.779  1.00  0.00     0.013 A 
HETATM    6  C6  UNL     1      25.714  -0.583  54.546  1.00  0.00     0.002 A 
HETATM    7  C7  UNL     1      26.866   0.156  54.511  1.00  0.00     0.019 A 
HETATM    8  C8  UNL     1      26.973   1.287  53.731  1.00  0.00     0.011 A 
HETATM    9 BR1  UNL     1      28.575   2.315  53.679  1.00  0.00    -0.051 Br
HETATM   10  C9  UNL     1      25.845   1.600  53.006  1.00  0.00     0.032 A 
HETATM   11  N2  UNL     1      22.554   0.340  52.330  1.00  0.00    -0.246 NA
HETATM   12  C10 UNL     1      21.301   0.517  51.636  1.00  0.00     0.229 C 
HETATM   13  N3  UNL     1      20.831   1.439  52.376  1.00  0.00    -0.257 NA
HETATM   14  C11 UNL     1      19.562   2.113  52.239  1.00  0.00     0.325 C 
HETATM   15  O1  UNL     1      19.766   3.514  52.206  1.00  0.00    -0.330 OA
HETATM   16  C12 UNL     1      20.518   4.220  51.293  1.00  0.00     0.079 A 
HETATM   17  C13 UNL     1      19.624   4.897  50.452  1.00  0.00     0.037 A 
HETATM   18  C14 UNL     1      20.030   5.723  49.395  1.00  0.00     0.003 A 
HETATM   19  C15 UNL     1      21.398   5.885  49.164  1.00  0.00     0.001 A 
HETATM   20  C16 UNL     1      22.248   5.205  50.011  1.00  0.00     0.012 A 
HETATM   21  C17 UNL     1      21.876   4.390  51.051  1.00  0.00     0.008 A 
ENDROOT
BRANCH   1  22
HETATM   22  N1  UNL     1      24.051   4.276  52.220  1.00  0.00     0.087 N 
HETATM   23  H1  UNL     1      24.177   5.214  51.829  1.00  0.00     0.313 HD
HETATM   24  H2  UNL     1      24.790   3.649  51.836  1.00  0.00     0.313 HD
ENDBRANCH   1  22
TORSDOF 1
ENDMDL
MODEL 6
REMARK VINA RESULT:      -7.9      2.753      4.267
REMARK  1 active torsions:
REMARK  status: ('A' for Active; 'I' for Inactive)
REMARK    1  A    between atoms: N1_1  and  C1_2 
ROOT
HETATM    1  C1  UNL     1      22.633   0.662  53.221  1.00  0.00     0.259 C 
HETATM    2  C2  UNL     1      22.152   0.586  51.787  1.00  0.00     0.100 C 
HETATM    3  C3  UNL     1      20.765   0.943  51.545  1.00  0.00     0.048 C 
HETATM    4  C4  UNL     1      19.442   0.491  51.836  1.00  0.00    -0.010 A 
HETATM    5  C5  UNL     1      18.368   1.241  51.471  1.00  0.00     0.013 A 
HETATM    6  C6  UNL     1      17.058   0.832  51.706  1.00  0.00     0.002 A 
HETATM    7  C7  UNL     1      16.825  -0.367  52.326  1.00  0.00     0.019 A 
HETATM    8  C8  UNL     1      17.860  -1.184  52.726  1.00  0.00     0.011 A 
HETATM    9 BR1  UNL     1      17.539  -2.851  53.588  1.00  0.00    -0.051 Br
HETATM   10  C9  UNL     1      19.120  -0.699  52.453  1.00  0.00     0.032 A 
HETATM   11  N2  UNL     1      20.727   2.085  50.859  1.00  0.00    -0.246 NA
HETATM   12  C10 UNL     1      21.965   2.729  50.491  1.00  0.00     0.229 C 
HETATM   13  N3  UNL     1      22.270   3.172  51.645  1.00  0.00    -0.257 NA
HETATM   14  C11 UNL     1      23.439   3.935  52.011  1.00  0.00     0.325 C 
HETATM   15  O1  UNL     1      24.100   3.307  53.093  1.00  0.00    -0.330 OA
HETATM   16  C12 UNL     1      24.622   2.032  53.117  1.00  0.00     0.079 A 
HETATM   17  C13 UNL     1      26.019   2.153  53.068  1.00  0.00     0.037 A 
HETATM   18  C14 UNL     1      26.891   1.057  53.075  1.00  0.00     0.003 A 
HETATM   19  C15 UNL     1      26.346  -0.229  53.136  1.00  0.00     0.001 A 
HETATM   20  C16 UNL     1      24.969  -0.310  53.184  1.00  0.00     0.012 A 
HETATM   21  C17 UNL     1      24.094   0.748  53.176  1.00  0.00     0.008 A 
ENDROOT
BRANCH   1  22
HETATM   22  N1  UNL     1      22.072  -0.450  53.943  1.00  0.00     0.087 N 
HETATM   23  H1  UNL     1      21.835  -1.266  53.374  1.00  0.00     0.313 HD
HETATM   24  H2  UNL     1      21.210  -0.110  54.420  1.00  0.00     0.313 HD
ENDBRANCH   1  22
TORSDOF 1
ENDMDL
MODEL 7
REMARK VINA RESULT:      -7.7      4.164      5.925
REMARK  1 active torsions:
REMARK  status: ('A' for Active; 'I' for Inactive)
REMARK    1  A    between atoms: N1_1  and  C1_2 
ROOT
HETATM    1  C1  UNL     1      24.553   3.156  51.696  1.00  0.00     0.259 C 
HETATM    2  C2  UNL     1      23.728   4.137  52.502  1.00  0.00     0.100 C 
HETATM    3  C3  UNL     1      23.068   5.198  51.759  1.00  0.00     0.048 C 
HETATM    4  C4  UNL     1      23.375   6.355  50.980  1.00  0.00    -0.010 A 
HETATM    5  C5  UNL     1      22.381   7.037  50.351  1.00  0.00     0.013 A 
HETATM    6  C6  UNL     1      22.623   8.186  49.603  1.00  0.00     0.002 A 
HETATM    7  C7  UNL     1      23.903   8.659  49.486  1.00  0.00     0.019 A 
HETATM    8  C8  UNL     1      24.964   8.024  50.094  1.00  0.00     0.011 A 
HETATM    9 BR1  UNL     1      26.744   8.681  49.934  1.00  0.00    -0.051 Br
HETATM   10  C9  UNL     1      24.631   6.898  50.813  1.00  0.00     0.032 A 
HETATM   11  N2  UNL     1      21.752   4.995  51.795  1.00  0.00    -0.246 NA
HETATM   12  C10 UNL     1      21.232   3.852  52.508  1.00  0.00     0.229 C 
HETATM   13  N3  UNL     1      21.573   2.962  51.665  1.00  0.00    -0.257 NA
HETATM   14  C11 UNL     1      21.359   1.538  51.757  1.00  0.00     0.325 C 
HETATM   15  O1  UNL     1      22.588   0.857  51.584  1.00  0.00    -0.330 OA
HETATM   16  C12 UNL     1      23.721   0.984  52.356  1.00  0.00     0.079 A 
HETATM   17  C13 UNL     1      23.832  -0.180  53.129  1.00  0.00     0.037 A 
HETATM   18  C14 UNL     1      24.871  -0.408  54.041  1.00  0.00     0.003 A 
HETATM   19  C15 UNL     1      25.854   0.573  54.191  1.00  0.00     0.001 A 
HETATM   20  C16 UNL     1      25.714   1.705  53.414  1.00  0.00     0.012 A 
HETATM   21  C17 UNL     1      24.706   1.953  52.516  1.00  0.00     0.008 A 
ENDROOT
BRANCH   1  22
HETATM   22  N1  UNL     1      25.765   3.817  51.287  1.00  0.00     0.087 N 
HETATM   23  H1  UNL     1      26.522   3.808  51.975  1.00  0.00     0.313 HD
HETATM   24  H2  UNL     1      25.522   4.807  51.065  1.00  0.00     0.313 HD
ENDBRANCH   1  22
TORSDOF 1
ENDMDL
MODEL 8
REMARK VINA RESULT:      -7.6      4.543      6.325
REMARK  1 active torsions:
REMARK  status: ('A' for Active; 'I' for Inactive)
REMARK    1  A    between atoms: N1_1  and  C1_2 
ROOT
HETATM    1  C1  UNL     1      22.848   1.404  51.636  1.00  0.00     0.259 C 
HETATM    2  C2  UNL     1      22.588   2.791  52.184  1.00  0.00     0.100 C 
HETATM    3  C3  UNL     1      22.452   3.861  51.211  1.00  0.00     0.048 C 
HETATM    4  C4  UNL     1      23.218   4.572  50.238  1.00  0.00    -0.010 A 
HETATM    5  C5  UNL     1      22.616   5.486  49.431  1.00  0.00     0.013 A 
HETATM    6  C6  UNL     1      23.324   6.226  48.487  1.00  0.00     0.002 A 
HETATM    7  C7  UNL     1      24.673   6.038  48.352  1.00  0.00     0.019 A 
HETATM    8  C8  UNL     1      25.355   5.130  49.133  1.00  0.00     0.011 A 
HETATM    9 BR1  UNL     1      27.232   4.867  48.950  1.00  0.00    -0.051 Br
HETATM   10  C9  UNL     1      24.576   4.446  50.039  1.00  0.00     0.032 A 
HETATM   11  N2  UNL     1      21.188   4.284  51.210  1.00  0.00    -0.246 NA
HETATM   12  C10 UNL     1      20.236   3.668  52.102  1.00  0.00     0.229 C 
HETATM   13  N3  UNL     1      20.104   2.570  51.472  1.00  0.00    -0.257 NA
HETATM   14  C11 UNL     1      19.273   1.446  51.830  1.00  0.00     0.325 C 
HETATM   15  O1  UNL     1      20.053   0.265  51.865  1.00  0.00    -0.330 OA
HETATM   16  C12 UNL     1      21.150   0.022  52.661  1.00  0.00     0.079 A 
HETATM   17  C13 UNL     1      20.752  -0.885  53.654  1.00  0.00     0.037 A 
HETATM   18  C14 UNL     1      21.610  -1.368  54.651  1.00  0.00     0.003 A 
HETATM   19  C15 UNL     1      22.935  -0.927  54.661  1.00  0.00     0.001 A 
HETATM   20  C16 UNL     1      23.293  -0.035  53.670  1.00  0.00     0.012 A 
HETATM   21  C17 UNL     1      22.472   0.453  52.684  1.00  0.00     0.008 A 
ENDROOT
BRANCH   1  22
HETATM   22  N1  UNL     1      24.211   1.351  51.174  1.00  0.00     0.087 N 
HETATM   23  H1  UNL     1      24.344   1.543  50.178  1.00  0.00     0.313 HD
HETATM   24  H2  UNL     1      24.576   0.397  51.385  1.00  0.00     0.313 HD
ENDBRANCH   1  22
TORSDOF 1
ENDMDL
MODEL 9
REMARK VINA RESULT:      -7.6      3.810      5.959
REMARK  1 active torsions:
REMARK  status: ('A' for Active; 'I' for Inactive)
REMARK    1  A    between atoms: N1_1  and  C1_2 
ROOT
HETATM    1  C1  UNL     1      23.544   3.261  51.259  1.00  0.00     0.259 C 
HETATM    2  C2  UNL     1      24.464   2.848  50.130  1.00  0.00     0.100 C 
HETATM    3  C3  UNL     1      25.455   3.823  49.707  1.00  0.00     0.048 C 
HETATM    4  C4  UNL     1      25.546   5.107  49.087  1.00  0.00    -0.010 A 
HETATM    5  C5  UNL     1      26.752   5.726  48.973  1.00  0.00     0.013 A 
HETATM    6  C6  UNL     1      26.898   6.963  48.352  1.00  0.00     0.002 A 
HETATM    7  C7  UNL     1      25.799   7.594  47.833  1.00  0.00     0.019 A 
HETATM    8  C8  UNL     1      24.543   7.031  47.909  1.00  0.00     0.011 A 
HETATM    9 BR1  UNL     1      23.013   7.905  47.186  1.00  0.00    -0.051 Br
HETATM   10  C9  UNL     1      24.494   5.807  48.538  1.00  0.00     0.032 A 
HETATM   11  N2  UNL     1      26.666   3.382  50.045  1.00  0.00    -0.246 NA
HETATM   12  C10 UNL     1      26.792   2.111  50.718  1.00  0.00     0.229 C 
HETATM   13  N3  UNL     1      26.364   2.483  51.857  1.00  0.00    -0.257 NA
HETATM   14  C11 UNL     1      26.213   1.676  53.044  1.00  0.00     0.325 C 
HETATM   15  O1  UNL     1      24.891   1.793  53.537  1.00  0.00    -0.330 OA
HETATM   16  C12 UNL     1      23.728   1.471  52.873  1.00  0.00     0.079 A 
HETATM   17  C13 UNL     1      23.236   0.289  53.444  1.00  0.00     0.037 A 
HETATM   18  C14 UNL     1      22.059  -0.343  53.022  1.00  0.00     0.003 A 
HETATM   19  C15 UNL     1      21.331   0.232  51.977  1.00  0.00     0.001 A 
HETATM   20  C16 UNL     1      21.845   1.395  51.439  1.00  0.00     0.012 A 
HETATM   21  C17 UNL     1      22.995   2.032  51.834  1.00  0.00     0.008 A 
ENDROOT
BRANCH   1  22
HETATM   22  N1  UNL     1      22.595   4.212  50.741  1.00  0.00     0.087 N 
HETATM   23  H1  UNL     1      21.853   4.488  51.390  1.00  0.00     0.313 HD
HETATM   24  H2  UNL     1      22.161   3.791  49.892  1.00  0.00     0.313 HD
ENDBRANCH   1  22
TORSDOF 1
ENDMDL
