MODEL 1
REMARK VINA RESULT:      -7.5      0.000      0.000
REMARK  5 active torsions:
REMARK  status: ('A' for Active; 'I' for Inactive)
REMARK    1  A    between atoms: C7_9  and  N3_10 
REMARK    2  A    between atoms: N3_10  and  C8_11 
REMARK    3  A    between atoms: C8_11  and  C9_12 
REMARK    4  A    between atoms: C10_13  and  C11_14 
REMARK    5  A    between atoms: C11_14  and  N4_15 
ROOT
HETATM    1  N1  UNL     1      22.723   2.276  52.487  1.00  0.00    -0.191 NA
HETATM    2  C1  UNL     1      23.543   1.558  52.709  1.00  0.00     0.101 C 
HETATM    3  C2  UNL     1      24.573   0.632  53.008  1.00  0.00     0.071 C 
HETATM    4  C3  UNL     1      24.761  -0.534  53.759  1.00  0.00     0.140 C 
HETATM    5  N2  UNL     1      26.216  -0.967  54.058  1.00  0.00    -0.264 NA
HETATM    6  C4  UNL     1      27.084  -0.123  53.531  1.00  0.00     0.038 C 
HETATM    7  C5  UNL     1      28.076   0.946  53.697  1.00  0.00     0.029 C 
HETATM    8  C6  UNL     1      27.801   2.147  53.060  1.00  0.00     0.032 C 
HETATM    9  C7  UNL     1      26.470   2.180  52.310  1.00  0.00     0.036 C 
HETATM   10  C16 UNL     1      25.853   1.026  52.409  1.00  0.00    -0.004 C 
HETATM   11  C17 UNL     1      26.722  -0.239  52.018  1.00  0.00     0.101 C 
ENDROOT
BRANCH   9  12
HETATM   12  N3  UNL     1      25.664   3.091  51.658  1.00  0.00    -0.386 N 
HETATM   13  H4  UNL     1      25.285   3.632  52.466  1.00  0.00     0.160 HD
BRANCH  12  14
HETATM   14  C8  UNL     1      25.433   3.234  50.211  1.00  0.00     0.147 C 
BRANCH  14  15
HETATM   15  C9  UNL     1      26.670   3.555  49.505  1.00  0.00    -0.010 C 
HETATM   16  C10 UNL     1      27.120   4.642  48.908  1.00  0.00     0.001 C 
BRANCH  16  17
HETATM   17  C11 UNL     1      26.379   5.906  48.821  1.00  0.00     0.299 C 
BRANCH  17  18
HETATM   18  N4  UNL     1      27.162   7.084  49.055  1.00  0.00     0.096 N 
HETATM   19  C12 UNL     1      26.551   8.043  49.922  1.00  0.00     0.299 C 
HETATM   20  C13 UNL     1      27.372   9.297  49.951  1.00  0.00     0.198 C 
HETATM   21  O1  UNL     1      28.671   9.081  49.495  1.00  0.00    -0.388 OA
HETATM   22  C14 UNL     1      28.619   8.787  48.130  1.00  0.00     0.198 C 
HETATM   23  C15 UNL     1      27.749   7.606  47.862  1.00  0.00     0.299 C 
ENDBRANCH  17  18
ENDBRANCH  16  17
ENDBRANCH  14  15
ENDBRANCH  12  14
ENDBRANCH   9  12
TORSDOF 5
ENDMDL
MODEL 2
REMARK VINA RESULT:      -7.4      4.578      6.736
REMARK  5 active torsions:
REMARK  status: ('A' for Active; 'I' for Inactive)
REMARK    1  A    between atoms: C7_9  and  N3_10 
REMARK    2  A    between atoms: N3_10  and  C8_11 
REMARK    3  A    between atoms: C8_11  and  C9_12 
REMARK    4  A    between atoms: C10_13  and  C11_14 
REMARK    5  A    between atoms: C11_14  and  N4_15 
ROOT
HETATM    1  N1  UNL     1      25.076  -0.937  55.116  1.00  0.00    -0.191 NA
HETATM    2  C1  UNL     1      23.992  -0.933  54.864  1.00  0.00     0.101 C 
HETATM    3  C2  UNL     1      22.611  -0.952  54.548  1.00  0.00     0.071 C 
HETATM    4  C3  UNL     1      21.510  -1.807  54.673  1.00  0.00     0.140 C 
HETATM    5  N2  UNL     1      20.262  -1.500  53.812  1.00  0.00    -0.264 NA
HETATM    6  C4  UNL     1      20.451  -0.430  53.062  1.00  0.00     0.038 C 
HETATM    7  C5  UNL     1      20.684   0.170  51.743  1.00  0.00     0.029 C 
HETATM    8  C6  UNL     1      21.856   0.898  51.595  1.00  0.00     0.032 C 
HETATM    9  C7  UNL     1      22.749   0.925  52.834  1.00  0.00     0.036 C 
HETATM   10  C16 UNL     1      22.200   0.251  53.818  1.00  0.00    -0.004 C 
HETATM   11  C17 UNL     1      20.706   0.652  54.157  1.00  0.00     0.101 C 
ENDROOT
BRANCH   9  12
HETATM   12  N3  UNL     1      24.014   1.343  53.198  1.00  0.00    -0.386 N 
HETATM   13  H4  UNL     1      24.366   0.494  53.693  1.00  0.00     0.160 HD
BRANCH  12  14
HETATM   14  C8  UNL     1      24.657   2.640  52.933  1.00  0.00     0.147 C 
BRANCH  14  15
HETATM   15  C9  UNL     1      25.647   2.535  51.865  1.00  0.00    -0.010 C 
HETATM   16  C10 UNL     1      26.940   2.279  51.847  1.00  0.00     0.001 C 
BRANCH  16  17
HETATM   17  C11 UNL     1      27.749   2.013  53.043  1.00  0.00     0.299 C 
BRANCH  17  18
HETATM   18  N4  UNL     1      28.058   0.632  53.271  1.00  0.00     0.096 N 
HETATM   19  C12 UNL     1      29.451   0.351  53.428  1.00  0.00     0.299 C 
HETATM   20  C13 UNL     1      29.666  -1.132  53.483  1.00  0.00     0.198 C 
HETATM   21  O1  UNL     1      28.491  -1.820  53.782  1.00  0.00    -0.388 OA
HETATM   22  C14 UNL     1      27.612  -1.683  52.705  1.00  0.00     0.198 C 
HETATM   23  C15 UNL     1      27.337  -0.248  52.408  1.00  0.00     0.299 C 
ENDBRANCH  17  18
ENDBRANCH  16  17
ENDBRANCH  14  15
ENDBRANCH  12  14
ENDBRANCH   9  12
TORSDOF 5
ENDMDL
MODEL 3
REMARK VINA RESULT:      -7.2      5.034      7.491
REMARK  5 active torsions:
REMARK  status: ('A' for Active; 'I' for Inactive)
REMARK    1  A    between atoms: C7_9  and  N3_10 
REMARK    2  A    between atoms: N3_10  and  C8_11 
REMARK    3  A    between atoms: C8_11  and  C9_12 
REMARK    4  A    between atoms: C10_13  and  C11_14 
REMARK    5  A    between atoms: C11_14  and  N4_15 
ROOT
HETATM    1  N1  UNL     1      24.430   2.988  53.309  1.00  0.00    -0.191 NA
HETATM    2  C1  UNL     1      25.439   2.533  53.426  1.00  0.00     0.101 C 
HETATM    3  C2  UNL     1      26.733   1.973  53.563  1.00  0.00     0.071 C 
HETATM    4  C3  UNL     1      28.069   2.336  53.357  1.00  0.00     0.140 C 
HETATM    5  N2  UNL     1      29.121   1.202  53.308  1.00  0.00    -0.264 NA
HETATM    6  C4  UNL     1      28.557   0.020  53.474  1.00  0.00     0.038 C 
HETATM    7  C5  UNL     1      28.122  -1.267  52.920  1.00  0.00     0.029 C 
HETATM    8  C6  UNL     1      26.766  -1.549  53.005  1.00  0.00     0.032 C 
HETATM    9  C7  UNL     1      25.924  -0.439  53.633  1.00  0.00     0.036 C 
HETATM   10  C16 UNL     1      26.680   0.571  53.992  1.00  0.00    -0.004 C 
HETATM   11  C17 UNL     1      27.928   0.194  54.891  1.00  0.00     0.101 C 
ENDROOT
BRANCH   9  12
HETATM   12  N3  UNL     1      24.594  -0.127  53.831  1.00  0.00    -0.386 N 
HETATM   13  H4  UNL     1      24.672   0.607  54.569  1.00  0.00     0.160 HD
BRANCH  12  14
HETATM   14  C8  UNL     1      23.414  -0.693  53.158  1.00  0.00     0.147 C 
BRANCH  14  15
HETATM   15  C9  UNL     1      22.471  -1.255  54.120  1.00  0.00    -0.010 C 
HETATM   16  C10 UNL     1      21.336  -0.825  54.638  1.00  0.00     0.001 C 
BRANCH  16  17
HETATM   17  C11 UNL     1      20.714   0.464  54.314  1.00  0.00     0.299 C 
BRANCH  17  18
HETATM   18  N4  UNL     1      20.120   0.540  53.010  1.00  0.00     0.096 N 
HETATM   19  C12 UNL     1      19.991   1.865  52.491  1.00  0.00     0.299 C 
HETATM   20  C13 UNL     1      19.204   1.835  51.214  1.00  0.00     0.198 C 
HETATM   21  O1  UNL     1      19.164   0.559  50.656  1.00  0.00    -0.388 OA
HETATM   22  C14 UNL     1      18.410  -0.267  51.494  1.00  0.00     0.198 C 
HETATM   23  C15 UNL     1      18.973  -0.299  52.874  1.00  0.00     0.299 C 
ENDBRANCH  17  18
ENDBRANCH  16  17
ENDBRANCH  14  15
ENDBRANCH  12  14
ENDBRANCH   9  12
TORSDOF 5
ENDMDL
MODEL 4
REMARK VINA RESULT:      -7.0      2.941      3.748
REMARK  5 active torsions:
REMARK  status: ('A' for Active; 'I' for Inactive)
REMARK    1  A    between atoms: C7_9  and  N3_10 
REMARK    2  A    between atoms: N3_10  and  C8_11 
REMARK    3  A    between atoms: C8_11  and  C9_12 
REMARK    4  A    between atoms: C10_13  and  C11_14 
REMARK    5  A    between atoms: C11_14  and  N4_15 
ROOT
HETATM    1  N1  UNL     1      23.454   2.903  52.260  1.00  0.00    -0.191 NA
HETATM    2  C1  UNL     1      24.071   2.032  52.573  1.00  0.00     0.101 C 
HETATM    3  C2  UNL     1      24.839   0.916  52.990  1.00  0.00     0.071 C 
HETATM    4  C3  UNL     1      24.715  -0.200  53.824  1.00  0.00     0.140 C 
HETATM    5  N2  UNL     1      26.012  -0.938  54.232  1.00  0.00    -0.264 NA
HETATM    6  C4  UNL     1      27.075  -0.363  53.701  1.00  0.00     0.038 C 
HETATM    7  C5  UNL     1      28.285   0.452  53.853  1.00  0.00     0.029 C 
HETATM    8  C6  UNL     1      28.329   1.632  53.124  1.00  0.00     0.032 C 
HETATM    9  C7  UNL     1      27.075   1.918  52.300  1.00  0.00     0.036 C 
HETATM   10  C16 UNL     1      26.198   0.952  52.439  1.00  0.00    -0.004 C 
HETATM   11  C17 UNL     1      26.756  -0.508  52.181  1.00  0.00     0.101 C 
ENDROOT
BRANCH   9  12
HETATM   12  N3  UNL     1      26.535   2.940  51.546  1.00  0.00    -0.386 N 
HETATM   13  H4  UNL     1      26.195   3.580  52.297  1.00  0.00     0.160 HD
BRANCH  12  14
HETATM   14  C8  UNL     1      26.480   3.061  50.080  1.00  0.00     0.147 C 
BRANCH  14  15
HETATM   15  C9  UNL     1      26.200   4.434  49.669  1.00  0.00    -0.010 C 
HETATM   16  C10 UNL     1      25.123   5.045  49.215  1.00  0.00     0.001 C 
BRANCH  16  17
HETATM   17  C11 UNL     1      23.827   4.391  49.003  1.00  0.00     0.299 C 
BRANCH  17  18
HETATM   18  N4  UNL     1      22.687   5.158  49.412  1.00  0.00     0.096 N 
HETATM   19  C12 UNL     1      22.958   6.136  50.419  1.00  0.00     0.299 C 
HETATM   20  C13 UNL     1      21.672   6.748  50.891  1.00  0.00     0.198 C 
HETATM   21  O1  UNL     1      20.632   6.537  49.988  1.00  0.00    -0.388 OA
HETATM   22  C14 UNL     1      20.328   5.173  49.972  1.00  0.00     0.198 C 
HETATM   23  C15 UNL     1      21.523   4.356  49.619  1.00  0.00     0.299 C 
ENDBRANCH  17  18
ENDBRANCH  16  17
ENDBRANCH  14  15
ENDBRANCH  12  14
ENDBRANCH   9  12
TORSDOF 5
ENDMDL
MODEL 5
REMARK VINA RESULT:      -7.0      3.279      4.689
REMARK  5 active torsions:
REMARK  status: ('A' for Active; 'I' for Inactive)
REMARK    1  A    between atoms: C7_9  and  N3_10 
REMARK    2  A    between atoms: N3_10  and  C8_11 
REMARK    3  A    between atoms: C8_11  and  C9_12 
REMARK    4  A    between atoms: C10_13  and  C11_14 
REMARK    5  A    between atoms: C11_14  and  N4_15 
ROOT
HETATM    1  N1  UNL     1      21.338  -1.668  54.922  1.00  0.00    -0.191 NA
HETATM    2  C1  UNL     1      22.414  -1.391  54.854  1.00  0.00     0.101 C 
HETATM    3  C2  UNL     1      23.786  -1.044  54.793  1.00  0.00     0.071 C 
HETATM    4  C3  UNL     1      24.923  -1.080  55.608  1.00  0.00     0.140 C 
HETATM    5  N2  UNL     1      26.135  -0.215  55.187  1.00  0.00    -0.264 NA
HETATM    6  C4  UNL     1      25.883   0.450  54.074  1.00  0.00     0.038 C 
HETATM    7  C5  UNL     1      25.593   1.715  53.390  1.00  0.00     0.029 C 
HETATM    8  C6  UNL     1      24.389   1.782  52.703  1.00  0.00     0.032 C 
HETATM    9  C7  UNL     1      23.527   0.524  52.804  1.00  0.00     0.036 C 
HETATM   10  C16 UNL     1      24.129  -0.394  53.523  1.00  0.00    -0.004 C 
HETATM   11  C17 UNL     1      25.614  -0.727  53.086  1.00  0.00     0.101 C 
ENDROOT
BRANCH   9  12
HETATM   12  N3  UNL     1      22.257   0.102  52.467  1.00  0.00    -0.386 N 
HETATM   13  H4  UNL     1      22.277  -0.880  52.819  1.00  0.00     0.160 HD
BRANCH  12  14
HETATM   14  C8  UNL     1      21.189   0.864  51.799  1.00  0.00     0.147 C 
BRANCH  14  15
HETATM   15  C9  UNL     1      20.739   1.982  52.622  1.00  0.00    -0.010 C 
HETATM   16  C10 UNL     1      20.612   3.277  52.406  1.00  0.00     0.001 C 
BRANCH  16  17
HETATM   17  C11 UNL     1      20.938   3.940  51.138  1.00  0.00     0.299 C 
BRANCH  17  18
HETATM   18  N4  UNL     1      22.328   4.241  50.951  1.00  0.00     0.096 N 
HETATM   19  C12 UNL     1      22.724   5.535  51.412  1.00  0.00     0.299 C 
HETATM   20  C13 UNL     1      24.143   5.805  51.008  1.00  0.00     0.198 C 
HETATM   21  O1  UNL     1      24.823   4.634  50.678  1.00  0.00    -0.388 OA
HETATM   22  C14 UNL     1      24.269   4.115  49.505  1.00  0.00     0.198 C 
HETATM   23  C15 UNL     1      22.808   3.864  49.660  1.00  0.00     0.299 C 
ENDBRANCH  17  18
ENDBRANCH  16  17
ENDBRANCH  14  15
ENDBRANCH  12  14
ENDBRANCH   9  12
TORSDOF 5
ENDMDL
MODEL 6
REMARK VINA RESULT:      -7.0      2.497      3.151
REMARK  5 active torsions:
REMARK  status: ('A' for Active; 'I' for Inactive)
REMARK    1  A    between atoms: C7_9  and  N3_10 
REMARK    2  A    between atoms: N3_10  and  C8_11 
REMARK    3  A    between atoms: C8_11  and  C9_12 
REMARK    4  A    between atoms: C10_13  and  C11_14 
REMARK    5  A    between atoms: C11_14  and  N4_15 
ROOT
HETATM    1  N1  UNL     1      23.446   2.661  52.052  1.00  0.00    -0.191 NA
HETATM    2  C1  UNL     1      24.124   1.880  52.463  1.00  0.00     0.101 C 
HETATM    3  C2  UNL     1      24.969   0.880  53.004  1.00  0.00     0.071 C 
HETATM    4  C3  UNL     1      24.903  -0.180  53.916  1.00  0.00     0.140 C 
HETATM    5  N2  UNL     1      26.239  -0.754  54.445  1.00  0.00    -0.264 NA
HETATM    6  C4  UNL     1      27.272  -0.118  53.925  1.00  0.00     0.038 C 
HETATM    7  C5  UNL     1      28.388   0.822  54.073  1.00  0.00     0.029 C 
HETATM    8  C6  UNL     1      28.362   1.945  53.257  1.00  0.00     0.032 C 
HETATM    9  C7  UNL     1      27.136   2.044  52.351  1.00  0.00     0.036 C 
HETATM   10  C16 UNL     1      26.348   1.009  52.521  1.00  0.00    -0.004 C 
HETATM   11  C17 UNL     1      27.055  -0.403  52.406  1.00  0.00     0.101 C 
ENDROOT
BRANCH   9  12
HETATM   12  N3  UNL     1      26.546   2.950  51.493  1.00  0.00    -0.386 N 
HETATM   13  H4  UNL     1      26.218   3.676  52.168  1.00  0.00     0.160 HD
BRANCH  12  14
HETATM   14  C8  UNL     1      26.436   2.880  50.026  1.00  0.00     0.147 C 
BRANCH  14  15
HETATM   15  C9  UNL     1      26.771   4.158  49.406  1.00  0.00    -0.010 C 
HETATM   16  C10 UNL     1      26.151   5.320  49.326  1.00  0.00     0.001 C 
BRANCH  16  17
HETATM   17  C11 UNL     1      24.837   5.600  49.917  1.00  0.00     0.299 C 
BRANCH  17  18
HETATM   18  N4  UNL     1      23.762   5.716  48.975  1.00  0.00     0.096 N 
HETATM   19  C12 UNL     1      23.202   4.469  48.554  1.00  0.00     0.299 C 
HETATM   20  C13 UNL     1      22.216   4.704  47.448  1.00  0.00     0.198 C 
HETATM   21  O1  UNL     1      21.795   6.031  47.397  1.00  0.00    -0.388 OA
HETATM   22  C14 UNL     1      22.878   6.825  47.009  1.00  0.00     0.198 C 
HETATM   23  C15 UNL     1      24.031   6.661  47.939  1.00  0.00     0.299 C 
ENDBRANCH  17  18
ENDBRANCH  16  17
ENDBRANCH  14  15
ENDBRANCH  12  14
ENDBRANCH   9  12
TORSDOF 5
ENDMDL
MODEL 7
REMARK VINA RESULT:      -6.9      3.429      4.887
REMARK  5 active torsions:
REMARK  status: ('A' for Active; 'I' for Inactive)
REMARK    1  A    between atoms: C7_9  and  N3_10 
REMARK    2  A    between atoms: N3_10  and  C8_11 
REMARK    3  A    between atoms: C8_11  and  C9_12 
REMARK    4  A    between atoms: C10_13  and  C11_14 
REMARK    5  A    between atoms: C11_14  and  N4_15 
ROOT
HETATM    1  N1  UNL     1      23.437   1.920  52.687  1.00  0.00    -0.191 NA
HETATM    2  C1  UNL     1      24.319   1.364  53.077  1.00  0.00     0.101 C 
HETATM    3  C2  UNL     1      25.428   0.650  53.592  1.00  0.00     0.071 C 
HETATM    4  C3  UNL     1      25.716  -0.265  54.611  1.00  0.00     0.140 C 
HETATM    5  N2  UNL     1      27.200  -0.464  54.999  1.00  0.00    -0.264 NA
HETATM    6  C4  UNL     1      27.991   0.302  54.269  1.00  0.00     0.038 C 
HETATM    7  C5  UNL     1      28.871   1.469  54.153  1.00  0.00     0.029 C 
HETATM    8  C6  UNL     1      28.493   2.438  53.235  1.00  0.00     0.032 C 
HETATM    9  C7  UNL     1      27.178   2.150  52.511  1.00  0.00     0.036 C 
HETATM   10  C16 UNL     1      26.674   1.003  52.903  1.00  0.00    -0.004 C 
HETATM   11  C17 UNL     1      27.668  -0.227  52.838  1.00  0.00     0.101 C 
ENDROOT
BRANCH   9  12
HETATM   12  N3  UNL     1      26.299   2.784  51.657  1.00  0.00    -0.386 N 
HETATM   13  H4  UNL     1      25.435   2.802  52.241  1.00  0.00     0.160 HD
BRANCH  12  14
HETATM   14  C8  UNL     1      26.553   3.291  50.298  1.00  0.00     0.147 C 
BRANCH  14  15
HETATM   15  C9  UNL     1      25.590   4.323  49.927  1.00  0.00    -0.010 C 
HETATM   16  C10 UNL     1      24.406   4.295  49.347  1.00  0.00     0.001 C 
BRANCH  16  17
HETATM   17  C11 UNL     1      23.730   3.071  48.903  1.00  0.00     0.299 C 
BRANCH  17  18
HETATM   18  N4  UNL     1      22.516   2.762  49.601  1.00  0.00     0.096 N 
HETATM   19  C12 UNL     1      21.957   1.484  49.286  1.00  0.00     0.299 C 
HETATM   20  C13 UNL     1      20.611   1.346  49.933  1.00  0.00     0.198 C 
HETATM   21  O1  UNL     1      20.433   2.261  50.968  1.00  0.00    -0.388 OA
HETATM   22  C14 UNL     1      20.372   3.545  50.419  1.00  0.00     0.198 C 
HETATM   23  C15 UNL     1      21.597   3.855  49.629  1.00  0.00     0.299 C 
ENDBRANCH  17  18
ENDBRANCH  16  17
ENDBRANCH  14  15
ENDBRANCH  12  14
ENDBRANCH   9  12
TORSDOF 5
ENDMDL
MODEL 8
REMARK VINA RESULT:      -6.8      2.870      7.435
REMARK  5 active torsions:
REMARK  status: ('A' for Active; 'I' for Inactive)
REMARK    1  A    between atoms: C7_9  and  N3_10 
REMARK    2  A    between atoms: N3_10  and  C8_11 
REMARK    3  A    between atoms: C8_11  and  C9_12 
REMARK    4  A    between atoms: C10_13  and  C11_14 
REMARK    5  A    between atoms: C11_14  and  N4_15 
ROOT
HETATM    1  N1  UNL     1      26.878   2.864  50.583  1.00  0.00    -0.191 NA
HETATM    2  C1  UNL     1      26.653   3.803  50.030  1.00  0.00     0.101 C 
HETATM    3  C2  UNL     1      26.390   5.000  49.318  1.00  0.00     0.071 C 
HETATM    4  C3  UNL     1      27.030   5.852  48.412  1.00  0.00     0.140 C 
HETATM    5  N2  UNL     1      26.433   7.266  48.213  1.00  0.00    -0.264 NA
HETATM    6  C4  UNL     1      25.367   7.445  48.971  1.00  0.00     0.038 C 
HETATM    7  C5  UNL     1      24.729   8.067  50.136  1.00  0.00     0.029 C 
HETATM    8  C6  UNL     1      24.225   7.203  51.098  1.00  0.00     0.032 C 
HETATM    9  C7  UNL     1      24.455   5.722  50.806  1.00  0.00     0.036 C 
HETATM   10  C16 UNL     1      25.081   5.566  49.663  1.00  0.00    -0.004 C 
HETATM   11  C17 UNL     1      24.433   6.318  48.430  1.00  0.00     0.101 C 
ENDROOT
BRANCH   9  12
HETATM   12  N3  UNL     1      24.309   4.501  51.434  1.00  0.00    -0.386 N 
HETATM   13  H4  UNL     1      25.160   4.488  52.038  1.00  0.00     0.160 HD
BRANCH  12  14
HETATM   14  C8  UNL     1      23.226   3.516  51.274  1.00  0.00     0.147 C 
BRANCH  14  15
HETATM   15  C9  UNL     1      23.052   2.716  52.482  1.00  0.00    -0.010 C 
HETATM   16  C10 UNL     1      23.588   1.591  52.912  1.00  0.00     0.001 C 
BRANCH  16  17
HETATM   17  C11 UNL     1      24.594   0.818  52.175  1.00  0.00     0.299 C 
BRANCH  17  18
HETATM   18  N4  UNL     1      25.690   0.338  52.966  1.00  0.00     0.096 N 
HETATM   19  C12 UNL     1      26.272   1.315  53.832  1.00  0.00     0.299 C 
HETATM   20  C13 UNL     1      27.507   0.755  54.471  1.00  0.00     0.198 C 
HETATM   21  O1  UNL     1      27.546  -0.636  54.402  1.00  0.00    -0.388 OA
HETATM   22  C14 UNL     1      27.702  -1.010  53.065  1.00  0.00     0.198 C 
HETATM   23  C15 UNL     1      26.609  -0.458  52.216  1.00  0.00     0.299 C 
ENDBRANCH  17  18
ENDBRANCH  16  17
ENDBRANCH  14  15
ENDBRANCH  12  14
ENDBRANCH   9  12
TORSDOF 5
ENDMDL
MODEL 9
REMARK VINA RESULT:      -6.7      4.284      7.035
REMARK  5 active torsions:
REMARK  status: ('A' for Active; 'I' for Inactive)
REMARK    1  A    between atoms: C7_9  and  N3_10 
REMARK    2  A    between atoms: N3_10  and  C8_11 
REMARK    3  A    between atoms: C8_11  and  C9_12 
REMARK    4  A    between atoms: C10_13  and  C11_14 
REMARK    5  A    between atoms: C11_14  and  N4_15 
ROOT
HETATM    1  N1  UNL     1      27.252   9.640  50.195  1.00  0.00    -0.191 NA
HETATM    2  C1  UNL     1      26.639   8.712  50.167  1.00  0.00     0.101 C 
HETATM    3  C2  UNL     1      25.849   7.536  50.153  1.00  0.00     0.071 C 
HETATM    4  C3  UNL     1      24.847   6.926  50.917  1.00  0.00     0.140 C 
HETATM    5  N2  UNL     1      24.569   5.425  50.667  1.00  0.00    -0.264 NA
HETATM    6  C4  UNL     1      25.364   4.941  49.730  1.00  0.00     0.038 C 
HETATM    7  C5  UNL     1      26.507   4.108  49.343  1.00  0.00     0.029 C 
HETATM    8  C6  UNL     1      27.558   4.758  48.712  1.00  0.00     0.032 C 
HETATM    9  C7  UNL     1      27.372   6.266  48.557  1.00  0.00     0.036 C 
HETATM   10  C16 UNL     1      26.215   6.644  49.047  1.00  0.00    -0.004 C 
HETATM   11  C17 UNL     1      24.961   5.835  48.517  1.00  0.00     0.101 C 
ENDROOT
BRANCH   9  12
HETATM   12  N3  UNL     1      28.101   7.371  48.163  1.00  0.00    -0.386 N 
HETATM   13  H4  UNL     1      27.346   7.974  47.769  1.00  0.00     0.160 HD
BRANCH  12  14
HETATM   14  C8  UNL     1      29.550   7.600  48.289  1.00  0.00     0.147 C 
BRANCH  14  15
HETATM   15  C9  UNL     1      30.266   7.145  47.102  1.00  0.00    -0.010 C 
HETATM   16  C10 UNL     1      31.434   6.562  46.913  1.00  0.00     0.001 C 
BRANCH  16  17
HETATM   17  C11 UNL     1      32.366   6.207  47.989  1.00  0.00     0.299 C 
BRANCH  17  18
HETATM   18  N4  UNL     1      32.869   4.865  47.937  1.00  0.00     0.096 N 
HETATM   19  C12 UNL     1      34.289   4.756  48.055  1.00  0.00     0.299 C 
HETATM   20  C13 UNL     1      34.712   3.338  47.811  1.00  0.00     0.198 C 
HETATM   21  O1  UNL     1      33.649   2.446  47.946  1.00  0.00    -0.388 OA
HETATM   22  C14 UNL     1      32.744   2.674  46.905  1.00  0.00     0.198 C 
HETATM   23  C15 UNL     1      32.267   4.086  46.901  1.00  0.00     0.299 C 
ENDBRANCH  17  18
ENDBRANCH  16  17
ENDBRANCH  14  15
ENDBRANCH  12  14
ENDBRANCH   9  12
TORSDOF 5
ENDMDL
