MODEL 1
REMARK VINA RESULT:      -7.9      0.000      0.000
REMARK  6 active torsions:
REMARK  status: ('A' for Active; 'I' for Inactive)
REMARK    1  A    between atoms: C2_2  and  C3_3 
REMARK    2  A    between atoms: C4_4  and  C5_5 
REMARK    3  A    between atoms: C5_5  and  N1_6 
REMARK    4  A    between atoms: C5_5  and  C6_7 
REMARK    5  A    between atoms: C12_16  and  N5_17 
REMARK       I    between atoms: N5_17  and  C13_18 
REMARK    6  A    between atoms: C13_18  and  C14_20 
ROOT
HETATM    1  C6  UNL     1      23.492   2.949  52.128  1.00  0.00     0.083 A 
HETATM    2  N2  UNL     1      22.137   3.125  52.164  1.00  0.00    -0.260 NA
HETATM    3  C7  UNL     1      21.314   2.140  52.566  1.00  0.00     0.142 A 
HETATM    4  C8  UNL     1      21.734   0.891  52.971  1.00  0.00     0.091 A 
HETATM    5  C9  UNL     1      20.852  -0.143  53.395  1.00  0.00     0.103 C 
HETATM    6  N3  UNL     1      20.151  -0.988  53.745  1.00  0.00    -0.191 NA
HETATM    7  C10 UNL     1      23.097   0.680  52.947  1.00  0.00     0.091 A 
HETATM    8  N4  UNL     1      23.643  -0.499  53.320  1.00  0.00    -0.256 NA
HETATM    9  C11 UNL     1      24.977  -0.677  53.287  1.00  0.00     0.147 A 
HETATM   10  C12 UNL     1      25.839   0.321  52.878  1.00  0.00     0.053 A 
HETATM   11  C16 UNL     1      25.295   1.531  52.494  1.00  0.00     0.047 A 
HETATM   12  C17 UNL     1      23.926   1.702  52.532  1.00  0.00     0.024 A 
ENDROOT
BRANCH   1  13
HETATM   13  C5  UNL     1      24.247   4.084  51.677  1.00  0.00     0.293 C 
BRANCH  13  14
HETATM   14  C4  UNL     1      23.816   4.350  50.256  1.00  0.00     0.014 C 
HETATM   15  C3  UNL     1      24.743   4.259  49.315  1.00  0.00    -0.002 C 
BRANCH  15  16
HETATM   16  C2  UNL     1      26.127   3.917  49.625  1.00  0.00    -0.010 C 
HETATM   17  C1  UNL     1      27.153   4.428  48.979  1.00  0.00     0.011 C 
ENDBRANCH  15  16
ENDBRANCH  13  14
BRANCH  13  18
HETATM   18  N1  UNL     1      23.753   5.267  52.404  1.00  0.00     0.092 N 
HETATM   19  H7  UNL     1      24.299   6.116  52.139  1.00  0.00     0.314 HD
HETATM   20  H8  UNL     1      22.748   5.434  52.165  1.00  0.00     0.314 HD
ENDBRANCH  13  18
ENDBRANCH   1  13
BRANCH  10  21
HETATM   21  N5  UNL     1      27.214   0.029  52.882  1.00  0.00    -0.326 N 
HETATM   22  C13 UNL     1      28.066   0.320  53.992  1.00  0.00     0.221 C 
HETATM   23  O1  UNL     1      27.446   0.858  54.943  1.00  0.00    -0.273 OA
HETATM   24  H11 UNL     1      27.600  -0.424  52.015  1.00  0.00     0.169 HD
BRANCH  22  25
HETATM   25  C14 UNL     1      29.510  -0.048  53.851  1.00  0.00     0.098 C 
HETATM   26  C15 UNL     1      29.663  -1.483  53.438  1.00  0.00     0.014 C 
ENDBRANCH  22  25
ENDBRANCH  10  21
TORSDOF 6
ENDMDL
MODEL 2
REMARK VINA RESULT:      -7.6      1.815      5.214
REMARK  6 active torsions:
REMARK  status: ('A' for Active; 'I' for Inactive)
REMARK    1  A    between atoms: C2_2  and  C3_3 
REMARK    2  A    between atoms: C4_4  and  C5_5 
REMARK    3  A    between atoms: C5_5  and  N1_6 
REMARK    4  A    between atoms: C5_5  and  C6_7 
REMARK    5  A    between atoms: C12_16  and  N5_17 
REMARK       I    between atoms: N5_17  and  C13_18 
REMARK    6  A    between atoms: C13_18  and  C14_20 
ROOT
HETATM    1  C6  UNL     1      25.192   0.056  53.339  1.00  0.00     0.083 A 
HETATM    2  N2  UNL     1      24.423  -0.905  53.935  1.00  0.00    -0.260 NA
HETATM    3  C7  UNL     1      23.085  -0.784  54.008  1.00  0.00     0.142 A 
HETATM    4  C8  UNL     1      22.372   0.285  53.509  1.00  0.00     0.091 A 
HETATM    5  C9  UNL     1      20.956   0.401  53.593  1.00  0.00     0.103 C 
HETATM    6  N3  UNL     1      19.809   0.507  53.649  1.00  0.00    -0.191 NA
HETATM    7  C10 UNL     1      23.119   1.273  52.901  1.00  0.00     0.091 A 
HETATM    8  N4  UNL     1      22.544   2.375  52.368  1.00  0.00    -0.256 NA
HETATM    9  C11 UNL     1      23.299   3.323  51.781  1.00  0.00     0.147 A 
HETATM   10  C12 UNL     1      24.672   3.218  51.695  1.00  0.00     0.053 A 
HETATM   11  C16 UNL     1      25.272   2.097  52.235  1.00  0.00     0.047 A 
HETATM   12  C17 UNL     1      24.490   1.131  52.835  1.00  0.00     0.024 A 
ENDROOT
BRANCH   1  13
HETATM   13  C5  UNL     1      26.604  -0.205  53.334  1.00  0.00     0.293 C 
BRANCH  13  14
HETATM   14  C4  UNL     1      27.101   0.086  54.729  1.00  0.00     0.014 C 
HETATM   15  C3  UNL     1      28.379   0.404  54.863  1.00  0.00    -0.002 C 
BRANCH  15  16
HETATM   16  C2  UNL     1      29.282   0.472  53.719  1.00  0.00    -0.010 C 
HETATM   17  C1  UNL     1      30.191  -0.445  53.469  1.00  0.00     0.011 C 
ENDBRANCH  15  16
ENDBRANCH  13  14
BRANCH  13  18
HETATM   18  N1  UNL     1      26.790  -1.662  53.210  1.00  0.00     0.092 N 
HETATM   19  H7  UNL     1      27.587  -1.983  53.802  1.00  0.00     0.314 HD
HETATM   20  H8  UNL     1      25.923  -2.156  53.528  1.00  0.00     0.314 HD
ENDBRANCH  13  18
ENDBRANCH   1  13
BRANCH  10  21
HETATM   21  N5  UNL     1      25.362   4.265  51.060  1.00  0.00    -0.326 N 
HETATM   22  C13 UNL     1      25.651   4.269  49.660  1.00  0.00     0.221 C 
HETATM   23  O1  UNL     1      25.221   3.241  49.080  1.00  0.00    -0.273 OA
HETATM   24  H11 UNL     1      25.665   5.066  51.671  1.00  0.00     0.169 HD
BRANCH  22  25
HETATM   25  C14 UNL     1      26.394   5.453  49.126  1.00  0.00     0.098 C 
HETATM   26  C15 UNL     1      27.734   5.050  48.584  1.00  0.00     0.014 C 
ENDBRANCH  22  25
ENDBRANCH  10  21
TORSDOF 6
ENDMDL
MODEL 3
REMARK VINA RESULT:      -7.0      2.582      5.167
REMARK  6 active torsions:
REMARK  status: ('A' for Active; 'I' for Inactive)
REMARK    1  A    between atoms: C2_2  and  C3_3 
REMARK    2  A    between atoms: C4_4  and  C5_5 
REMARK    3  A    between atoms: C5_5  and  N1_6 
REMARK    4  A    between atoms: C5_5  and  C6_7 
REMARK    5  A    between atoms: C12_16  and  N5_17 
REMARK       I    between atoms: N5_17  and  C13_18 
REMARK    6  A    between atoms: C13_18  and  C14_20 
ROOT
HETATM    1  C6  UNL     1      22.983   1.394  51.852  1.00  0.00     0.083 A 
HETATM    2  N2  UNL     1      22.804   0.449  52.823  1.00  0.00    -0.260 NA
HETATM    3  C7  UNL     1      23.842  -0.037  53.527  1.00  0.00     0.142 A 
HETATM    4  C8  UNL     1      25.153   0.353  53.349  1.00  0.00     0.091 A 
HETATM    5  C9  UNL     1      26.243  -0.169  54.101  1.00  0.00     0.103 C 
HETATM    6  N3  UNL     1      27.136  -0.578  54.705  1.00  0.00    -0.191 NA
HETATM    7  C10 UNL     1      25.368   1.306  52.376  1.00  0.00     0.091 A 
HETATM    8  N4  UNL     1      26.605   1.777  52.101  1.00  0.00    -0.256 NA
HETATM    9  C11 UNL     1      26.785   2.708  51.145  1.00  0.00     0.147 A 
HETATM   10  C12 UNL     1      25.733   3.220  50.412  1.00  0.00     0.053 A 
HETATM   11  C16 UNL     1      24.464   2.747  50.683  1.00  0.00     0.047 A 
HETATM   12  C17 UNL     1      24.290   1.792  51.665  1.00  0.00     0.024 A 
ENDROOT
BRANCH   1  13
HETATM   13  C5  UNL     1      21.786   1.819  51.182  1.00  0.00     0.293 C 
BRANCH  13  14
HETATM   14  C4  UNL     1      21.319   0.650  50.350  1.00  0.00     0.014 C 
HETATM   15  C3  UNL     1      21.256   0.826  49.040  1.00  0.00    -0.002 C 
BRANCH  15  16
HETATM   16  C2  UNL     1      21.618   2.092  48.412  1.00  0.00    -0.010 C 
HETATM   17  C1  UNL     1      22.553   2.195  47.493  1.00  0.00     0.011 C 
ENDBRANCH  15  16
ENDBRANCH  13  14
BRANCH  13  18
HETATM   18  N1  UNL     1      20.727   1.952  52.198  1.00  0.00     0.092 N 
HETATM   19  H7  UNL     1      20.599   2.951  52.468  1.00  0.00     0.314 HD
HETATM   20  H8  UNL     1      19.821   1.597  51.812  1.00  0.00     0.314 HD
ENDBRANCH  13  18
ENDBRANCH   1  13
BRANCH  10  21
HETATM   21  N5  UNL     1      26.034   4.188  49.439  1.00  0.00    -0.326 N 
HETATM   22  C13 UNL     1      25.699   5.569  49.588  1.00  0.00     0.221 C 
HETATM   23  O1  UNL     1      25.114   5.805  50.675  1.00  0.00    -0.273 OA
HETATM   24  H11 UNL     1      26.528   3.848  48.575  1.00  0.00     0.169 HD
BRANCH  22  25
HETATM   25  C14 UNL     1      26.083   6.483  48.467  1.00  0.00     0.098 C 
HETATM   26  C15 UNL     1      27.567   6.470  48.244  1.00  0.00     0.014 C 
ENDBRANCH  22  25
ENDBRANCH  10  21
TORSDOF 6
ENDMDL
MODEL 4
REMARK VINA RESULT:      -6.9      2.393      5.501
REMARK  6 active torsions:
REMARK  status: ('A' for Active; 'I' for Inactive)
REMARK    1  A    between atoms: C2_2  and  C3_3 
REMARK    2  A    between atoms: C4_4  and  C5_5 
REMARK    3  A    between atoms: C5_5  and  N1_6 
REMARK    4  A    between atoms: C5_5  and  C6_7 
REMARK    5  A    between atoms: C12_16  and  N5_17 
REMARK       I    between atoms: N5_17  and  C13_18 
REMARK    6  A    between atoms: C13_18  and  C14_20 
ROOT
HETATM    1  C6  UNL     1      24.913   2.373  51.556  1.00  0.00     0.083 A 
HETATM    2  N2  UNL     1      26.219   2.733  51.745  1.00  0.00    -0.260 NA
HETATM    3  C7  UNL     1      27.014   2.060  52.595  1.00  0.00     0.142 A 
HETATM    4  C8  UNL     1      26.613   0.972  53.341  1.00  0.00     0.091 A 
HETATM    5  C9  UNL     1      27.465   0.268  54.237  1.00  0.00     0.103 C 
HETATM    6  N3  UNL     1      28.144  -0.316  54.963  1.00  0.00    -0.191 NA
HETATM    7  C10 UNL     1      25.300   0.582  53.173  1.00  0.00     0.091 A 
HETATM    8  N4  UNL     1      24.778  -0.470  53.843  1.00  0.00    -0.256 NA
HETATM    9  C11 UNL     1      23.493  -0.829  53.659  1.00  0.00     0.147 A 
HETATM   10  C12 UNL     1      22.660  -0.151  52.791  1.00  0.00     0.053 A 
HETATM   11  C16 UNL     1      23.181   0.926  52.101  1.00  0.00     0.047 A 
HETATM   12  C17 UNL     1      24.499   1.285  52.297  1.00  0.00     0.024 A 
ENDROOT
BRANCH   1  13
HETATM   13  C5  UNL     1      24.183   3.182  50.620  1.00  0.00     0.293 C 
BRANCH  13  14
HETATM   14  C4  UNL     1      24.019   4.538  51.261  1.00  0.00     0.014 C 
HETATM   15  C3  UNL     1      22.785   4.936  51.528  1.00  0.00    -0.002 C 
BRANCH  15  16
HETATM   16  C2  UNL     1      21.623   4.108  51.220  1.00  0.00    -0.010 C 
HETATM   17  C1  UNL     1      20.811   3.642  52.144  1.00  0.00     0.011 C 
ENDBRANCH  15  16
ENDBRANCH  13  14
BRANCH  13  18
HETATM   18  N1  UNL     1      25.071   3.456  49.477  1.00  0.00     0.092 N 
HETATM   19  H7  UNL     1      24.515   3.714  48.633  1.00  0.00     0.314 HD
HETATM   20  H8  UNL     1      25.708   4.255  49.708  1.00  0.00     0.314 HD
ENDBRANCH  13  18
ENDBRANCH   1  13
BRANCH  10  21
HETATM   21  N5  UNL     1      21.337  -0.610  52.676  1.00  0.00    -0.326 N 
HETATM   22  C13 UNL     1      20.287  -0.178  53.544  1.00  0.00     0.221 C 
HETATM   23  O1  UNL     1      20.686   0.645  54.405  1.00  0.00    -0.273 OA
HETATM   24  H11 UNL     1      21.145  -1.300  51.906  1.00  0.00     0.169 HD
BRANCH  22  25
HETATM   25  C14 UNL     1      18.928  -0.755  53.300  1.00  0.00     0.098 C 
HETATM   26  C15 UNL     1      18.391  -0.325  51.966  1.00  0.00     0.014 C 
ENDBRANCH  22  25
ENDBRANCH  10  21
TORSDOF 6
ENDMDL
MODEL 5
REMARK VINA RESULT:      -6.6      2.395      4.913
REMARK  6 active torsions:
REMARK  status: ('A' for Active; 'I' for Inactive)
REMARK    1  A    between atoms: C2_2  and  C3_3 
REMARK    2  A    between atoms: C4_4  and  C5_5 
REMARK    3  A    between atoms: C5_5  and  N1_6 
REMARK    4  A    between atoms: C5_5  and  C6_7 
REMARK    5  A    between atoms: C12_16  and  N5_17 
REMARK       I    between atoms: N5_17  and  C13_18 
REMARK    6  A    between atoms: C13_18  and  C14_20 
ROOT
HETATM    1  C6  UNL     1      24.004  -0.055  53.274  1.00  0.00     0.083 A 
HETATM    2  N2  UNL     1      23.430  -0.908  54.176  1.00  0.00    -0.260 NA
HETATM    3  C7  UNL     1      22.099  -1.096  54.212  1.00  0.00     0.142 A 
HETATM    4  C8  UNL     1      21.201  -0.471  53.372  1.00  0.00     0.091 A 
HETATM    5  C9  UNL     1      19.794  -0.680  53.420  1.00  0.00     0.103 C 
HETATM    6  N3  UNL     1      18.653  -0.842  53.443  1.00  0.00    -0.191 NA
HETATM    7  C10 UNL     1      21.748   0.396  52.448  1.00  0.00     0.091 A 
HETATM    8  N4  UNL     1      20.981   1.072  51.564  1.00  0.00    -0.256 NA
HETATM    9  C11 UNL     1      21.542   1.911  50.674  1.00  0.00     0.147 A 
HETATM   10  C12 UNL     1      22.906   2.118  50.620  1.00  0.00     0.053 A 
HETATM   11  C16 UNL     1      23.701   1.434  51.518  1.00  0.00     0.047 A 
HETATM   12  C17 UNL     1      23.116   0.576  52.427  1.00  0.00     0.024 A 
ENDROOT
BRANCH   1  13
HETATM   13  C5  UNL     1      25.434   0.048  53.351  1.00  0.00     0.293 C 
BRANCH  13  14
HETATM   14  C4  UNL     1      25.733   1.278  54.172  1.00  0.00     0.014 C 
HETATM   15  C3  UNL     1      26.561   2.169  53.649  1.00  0.00    -0.002 C 
BRANCH  15  16
HETATM   16  C2  UNL     1      27.167   1.981  52.335  1.00  0.00    -0.010 C 
HETATM   17  C1  UNL     1      26.858   2.721  51.292  1.00  0.00     0.011 C 
ENDBRANCH  15  16
ENDBRANCH  13  14
BRANCH  13  18
HETATM   18  N1  UNL     1      25.917  -1.051  54.205  1.00  0.00     0.092 N 
HETATM   19  H7  UNL     1      26.725  -1.537  53.758  1.00  0.00     0.314 HD
HETATM   20  H8  UNL     1      26.232  -0.669  55.128  1.00  0.00     0.314 HD
ENDBRANCH  13  18
ENDBRANCH   1  13
BRANCH  10  21
HETATM   21  N5  UNL     1      23.385   3.016  49.651  1.00  0.00    -0.326 N 
HETATM   22  C13 UNL     1      23.697   4.380  49.944  1.00  0.00     0.221 C 
HETATM   23  O1  UNL     1      23.494   4.670  51.149  1.00  0.00    -0.273 OA
HETATM   24  H11 UNL     1      23.508   2.636  48.678  1.00  0.00     0.169 HD
BRANCH  22  25
HETATM   25  C14 UNL     1      24.198   5.218  48.809  1.00  0.00     0.098 C 
HETATM   26  C15 UNL     1      25.671   5.472  48.935  1.00  0.00     0.014 C 
ENDBRANCH  22  25
ENDBRANCH  10  21
TORSDOF 6
ENDMDL
MODEL 6
REMARK VINA RESULT:      -6.5      2.365      6.076
REMARK  6 active torsions:
REMARK  status: ('A' for Active; 'I' for Inactive)
REMARK    1  A    between atoms: C2_2  and  C3_3 
REMARK    2  A    between atoms: C4_4  and  C5_5 
REMARK    3  A    between atoms: C5_5  and  N1_6 
REMARK    4  A    between atoms: C5_5  and  C6_7 
REMARK    5  A    between atoms: C12_16  and  N5_17 
REMARK       I    between atoms: N5_17  and  C13_18 
REMARK    6  A    between atoms: C13_18  and  C14_20 
ROOT
HETATM    1  C6  UNL     1      22.697   0.478  53.445  1.00  0.00     0.083 A 
HETATM    2  N2  UNL     1      23.128  -0.557  54.229  1.00  0.00    -0.260 NA
HETATM    3  C7  UNL     1      24.427  -0.900  54.282  1.00  0.00     0.142 A 
HETATM    4  C8  UNL     1      25.429  -0.267  53.577  1.00  0.00     0.091 A 
HETATM    5  C9  UNL     1      26.801  -0.641  53.644  1.00  0.00     0.103 C 
HETATM    6  N3  UNL     1      27.916  -0.927  53.690  1.00  0.00    -0.191 NA
HETATM    7  C10 UNL     1      25.028   0.782  52.776  1.00  0.00     0.091 A 
HETATM    8  N4  UNL     1      25.909   1.489  52.033  1.00  0.00    -0.256 NA
HETATM    9  C11 UNL     1      25.489   2.508  51.261  1.00  0.00     0.147 A 
HETATM   10  C12 UNL     1      24.160   2.876  51.192  1.00  0.00     0.053 A 
HETATM   11  C16 UNL     1      23.250   2.163  51.946  1.00  0.00     0.047 A 
HETATM   12  C17 UNL     1      23.691   1.119  52.735  1.00  0.00     0.024 A 
ENDROOT
BRANCH   1  13
HETATM   13  C5  UNL     1      21.284   0.731  53.485  1.00  0.00     0.293 C 
BRANCH  13  14
HETATM   14  C4  UNL     1      20.650  -0.211  52.492  1.00  0.00     0.014 C 
HETATM   15  C3  UNL     1      19.864   0.322  51.569  1.00  0.00    -0.002 C 
BRANCH  15  16
HETATM   16  C2  UNL     1      19.612   1.757  51.504  1.00  0.00    -0.010 C 
HETATM   17  C1  UNL     1      19.904   2.489  50.451  1.00  0.00     0.011 C 
ENDBRANCH  15  16
ENDBRANCH  13  14
BRANCH  13  18
HETATM   18  N1  UNL     1      20.778   0.242  54.780  1.00  0.00     0.092 N 
HETATM   19  H7  UNL     1      20.590  -0.783  54.739  1.00  0.00     0.314 HD
HETATM   20  H8  UNL     1      21.493   0.415  55.526  1.00  0.00     0.314 HD
ENDBRANCH  13  18
ENDBRANCH   1  13
BRANCH  10  21
HETATM   21  N5  UNL     1      23.832   3.956  50.354  1.00  0.00    -0.326 N 
HETATM   22  C13 UNL     1      23.309   3.783  49.035  1.00  0.00     0.221 C 
HETATM   23  O1  UNL     1      23.182   2.572  48.725  1.00  0.00    -0.273 OA
HETATM   24  H11 UNL     1      23.990   4.919  50.744  1.00  0.00     0.169 HD
BRANCH  22  25
HETATM   25  C14 UNL     1      23.006   5.027  48.259  1.00  0.00     0.098 C 
HETATM   26  C15 UNL     1      21.818   4.829  47.364  1.00  0.00     0.014 C 
ENDBRANCH  22  25
ENDBRANCH  10  21
TORSDOF 6
ENDMDL
MODEL 7
REMARK VINA RESULT:      -6.2      2.767      5.587
REMARK  6 active torsions:
REMARK  status: ('A' for Active; 'I' for Inactive)
REMARK    1  A    between atoms: C2_2  and  C3_3 
REMARK    2  A    between atoms: C4_4  and  C5_5 
REMARK    3  A    between atoms: C5_5  and  N1_6 
REMARK    4  A    between atoms: C5_5  and  C6_7 
REMARK    5  A    between atoms: C12_16  and  N5_17 
REMARK       I    between atoms: N5_17  and  C13_18 
REMARK    6  A    between atoms: C13_18  and  C14_20 
ROOT
HETATM    1  C6  UNL     1      25.783   2.966  50.862  1.00  0.00     0.083 A 
HETATM    2  N2  UNL     1      27.051   2.791  51.343  1.00  0.00    -0.260 NA
HETATM    3  C7  UNL     1      27.298   1.975  52.383  1.00  0.00     0.142 A 
HETATM    4  C8  UNL     1      26.334   1.252  53.052  1.00  0.00     0.091 A 
HETATM    5  C9  UNL     1      26.609   0.391  54.151  1.00  0.00     0.103 C 
HETATM    6  N3  UNL     1      26.817  -0.313  55.040  1.00  0.00    -0.191 NA
HETATM    7  C10 UNL     1      25.042   1.405  52.591  1.00  0.00     0.091 A 
HETATM    8  N4  UNL     1      24.002   0.753  53.156  1.00  0.00    -0.256 NA
HETATM    9  C11 UNL     1      22.752   0.922  52.685  1.00  0.00     0.147 A 
HETATM   10  C12 UNL     1      22.477   1.755  51.619  1.00  0.00     0.053 A 
HETATM   11  C16 UNL     1      23.531   2.427  51.032  1.00  0.00     0.047 A 
HETATM   12  C17 UNL     1      24.808   2.247  51.523  1.00  0.00     0.024 A 
ENDROOT
BRANCH   1  13
HETATM   13  C5  UNL     1      25.668   3.866  49.749  1.00  0.00     0.293 C 
BRANCH  13  14
HETATM   14  C4  UNL     1      25.219   5.192  50.314  1.00  0.00     0.014 C 
HETATM   15  C3  UNL     1      24.211   5.799  49.706  1.00  0.00    -0.002 C 
BRANCH  15  16
HETATM   16  C2  UNL     1      23.555   5.222  48.537  1.00  0.00    -0.010 C 
HETATM   17  C1  UNL     1      22.999   5.953  47.595  1.00  0.00     0.011 C 
ENDBRANCH  15  16
ENDBRANCH  13  14
BRANCH  13  18
HETATM   18  N1  UNL     1      27.029   4.153  49.262  1.00  0.00     0.092 N 
HETATM   19  H7  UNL     1      27.660   3.341  49.436  1.00  0.00     0.314 HD
HETATM   20  H8  UNL     1      27.003   4.335  48.231  1.00  0.00     0.314 HD
ENDBRANCH  13  18
ENDBRANCH   1  13
BRANCH  10  21
HETATM   21  N5  UNL     1      21.137   1.857  51.208  1.00  0.00    -0.326 N 
HETATM   22  C13 UNL     1      20.632   1.211  50.037  1.00  0.00     0.221 C 
HETATM   23  O1  UNL     1      21.516   0.555  49.434  1.00  0.00    -0.273 OA
HETATM   24  H11 UNL     1      20.504   2.442  51.811  1.00  0.00     0.169 HD
BRANCH  22  25
HETATM   25  C14 UNL     1      19.182   1.413  49.726  1.00  0.00     0.098 C 
HETATM   26  C15 UNL     1      18.322   0.488  50.538  1.00  0.00     0.014 C 
ENDBRANCH  22  25
ENDBRANCH  10  21
TORSDOF 6
ENDMDL
MODEL 8
REMARK VINA RESULT:      -6.1      1.817      2.454
REMARK  6 active torsions:
REMARK  status: ('A' for Active; 'I' for Inactive)
REMARK    1  A    between atoms: C2_2  and  C3_3 
REMARK    2  A    between atoms: C4_4  and  C5_5 
REMARK    3  A    between atoms: C5_5  and  N1_6 
REMARK    4  A    between atoms: C5_5  and  C6_7 
REMARK    5  A    between atoms: C12_16  and  N5_17 
REMARK       I    between atoms: N5_17  and  C13_18 
REMARK    6  A    between atoms: C13_18  and  C14_20 
ROOT
HETATM    1  C6  UNL     1      21.234   1.837  51.563  1.00  0.00     0.083 A 
HETATM    2  N2  UNL     1      19.912   1.695  51.242  1.00  0.00    -0.260 NA
HETATM    3  C7  UNL     1      19.167   0.708  51.770  1.00  0.00     0.142 A 
HETATM    4  C8  UNL     1      19.638  -0.233  52.660  1.00  0.00     0.091 A 
HETATM    5  C9  UNL     1      18.838  -1.273  53.212  1.00  0.00     0.103 C 
HETATM    6  N3  UNL     1      18.202  -2.117  53.672  1.00  0.00    -0.191 NA
HETATM    7  C10 UNL     1      20.969  -0.117  53.006  1.00  0.00     0.091 A 
HETATM    8  N4  UNL     1      21.558  -0.973  53.871  1.00  0.00    -0.256 NA
HETATM    9  C11 UNL     1      22.858  -0.836  54.190  1.00  0.00     0.147 A 
HETATM   10  C12 UNL     1      23.641   0.170  53.660  1.00  0.00     0.053 A 
HETATM   11  C16 UNL     1      23.052   1.051  52.775  1.00  0.00     0.047 A 
HETATM   12  C17 UNL     1      21.718   0.902  52.454  1.00  0.00     0.024 A 
ENDROOT
BRANCH   1  13
HETATM   13  C5  UNL     1      21.905   2.934  50.924  1.00  0.00     0.293 C 
BRANCH  13  14
HETATM   14  C4  UNL     1      22.221   2.484  49.518  1.00  0.00     0.014 C 
HETATM   15  C3  UNL     1      23.457   2.675  49.085  1.00  0.00    -0.002 C 
BRANCH  15  16
HETATM   16  C2  UNL     1      24.482   3.293  49.920  1.00  0.00    -0.010 C 
HETATM   17  C1  UNL     1      25.740   3.398  49.550  1.00  0.00     0.011 C 
ENDBRANCH  15  16
ENDBRANCH  13  14
BRANCH  13  18
HETATM   18  N1  UNL     1      20.916   4.007  50.719  1.00  0.00     0.092 N 
HETATM   19  H7  UNL     1      21.336   4.796  50.181  1.00  0.00     0.314 HD
HETATM   20  H8  UNL     1      20.101   3.636  50.175  1.00  0.00     0.314 HD
ENDBRANCH  13  18
ENDBRANCH   1  13
BRANCH  10  21
HETATM   21  N5  UNL     1      24.987   0.221  54.062  1.00  0.00    -0.326 N 
HETATM   22  C13 UNL     1      26.034  -0.449  53.356  1.00  0.00     0.221 C 
HETATM   23  O1  UNL     1      25.610  -1.076  52.354  1.00  0.00    -0.273 OA
HETATM   24  H11 UNL     1      25.199   0.786  54.923  1.00  0.00     0.169 HD
BRANCH  22  25
HETATM   25  C14 UNL     1      27.419  -0.304  53.904  1.00  0.00     0.098 C 
HETATM   26  C15 UNL     1      28.386  -1.183  53.166  1.00  0.00     0.014 C 
ENDBRANCH  22  25
ENDBRANCH  10  21
TORSDOF 6
ENDMDL
MODEL 9
REMARK VINA RESULT:      -6.1      2.670      5.683
REMARK  6 active torsions:
REMARK  status: ('A' for Active; 'I' for Inactive)
REMARK    1  A    between atoms: C2_2  and  C3_3 
REMARK    2  A    between atoms: C4_4  and  C5_5 
REMARK    3  A    between atoms: C5_5  and  N1_6 
REMARK    4  A    between atoms: C5_5  and  C6_7 
REMARK    5  A    between atoms: C12_16  and  N5_17 
REMARK       I    between atoms: N5_17  and  C13_18 
REMARK    6  A    between atoms: C13_18  and  C14_20 
ROOT
HETATM    1  C6  UNL     1      23.955   0.894  52.840  1.00  0.00     0.083 A 
HETATM    2  N2  UNL     1      23.642  -0.400  53.153  1.00  0.00    -0.260 NA
HETATM    3  C7  UNL     1      22.364  -0.797  53.288  1.00  0.00     0.142 A 
HETATM    4  C8  UNL     1      21.271   0.028  53.131  1.00  0.00     0.091 A 
HETATM    5  C9  UNL     1      19.924  -0.406  53.277  1.00  0.00     0.103 C 
HETATM    6  N3  UNL     1      18.827  -0.743  53.387  1.00  0.00    -0.191 NA
HETATM    7  C10 UNL     1      21.552   1.341  52.815  1.00  0.00     0.091 A 
HETATM    8  N4  UNL     1      20.573   2.256  52.632  1.00  0.00    -0.256 NA
HETATM    9  C11 UNL     1      20.877   3.530  52.324  1.00  0.00     0.147 A 
HETATM   10  C12 UNL     1      22.182   3.959  52.180  1.00  0.00     0.053 A 
HETATM   11  C16 UNL     1      23.191   3.035  52.364  1.00  0.00     0.047 A 
HETATM   12  C17 UNL     1      22.869   1.730  52.680  1.00  0.00     0.024 A 
ENDROOT
BRANCH   1  13
HETATM   13  C5  UNL     1      25.358   1.176  52.729  1.00  0.00     0.293 C 
BRANCH  13  14
HETATM   14  C4  UNL     1      26.060  -0.158  52.650  1.00  0.00     0.014 C 
HETATM   15  C3  UNL     1      27.158  -0.308  53.374  1.00  0.00    -0.002 C 
BRANCH  15  16
HETATM   16  C2  UNL     1      27.681   0.763  54.215  1.00  0.00    -0.010 C 
HETATM   17  C1  UNL     1      28.944   1.132  54.203  1.00  0.00     0.011 C 
ENDBRANCH  15  16
ENDBRANCH  13  14
BRANCH  13  18
HETATM   18  N1  UNL     1      25.594   1.758  51.396  1.00  0.00     0.092 N 
HETATM   19  H7  UNL     1      26.492   2.289  51.380  1.00  0.00     0.314 HD
HETATM   20  H8  UNL     1      25.652   0.993  50.682  1.00  0.00     0.314 HD
ENDBRANCH  13  18
ENDBRANCH   1  13
BRANCH  10  21
HETATM   21  N5  UNL     1      22.385   5.311  51.856  1.00  0.00    -0.326 N 
HETATM   22  C13 UNL     1      22.284   5.814  50.522  1.00  0.00     0.221 C 
HETATM   23  O1  UNL     1      21.995   4.916  49.693  1.00  0.00    -0.273 OA
HETATM   24  H11 UNL     1      22.622   5.955  52.654  1.00  0.00     0.169 HD
BRANCH  22  25
HETATM   25  C14 UNL     1      22.528   7.278  50.331  1.00  0.00     0.098 C 
HETATM   26  C15 UNL     1      23.831   7.693  50.950  1.00  0.00     0.014 C 
ENDBRANCH  22  25
ENDBRANCH  10  21
TORSDOF 6
ENDMDL
