MODEL 1
REMARK VINA RESULT:      -7.5      0.000      0.000
REMARK  6 active torsions:
REMARK  status: ('A' for Active; 'I' for Inactive)
REMARK    1  A    between atoms: C5_7  and  C6_8 
REMARK    2  A    between atoms: C7_9  and  N1_10 
REMARK    3  A    between atoms: C8_11  and  N2_12 
REMARK    4  A    between atoms: N2_12  and  C9_13 
REMARK    5  A    between atoms: C11_15  and  N3_16 
REMARK    6  A    between atoms: N3_16  and  C12_17 
ROOT
HETATM    1  N2  UNL     1      27.309   5.617  49.043  1.00  0.00    -0.352 N 
HETATM    2  H9  UNL     1      26.961   6.596  49.149  1.00  0.00     0.166 HD
ENDROOT
BRANCH   1   3
HETATM    3  C8  UNL     1      28.464   5.248  48.290  1.00  0.00     0.218 C 
HETATM    4  N1  UNL     1      29.665   5.511  48.690  1.00  0.00    -0.193 NA
BRANCH   4   5
HETATM    5  C7  UNL     1      30.750   5.104  47.873  1.00  0.00     0.036 C 
HETATM    6  C6  UNL     1      31.677   4.740  47.189  1.00  0.00    -0.069 C 
BRANCH   6   7
HETATM    7  C5  UNL     1      32.790   4.289  46.339  1.00  0.00     0.140 C 
HETATM    8  C1  UNL     1      33.876   5.302  46.281  1.00  0.00     0.166 C 
HETATM    9  O1  UNL     1      34.182   5.942  45.278  1.00  0.00    -0.294 OA
HETATM   10  C2  UNL     1      34.624   5.529  47.544  1.00  0.00     0.247 C 
HETATM   11  O2  UNL     1      35.040   4.314  48.095  1.00  0.00    -0.384 OA
HETATM   12  C3  UNL     1      34.886   3.326  47.142  1.00  0.00     0.169 C 
HETATM   13  C4  UNL     1      33.387   3.071  47.018  1.00  0.00     0.051 C 
ENDBRANCH   6   7
ENDBRANCH   4   5
ENDBRANCH   1   3
BRANCH   1  14
HETATM   14  C9  UNL     1      26.594   4.554  49.691  1.00  0.00     0.035 A 
HETATM   15  C10 UNL     1      25.319   4.316  50.140  1.00  0.00     0.032 A 
HETATM   16  C11 UNL     1      26.392   3.296  50.284  1.00  0.00     0.156 A 
BRANCH  16  17
HETATM   17  N3  UNL     1      26.650   3.004  51.692  1.00  0.00    -0.377 N 
HETATM   18  H12 UNL     1      26.441   3.809  52.314  1.00  0.00     0.160 HD
BRANCH  17  19
HETATM   19  C12 UNL     1      27.133   1.789  52.259  1.00  0.00     0.028 A 
HETATM   20  C13 UNL     1      28.206   1.815  53.156  1.00  0.00     0.029 A 
HETATM   21  C14 UNL     1      28.595   0.584  53.646  1.00  0.00     0.002 A 
HETATM   22  C15 UNL     1      28.038  -0.619  53.339  1.00  0.00     0.000 A 
HETATM   23  C16 UNL     1      26.982  -0.620  52.454  1.00  0.00     0.002 A 
HETATM   24  C17 UNL     1      26.552   0.584  51.933  1.00  0.00     0.029 A 
ENDBRANCH  17  19
ENDBRANCH  16  17
ENDBRANCH   1  14
TORSDOF 6
ENDMDL
MODEL 2
REMARK VINA RESULT:      -7.4      5.050      8.150
REMARK  6 active torsions:
REMARK  status: ('A' for Active; 'I' for Inactive)
REMARK    1  A    between atoms: C5_7  and  C6_8 
REMARK    2  A    between atoms: C7_9  and  N1_10 
REMARK    3  A    between atoms: C8_11  and  N2_12 
REMARK    4  A    between atoms: N2_12  and  C9_13 
REMARK    5  A    between atoms: C11_15  and  N3_16 
REMARK    6  A    between atoms: N3_16  and  C12_17 
ROOT
HETATM    1  N2  UNL     1      22.653   5.398  52.472  1.00  0.00    -0.352 N 
HETATM    2  H9  UNL     1      21.879   5.507  53.167  1.00  0.00     0.166 HD
ENDROOT
BRANCH   1   3
HETATM    3  C8  UNL     1      23.747   4.494  52.617  1.00  0.00     0.218 C 
HETATM    4  N1  UNL     1      23.831   3.394  51.942  1.00  0.00    -0.193 NA
BRANCH   4   5
HETATM    5  C7  UNL     1      24.957   2.559  52.154  1.00  0.00     0.036 C 
HETATM    6  C6  UNL     1      25.926   1.863  52.346  1.00  0.00    -0.069 C 
BRANCH   6   7
HETATM    7  C5  UNL     1      27.095   1.005  52.597  1.00  0.00     0.140 C 
HETATM    8  C1  UNL     1      27.312   0.792  54.052  1.00  0.00     0.166 C 
HETATM    9  O1  UNL     1      28.269   1.228  54.687  1.00  0.00    -0.294 OA
HETATM   10  C2  UNL     1      26.278  -0.010  54.754  1.00  0.00     0.247 C 
HETATM   11  O2  UNL     1      26.020  -1.197  54.062  1.00  0.00    -0.384 OA
HETATM   12  C3  UNL     1      27.015  -1.379  53.122  1.00  0.00     0.169 C 
HETATM   13  C4  UNL     1      26.763  -0.356  52.017  1.00  0.00     0.051 C 
ENDBRANCH   6   7
ENDBRANCH   4   5
ENDBRANCH   1   3
BRANCH   1  14
HETATM   14  C9  UNL     1      22.633   6.203  51.283  1.00  0.00     0.035 A 
HETATM   15  C10 UNL     1      21.719   6.590  50.337  1.00  0.00     0.032 A 
HETATM   16  C11 UNL     1      23.137   7.035  50.270  1.00  0.00     0.156 A 
BRANCH  16  17
HETATM   17  N3  UNL     1      23.781   6.545  49.053  1.00  0.00    -0.377 N 
HETATM   18  H12 UNL     1      23.149   6.558  48.230  1.00  0.00     0.160 HD
BRANCH  17  19
HETATM   19  C12 UNL     1      25.118   6.078  48.900  1.00  0.00     0.028 A 
HETATM   20  C13 UNL     1      26.102   6.933  48.392  1.00  0.00     0.029 A 
HETATM   21  C14 UNL     1      27.363   6.381  48.283  1.00  0.00     0.002 A 
HETATM   22  C15 UNL     1      27.721   5.112  48.619  1.00  0.00     0.000 A 
HETATM   23  C16 UNL     1      26.735   4.288  49.118  1.00  0.00     0.002 A 
HETATM   24  C17 UNL     1      25.455   4.789  49.248  1.00  0.00     0.029 A 
ENDBRANCH  17  19
ENDBRANCH  16  17
ENDBRANCH   1  14
TORSDOF 6
ENDMDL
MODEL 3
REMARK VINA RESULT:      -7.4      6.431      8.160
REMARK  6 active torsions:
REMARK  status: ('A' for Active; 'I' for Inactive)
REMARK    1  A    between atoms: C5_7  and  C6_8 
REMARK    2  A    between atoms: C7_9  and  N1_10 
REMARK    3  A    between atoms: C8_11  and  N2_12 
REMARK    4  A    between atoms: N2_12  and  C9_13 
REMARK    5  A    between atoms: C11_15  and  N3_16 
REMARK    6  A    between atoms: N3_16  and  C12_17 
ROOT
HETATM    1  N2  UNL     1      21.650   4.344  51.582  1.00  0.00    -0.352 N 
HETATM    2  H9  UNL     1      21.522   5.371  51.437  1.00  0.00     0.166 HD
ENDROOT
BRANCH   1   3
HETATM    3  C8  UNL     1      22.896   3.721  51.890  1.00  0.00     0.218 C 
HETATM    4  N1  UNL     1      23.495   2.925  51.065  1.00  0.00    -0.193 NA
BRANCH   4   5
HETATM    5  C7  UNL     1      24.731   2.354  51.461  1.00  0.00     0.036 C 
HETATM    6  C6  UNL     1      25.786   1.881  51.814  1.00  0.00    -0.069 C 
BRANCH   6   7
HETATM    7  C5  UNL     1      27.059   1.288  52.254  1.00  0.00     0.140 C 
HETATM    8  C1  UNL     1      27.245   1.424  53.722  1.00  0.00     0.166 C 
HETATM    9  O1  UNL     1      28.097   2.128  54.257  1.00  0.00    -0.294 OA
HETATM   10  C2  UNL     1      26.314   0.638  54.572  1.00  0.00     0.247 C 
HETATM   11  O2  UNL     1      26.267  -0.694  54.150  1.00  0.00    -0.384 OA
HETATM   12  C3  UNL     1      27.316  -0.914  53.280  1.00  0.00     0.169 C 
HETATM   13  C4  UNL     1      26.960  -0.200  51.978  1.00  0.00     0.051 C 
ENDBRANCH   6   7
ENDBRANCH   4   5
ENDBRANCH   1   3
BRANCH   1  14
HETATM   14  C9  UNL     1      20.507   3.482  51.469  1.00  0.00     0.035 A 
HETATM   15  C10 UNL     1      19.162   3.543  51.729  1.00  0.00     0.032 A 
HETATM   16  C11 UNL     1      19.786   2.314  51.170  1.00  0.00     0.156 A 
BRANCH  16  17
HETATM   17  N3  UNL     1      19.636   1.188  52.088  1.00  0.00    -0.377 N 
HETATM   18  H12 UNL     1      18.647   0.890  52.202  1.00  0.00     0.160 HD
BRANCH  17  19
HETATM   19  C12 UNL     1      20.659   0.499  52.802  1.00  0.00     0.028 A 
HETATM   20  C13 UNL     1      21.797   0.046  52.126  1.00  0.00     0.029 A 
HETATM   21  C14 UNL     1      22.726  -0.610  52.909  1.00  0.00     0.002 A 
HETATM   22  C15 UNL     1      22.632  -0.845  54.246  1.00  0.00     0.000 A 
HETATM   23  C16 UNL     1      21.502  -0.390  54.891  1.00  0.00     0.002 A 
HETATM   24  C17 UNL     1      20.540   0.273  54.155  1.00  0.00     0.029 A 
ENDBRANCH  17  19
ENDBRANCH  16  17
ENDBRANCH   1  14
TORSDOF 6
ENDMDL
MODEL 4
REMARK VINA RESULT:      -7.4      6.930      9.139
REMARK  6 active torsions:
REMARK  status: ('A' for Active; 'I' for Inactive)
REMARK    1  A    between atoms: C5_7  and  C6_8 
REMARK    2  A    between atoms: C7_9  and  N1_10 
REMARK    3  A    between atoms: C8_11  and  N2_12 
REMARK    4  A    between atoms: N2_12  and  C9_13 
REMARK    5  A    between atoms: C11_15  and  N3_16 
REMARK    6  A    between atoms: N3_16  and  C12_17 
ROOT
HETATM    1  N2  UNL     1      20.842  -1.285  54.276  1.00  0.00    -0.352 N 
HETATM    2  H9  UNL     1      20.552  -1.814  55.130  1.00  0.00     0.166 HD
ENDROOT
BRANCH   1   3
HETATM    3  C8  UNL     1      22.188  -1.168  53.817  1.00  0.00     0.218 C 
HETATM    4  N1  UNL     1      22.788  -0.026  53.714  1.00  0.00    -0.193 NA
BRANCH   4   5
HETATM    5  C7  UNL     1      24.127  -0.011  53.250  1.00  0.00     0.036 C 
HETATM    6  C6  UNL     1      25.265  -0.015  52.843  1.00  0.00    -0.069 C 
BRANCH   6   7
HETATM    7  C5  UNL     1      26.645  -0.005  52.332  1.00  0.00     0.140 C 
HETATM    8  C1  UNL     1      27.473   1.021  53.019  1.00  0.00     0.166 C 
HETATM    9  O1  UNL     1      27.921   2.030  52.482  1.00  0.00    -0.294 OA
HETATM   10  C2  UNL     1      27.757   0.774  54.455  1.00  0.00     0.247 C 
HETATM   11  O2  UNL     1      28.232  -0.527  54.647  1.00  0.00    -0.384 OA
HETATM   12  C3  UNL     1      28.565  -1.057  53.416  1.00  0.00     0.169 C 
HETATM   13  C4  UNL     1      27.250  -1.347  52.697  1.00  0.00     0.051 C 
ENDBRANCH   6   7
ENDBRANCH   4   5
ENDBRANCH   1   3
BRANCH   1  14
HETATM   14  C9  UNL     1      19.833  -0.625  53.496  1.00  0.00     0.035 A 
HETATM   15  C10 UNL     1      18.580  -0.905  53.014  1.00  0.00     0.032 A 
HETATM   16  C11 UNL     1      19.236   0.404  52.749  1.00  0.00     0.156 A 
BRANCH  16  17
HETATM   17  N3  UNL     1      19.445   0.604  51.317  1.00  0.00    -0.377 N 
HETATM   18  H12 UNL     1      18.654   0.254  50.742  1.00  0.00     0.160 HD
BRANCH  17  19
HETATM   19  C12 UNL     1      20.567   1.199  50.672  1.00  0.00     0.028 A 
HETATM   20  C13 UNL     1      20.813   0.940  49.319  1.00  0.00     0.029 A 
HETATM   21  C14 UNL     1      21.926   1.565  48.793  1.00  0.00     0.002 A 
HETATM   22  C15 UNL     1      22.780   2.390  49.459  1.00  0.00     0.000 A 
HETATM   23  C16 UNL     1      22.518   2.630  50.790  1.00  0.00     0.002 A 
HETATM   24  C17 UNL     1      21.416   2.030  51.368  1.00  0.00     0.029 A 
ENDBRANCH  17  19
ENDBRANCH  16  17
ENDBRANCH   1  14
TORSDOF 6
ENDMDL
MODEL 5
REMARK VINA RESULT:      -7.4      5.349      7.728
REMARK  6 active torsions:
REMARK  status: ('A' for Active; 'I' for Inactive)
REMARK    1  A    between atoms: C5_7  and  C6_8 
REMARK    2  A    between atoms: C7_9  and  N1_10 
REMARK    3  A    between atoms: C8_11  and  N2_12 
REMARK    4  A    between atoms: N2_12  and  C9_13 
REMARK    5  A    between atoms: C11_15  and  N3_16 
REMARK    6  A    between atoms: N3_16  and  C12_17 
ROOT
HETATM    1  N2  UNL     1      27.120   4.593  48.796  1.00  0.00    -0.352 N 
HETATM    2  H9  UNL     1      27.956   4.868  48.233  1.00  0.00     0.166 HD
ENDROOT
BRANCH   1   3
HETATM    3  C8  UNL     1      26.980   3.346  49.477  1.00  0.00     0.218 C 
HETATM    4  N1  UNL     1      26.776   3.274  50.753  1.00  0.00    -0.193 NA
BRANCH   4   5
HETATM    5  C7  UNL     1      26.650   1.989  51.340  1.00  0.00     0.036 C 
HETATM    6  C6  UNL     1      26.527   0.902  51.854  1.00  0.00    -0.069 C 
BRANCH   6   7
HETATM    7  C5  UNL     1      26.365  -0.428  52.461  1.00  0.00     0.140 C 
HETATM    8  C1  UNL     1      27.473  -0.736  53.403  1.00  0.00     0.166 C 
HETATM    9  O1  UNL     1      28.326  -1.601  53.221  1.00  0.00    -0.294 OA
HETATM   10  C2  UNL     1      27.521   0.082  54.642  1.00  0.00     0.247 C 
HETATM   11  O2  UNL     1      26.268   0.109  55.262  1.00  0.00    -0.384 OA
HETATM   12  C3  UNL     1      25.477  -0.869  54.693  1.00  0.00     0.169 C 
HETATM   13  C4  UNL     1      25.104  -0.370  53.299  1.00  0.00     0.051 C 
ENDBRANCH   6   7
ENDBRANCH   4   5
ENDBRANCH   1   3
BRANCH   1  14
HETATM   14  C9  UNL     1      26.026   5.515  48.906  1.00  0.00     0.035 A 
HETATM   15  C10 UNL     1      25.794   6.752  49.452  1.00  0.00     0.032 A 
HETATM   16  C11 UNL     1      24.722   6.011  48.735  1.00  0.00     0.156 A 
BRANCH  16  17
HETATM   17  N3  UNL     1      23.608   5.708  49.630  1.00  0.00    -0.377 N 
HETATM   18  H12 UNL     1      22.925   6.487  49.700  1.00  0.00     0.160 HD
BRANCH  17  19
HETATM   19  C12 UNL     1      23.383   4.512  50.372  1.00  0.00     0.028 A 
HETATM   20  C13 UNL     1      23.107   3.316  49.702  1.00  0.00     0.029 A 
HETATM   21  C14 UNL     1      22.904   2.218  50.515  1.00  0.00     0.002 A 
HETATM   22  C15 UNL     1      22.950   2.201  51.875  1.00  0.00     0.000 A 
HETATM   23  C16 UNL     1      23.223   3.391  52.514  1.00  0.00     0.002 A 
HETATM   24  C17 UNL     1      23.434   4.522  51.748  1.00  0.00     0.029 A 
ENDBRANCH  17  19
ENDBRANCH  16  17
ENDBRANCH   1  14
TORSDOF 6
ENDMDL
MODEL 6
REMARK VINA RESULT:      -7.2      5.137      7.146
REMARK  6 active torsions:
REMARK  status: ('A' for Active; 'I' for Inactive)
REMARK    1  A    between atoms: C5_7  and  C6_8 
REMARK    2  A    between atoms: C7_9  and  N1_10 
REMARK    3  A    between atoms: C8_11  and  N2_12 
REMARK    4  A    between atoms: N2_12  and  C9_13 
REMARK    5  A    between atoms: C11_15  and  N3_16 
REMARK    6  A    between atoms: N3_16  and  C12_17 
ROOT
HETATM    1  N2  UNL     1      27.944   1.308  53.360  1.00  0.00    -0.352 N 
HETATM    2  H9  UNL     1      28.791   1.371  53.970  1.00  0.00     0.166 HD
ENDROOT
BRANCH   1   3
HETATM    3  C8  UNL     1      27.556   2.301  52.412  1.00  0.00     0.218 C 
HETATM    4  N1  UNL     1      26.762   2.043  51.424  1.00  0.00    -0.193 NA
BRANCH   4   5
HETATM    5  C7  UNL     1      26.433   3.096  50.534  1.00  0.00     0.036 C 
HETATM    6  C6  UNL     1      26.136   3.983  49.768  1.00  0.00    -0.069 C 
BRANCH   6   7
HETATM    7  C5  UNL     1      25.766   5.074  48.853  1.00  0.00     0.140 C 
HETATM    8  C1  UNL     1      24.621   5.863  49.381  1.00  0.00     0.166 C 
HETATM    9  O1  UNL     1      23.500   5.889  48.880  1.00  0.00    -0.294 OA
HETATM   10  C2  UNL     1      24.890   6.663  50.603  1.00  0.00     0.247 C 
HETATM   11  O2  UNL     1      26.052   7.425  50.446  1.00  0.00    -0.384 OA
HETATM   12  C3  UNL     1      26.403   7.418  49.111  1.00  0.00     0.169 C 
HETATM   13  C4  UNL     1      26.947   6.024  48.812  1.00  0.00     0.051 C 
ENDBRANCH   6   7
ENDBRANCH   4   5
ENDBRANCH   1   3
BRANCH   1  14
HETATM   14  C9  UNL     1      27.100   0.152  53.467  1.00  0.00     0.035 A 
HETATM   15  C10 UNL     1      27.126  -1.162  53.072  1.00  0.00     0.032 A 
HETATM   16  C11 UNL     1      25.976  -0.606  53.835  1.00  0.00     0.156 A 
BRANCH  16  17
HETATM   17  N3  UNL     1      24.745  -0.678  53.050  1.00  0.00    -0.377 N 
HETATM   18  H12 UNL     1      24.908  -0.999  52.076  1.00  0.00     0.160 HD
BRANCH  17  19
HETATM   19  C12 UNL     1      23.420  -0.369  53.472  1.00  0.00     0.028 A 
HETATM   20  C13 UNL     1      22.865  -1.029  54.573  1.00  0.00     0.029 A 
HETATM   21  C14 UNL     1      21.576  -0.656  54.896  1.00  0.00     0.002 A 
HETATM   22  C15 UNL     1      20.820   0.276  54.254  1.00  0.00     0.000 A 
HETATM   23  C16 UNL     1      21.387   0.914  53.172  1.00  0.00     0.002 A 
HETATM   24  C17 UNL     1      22.675   0.578  52.804  1.00  0.00     0.029 A 
ENDBRANCH  17  19
ENDBRANCH  16  17
ENDBRANCH   1  14
TORSDOF 6
ENDMDL
MODEL 7
REMARK VINA RESULT:      -7.2      6.277      8.197
REMARK  6 active torsions:
REMARK  status: ('A' for Active; 'I' for Inactive)
REMARK    1  A    between atoms: C5_7  and  C6_8 
REMARK    2  A    between atoms: C7_9  and  N1_10 
REMARK    3  A    between atoms: C8_11  and  N2_12 
REMARK    4  A    between atoms: N2_12  and  C9_13 
REMARK    5  A    between atoms: C11_15  and  N3_16 
REMARK    6  A    between atoms: N3_16  and  C12_17 
ROOT
HETATM    1  N2  UNL     1      27.920   1.855  52.816  1.00  0.00    -0.352 N 
HETATM    2  H9  UNL     1      28.904   2.176  52.667  1.00  0.00     0.166 HD
ENDROOT
BRANCH   1   3
HETATM    3  C8  UNL     1      26.810   2.256  52.014  1.00  0.00     0.218 C 
HETATM    4  N1  UNL     1      26.955   2.917  50.911  1.00  0.00    -0.193 NA
BRANCH   4   5
HETATM    5  C7  UNL     1      25.791   3.270  50.183  1.00  0.00     0.036 C 
HETATM    6  C6  UNL     1      24.789   3.575  49.580  1.00  0.00    -0.069 C 
BRANCH   6   7
HETATM    7  C5  UNL     1      23.578   3.967  48.842  1.00  0.00     0.140 C 
HETATM    8  C1  UNL     1      22.362   3.851  49.689  1.00  0.00     0.166 C 
HETATM    9  O1  UNL     1      21.461   3.036  49.511  1.00  0.00    -0.294 OA
HETATM   10  C2  UNL     1      22.264   4.806  50.822  1.00  0.00     0.247 C 
HETATM   11  O2  UNL     1      22.504   6.113  50.387  1.00  0.00    -0.384 OA
HETATM   12  C3  UNL     1      22.455   6.130  49.007  1.00  0.00     0.169 C 
HETATM   13  C4  UNL     1      23.727   5.441  48.519  1.00  0.00     0.051 C 
ENDBRANCH   6   7
ENDBRANCH   4   5
ENDBRANCH   1   3
BRANCH   1  14
HETATM   14  C9  UNL     1      27.645   0.949  53.895  1.00  0.00     0.035 A 
HETATM   15  C10 UNL     1      28.300  -0.046  54.575  1.00  0.00     0.032 A 
HETATM   16  C11 UNL     1      26.902   0.334  54.917  1.00  0.00     0.156 A 
BRANCH  16  17
HETATM   17  N3  UNL     1      25.990  -0.788  54.704  1.00  0.00    -0.377 N 
HETATM   18  H12 UNL     1      26.463  -1.710  54.773  1.00  0.00     0.160 HD
BRANCH  17  19
HETATM   19  C12 UNL     1      24.593  -0.738  54.428  1.00  0.00     0.028 A 
HETATM   20  C13 UNL     1      23.681  -1.267  55.347  1.00  0.00     0.029 A 
HETATM   21  C14 UNL     1      22.353  -1.168  54.982  1.00  0.00     0.002 A 
HETATM   22  C15 UNL     1      21.869  -0.615  53.836  1.00  0.00     0.000 A 
HETATM   23  C16 UNL     1      22.787  -0.100  52.946  1.00  0.00     0.002 A 
HETATM   24  C17 UNL     1      24.129  -0.172  53.261  1.00  0.00     0.029 A 
ENDBRANCH  17  19
ENDBRANCH  16  17
ENDBRANCH   1  14
TORSDOF 6
ENDMDL
MODEL 8
REMARK VINA RESULT:      -7.1      7.202     10.631
REMARK  6 active torsions:
REMARK  status: ('A' for Active; 'I' for Inactive)
REMARK    1  A    between atoms: C5_7  and  C6_8 
REMARK    2  A    between atoms: C7_9  and  N1_10 
REMARK    3  A    between atoms: C8_11  and  N2_12 
REMARK    4  A    between atoms: N2_12  and  C9_13 
REMARK    5  A    between atoms: C11_15  and  N3_16 
REMARK    6  A    between atoms: N3_16  and  C12_17 
ROOT
HETATM    1  N2  UNL     1      26.139  -1.162  54.329  1.00  0.00    -0.352 N 
HETATM    2  H9  UNL     1      26.428  -2.119  54.634  1.00  0.00     0.166 HD
ENDROOT
BRANCH   1   3
HETATM    3  C8  UNL     1      24.788  -0.703  54.284  1.00  0.00     0.218 C 
HETATM    4  N1  UNL     1      24.182  -0.444  53.170  1.00  0.00    -0.193 NA
BRANCH   4   5
HETATM    5  C7  UNL     1      22.839   0.006  53.226  1.00  0.00     0.036 C 
HETATM    6  C6  UNL     1      21.700   0.409  53.266  1.00  0.00    -0.069 C 
BRANCH   6   7
HETATM    7  C5  UNL     1      20.309   0.888  53.295  1.00  0.00     0.140 C 
HETATM    8  C1  UNL     1      20.103   2.019  52.353  1.00  0.00     0.166 C 
HETATM    9  O1  UNL     1      19.858   3.175  52.691  1.00  0.00    -0.294 OA
HETATM   10  C2  UNL     1      20.207   1.692  50.909  1.00  0.00     0.247 C 
HETATM   11  O2  UNL     1      19.425   0.575  50.599  1.00  0.00    -0.384 OA
HETATM   12  C3  UNL     1      18.582   0.323  51.663  1.00  0.00     0.169 C 
HETATM   13  C4  UNL     1      19.449  -0.250  52.780  1.00  0.00     0.051 C 
ENDBRANCH   6   7
ENDBRANCH   4   5
ENDBRANCH   1   3
BRANCH   1  14
HETATM   14  C9  UNL     1      27.152  -0.229  53.926  1.00  0.00     0.035 A 
HETATM   15  C10 UNL     1      28.168   0.481  54.514  1.00  0.00     0.032 A 
HETATM   16  C11 UNL     1      27.895   0.587  53.055  1.00  0.00     0.156 A 
BRANCH  16  17
HETATM   17  N3  UNL     1      27.518   1.951  52.692  1.00  0.00    -0.377 N 
HETATM   18  H12 UNL     1      28.311   2.619  52.760  1.00  0.00     0.160 HD
BRANCH  17  19
HETATM   19  C12 UNL     1      26.240   2.424  52.276  1.00  0.00     0.028 A 
HETATM   20  C13 UNL     1      25.917   2.456  50.915  1.00  0.00     0.029 A 
HETATM   21  C14 UNL     1      24.655   2.932  50.621  1.00  0.00     0.002 A 
HETATM   22  C15 UNL     1      23.724   3.360  51.516  1.00  0.00     0.000 A 
HETATM   23  C16 UNL     1      24.065   3.320  52.851  1.00  0.00     0.002 A 
HETATM   24  C17 UNL     1      25.316   2.852  53.202  1.00  0.00     0.029 A 
ENDBRANCH  17  19
ENDBRANCH  16  17
ENDBRANCH   1  14
TORSDOF 6
ENDMDL
MODEL 9
REMARK VINA RESULT:      -7.1      1.861      2.546
REMARK  6 active torsions:
REMARK  status: ('A' for Active; 'I' for Inactive)
REMARK    1  A    between atoms: C5_7  and  C6_8 
REMARK    2  A    between atoms: C7_9  and  N1_10 
REMARK    3  A    between atoms: C8_11  and  N2_12 
REMARK    4  A    between atoms: N2_12  and  C9_13 
REMARK    5  A    between atoms: C11_15  and  N3_16 
REMARK    6  A    between atoms: N3_16  and  C12_17 
ROOT
HETATM    1  N2  UNL     1      25.232   4.807  49.325  1.00  0.00    -0.352 N 
HETATM    2  H9  UNL     1      24.288   5.093  48.979  1.00  0.00     0.166 HD
ENDROOT
BRANCH   1   3
HETATM    3  C8  UNL     1      26.445   5.492  49.017  1.00  0.00     0.218 C 
HETATM    4  N1  UNL     1      27.503   4.874  48.602  1.00  0.00    -0.193 NA
BRANCH   4   5
HETATM    5  C7  UNL     1      28.662   5.640  48.320  1.00  0.00     0.036 C 
HETATM    6  C6  UNL     1      29.638   6.308  48.071  1.00  0.00    -0.069 C 
BRANCH   6   7
HETATM    7  C5  UNL     1      30.827   7.129  47.791  1.00  0.00     0.140 C 
HETATM    8  C1  UNL     1      31.675   7.291  49.001  1.00  0.00     0.166 C 
HETATM    9  O1  UNL     1      31.845   8.350  49.599  1.00  0.00    -0.294 OA
HETATM   10  C2  UNL     1      32.349   6.062  49.492  1.00  0.00     0.247 C 
HETATM   11  O2  UNL     1      33.010   5.411  48.446  1.00  0.00    -0.384 OA
HETATM   12  C3  UNL     1      33.073   6.270  47.367  1.00  0.00     0.169 C 
HETATM   13  C4  UNL     1      31.662   6.352  46.792  1.00  0.00     0.051 C 
ENDBRANCH   6   7
ENDBRANCH   4   5
ENDBRANCH   1   3
BRANCH   1  14
HETATM   14  C9  UNL     1      25.338   3.652  50.171  1.00  0.00     0.035 A 
HETATM   15  C10 UNL     1      24.502   2.862  50.918  1.00  0.00     0.032 A 
HETATM   16  C11 UNL     1      25.964   2.593  50.850  1.00  0.00     0.156 A 
BRANCH  16  17
HETATM   17  N3  UNL     1      26.579   2.717  52.170  1.00  0.00    -0.377 N 
HETATM   18  H12 UNL     1      26.303   3.589  52.662  1.00  0.00     0.160 HD
BRANCH  17  19
HETATM   19  C12 UNL     1      27.468   1.806  52.809  1.00  0.00     0.028 A 
HETATM   20  C13 UNL     1      28.530   2.292  53.579  1.00  0.00     0.029 A 
HETATM   21  C14 UNL     1      29.332   1.325  54.153  1.00  0.00     0.002 A 
HETATM   22  C15 UNL     1      29.181  -0.022  54.038  1.00  0.00     0.000 A 
HETATM   23  C16 UNL     1      28.128  -0.478  53.274  1.00  0.00     0.002 A 
HETATM   24  C17 UNL     1      27.294   0.447  52.677  1.00  0.00     0.029 A 
ENDBRANCH  17  19
ENDBRANCH  16  17
ENDBRANCH   1  14
TORSDOF 6
ENDMDL
