MODEL 1
REMARK VINA RESULT:      -7.2      0.000      0.000
REMARK  4 active torsions:
REMARK  status: ('A' for Active; 'I' for Inactive)
REMARK    1  A    between atoms: C5_6  and  N2_7 
REMARK    2  A    between atoms: C9_11  and  O1_12 
REMARK    3  A    between atoms: O1_12  and  C10_13 
REMARK    4  A    between atoms: C10_13  and  N3_14 
ROOT
HETATM    1  N2  UNL     1      25.795   2.592  52.273  1.00  0.00    -0.346 N 
HETATM    2  C6  UNL     1      26.717   2.647  51.227  1.00  0.00     0.090 A 
HETATM    3  C7  UNL     1      26.500   2.920  49.969  1.00  0.00     0.019 A 
HETATM    4  C8  UNL     1      25.157   3.220  49.513  1.00  0.00     0.035 A 
HETATM    5  C9  UNL     1      24.251   3.187  50.465  1.00  0.00     0.066 A 
HETATM    6  C14 UNL     1      24.400   2.897  51.909  1.00  0.00     0.190 A 
ENDROOT
BRANCH   1   7
HETATM    7  C5  UNL     1      25.907   2.274  53.652  1.00  0.00     0.308 C 
HETATM    8  N1  UNL     1      25.801   0.893  53.985  1.00  0.00    -0.261 NA
HETATM    9  C4  UNL     1      26.061  -0.114  53.311  1.00  0.00     0.091 C 
HETATM   10  C3  UNL     1      26.229  -1.523  52.914  1.00  0.00     0.073 C 
HETATM   11  C2  UNL     1      27.733  -1.710  52.789  1.00  0.00    -0.025 C 
HETATM   12  C1  UNL     1      28.590  -0.659  53.055  1.00  0.00    -0.023 C 
HETATM   13  C16 UNL     1      29.117   0.711  53.430  1.00  0.00     0.091 C 
HETATM   14  C15 UNL     1      28.425   1.851  53.805  1.00  0.00     0.069 C 
HETATM   15  N5  UNL     1      27.257   2.717  54.126  1.00  0.00    -0.383 N 
HETATM   16  H17 UNL     1      27.579   3.542  54.666  1.00  0.00     0.157 HD
ENDBRANCH   1   7
BRANCH   5  17
HETATM   17  O1  UNL     1      22.938   3.463  50.093  1.00  0.00    -0.334 OA
BRANCH  17  18
HETATM   18  C10 UNL     1      22.281   4.517  50.768  1.00  0.00     0.306 C 
BRANCH  18  19
HETATM   19  N3  UNL     1      20.921   4.158  51.119  1.00  0.00    -0.328 N 
HETATM   20  C11 UNL     1      19.769   4.475  50.496  1.00  0.00     0.113 A 
HETATM   21  C12 UNL     1      18.677   3.929  51.160  1.00  0.00     0.135 A 
HETATM   22  N4  UNL     1      19.206   3.267  52.209  1.00  0.00    -0.255 NA
HETATM   23  C13 UNL     1      20.546   3.402  52.188  1.00  0.00     0.210 A 
ENDBRANCH  18  19
ENDBRANCH  17  18
ENDBRANCH   5  17
TORSDOF 4
ENDMDL
MODEL 2
REMARK VINA RESULT:      -7.1      2.499      7.119
REMARK  4 active torsions:
REMARK  status: ('A' for Active; 'I' for Inactive)
REMARK    1  A    between atoms: C5_6  and  N2_7 
REMARK    2  A    between atoms: C9_11  and  O1_12 
REMARK    3  A    between atoms: O1_12  and  C10_13 
REMARK    4  A    between atoms: C10_13  and  N3_14 
ROOT
HETATM    1  N2  UNL     1      24.207   3.115  51.846  1.00  0.00    -0.346 N 
HETATM    2  C6  UNL     1      25.145   3.100  50.813  1.00  0.00     0.090 A 
HETATM    3  C7  UNL     1      26.394   2.723  50.858  1.00  0.00     0.019 A 
HETATM    4  C8  UNL     1      26.962   2.241  52.102  1.00  0.00     0.035 A 
HETATM    5  C9  UNL     1      26.114   2.231  53.106  1.00  0.00     0.066 A 
HETATM    6  C14 UNL     1      24.688   2.628  53.151  1.00  0.00     0.190 A 
ENDROOT
BRANCH   1   7
HETATM    7  C5  UNL     1      22.852   3.532  51.923  1.00  0.00     0.308 C 
HETATM    8  N1  UNL     1      22.264   3.972  50.703  1.00  0.00    -0.261 NA
HETATM    9  C4  UNL     1      22.533   3.669  49.531  1.00  0.00     0.091 C 
HETATM   10  C3  UNL     1      22.492   3.612  48.060  1.00  0.00     0.073 C 
HETATM   11  C2  UNL     1      22.000   2.208  47.744  1.00  0.00    -0.025 C 
HETATM   12  C1  UNL     1      21.694   1.330  48.766  1.00  0.00    -0.023 C 
HETATM   13  C16 UNL     1      21.487   0.742  50.147  1.00  0.00     0.091 C 
HETATM   14  C15 UNL     1      21.679   1.321  51.390  1.00  0.00     0.069 C 
HETATM   15  N5  UNL     1      22.030   2.369  52.389  1.00  0.00    -0.383 N 
HETATM   16  H17 UNL     1      21.622   2.117  53.309  1.00  0.00     0.157 HD
ENDBRANCH   1   7
BRANCH   5  17
HETATM   17  O1  UNL     1      26.597   1.781  54.332  1.00  0.00    -0.334 OA
BRANCH  17  18
HETATM   18  C10 UNL     1      26.556   0.389  54.574  1.00  0.00     0.306 C 
BRANCH  18  19
HETATM   19  N3  UNL     1      27.771  -0.264  54.130  1.00  0.00    -0.328 N 
HETATM   20  C11 UNL     1      29.049  -0.011  54.475  1.00  0.00     0.113 A 
HETATM   21  C12 UNL     1      29.921  -0.871  53.818  1.00  0.00     0.135 A 
HETATM   22  N4  UNL     1      29.128  -1.657  53.062  1.00  0.00    -0.255 NA
HETATM   23  C13 UNL     1      27.844  -1.297  53.246  1.00  0.00     0.210 A 
ENDBRANCH  18  19
ENDBRANCH  17  18
ENDBRANCH   5  17
TORSDOF 4
ENDMDL
MODEL 3
REMARK VINA RESULT:      -7.0      2.602      7.469
REMARK  4 active torsions:
REMARK  status: ('A' for Active; 'I' for Inactive)
REMARK    1  A    between atoms: C5_6  and  N2_7 
REMARK    2  A    between atoms: C9_11  and  O1_12 
REMARK    3  A    between atoms: O1_12  and  C10_13 
REMARK    4  A    between atoms: C10_13  and  N3_14 
ROOT
HETATM    1  N2  UNL     1      22.744   1.855  52.528  1.00  0.00    -0.346 N 
HETATM    2  C6  UNL     1      21.556   1.169  52.784  1.00  0.00     0.090 A 
HETATM    3  C7  UNL     1      21.401  -0.004  53.335  1.00  0.00     0.019 A 
HETATM    4  C8  UNL     1      22.559  -0.760  53.772  1.00  0.00     0.035 A 
HETATM    5  C9  UNL     1      23.704  -0.150  53.559  1.00  0.00     0.066 A 
HETATM    6  C14 UNL     1      23.979   1.172  52.952  1.00  0.00     0.190 A 
ENDROOT
BRANCH   1   7
HETATM    7  C5  UNL     1      23.033   3.100  51.910  1.00  0.00     0.308 C 
HETATM    8  N1  UNL     1      23.090   3.092  50.487  1.00  0.00    -0.261 NA
HETATM    9  C4  UNL     1      22.527   2.350  49.669  1.00  0.00     0.091 C 
HETATM   10  C3  UNL     1      22.095   1.752  48.394  1.00  0.00     0.073 C 
HETATM   11  C2  UNL     1      20.616   2.091  48.292  1.00  0.00    -0.025 C 
HETATM   12  C1  UNL     1      20.001   2.830  49.285  1.00  0.00    -0.023 C 
HETATM   13  C16 UNL     1      19.766   3.628  50.551  1.00  0.00     0.091 C 
HETATM   14  C15 UNL     1      20.657   3.979  51.551  1.00  0.00     0.069 C 
HETATM   15  N5  UNL     1      21.953   4.070  52.281  1.00  0.00    -0.383 N 
HETATM   16  H17 UNL     1      21.905   4.842  52.972  1.00  0.00     0.157 HD
ENDBRANCH   1   7
BRANCH   5  17
HETATM   17  O1  UNL     1      24.857  -0.823  53.953  1.00  0.00    -0.334 OA
BRANCH  17  18
HETATM   18  C10 UNL     1      25.924  -0.879  53.028  1.00  0.00     0.306 C 
BRANCH  18  19
HETATM   19  N3  UNL     1      27.172  -0.450  53.629  1.00  0.00    -0.328 N 
HETATM   20  C11 UNL     1      28.435  -0.776  53.293  1.00  0.00     0.113 A 
HETATM   21  C12 UNL     1      29.351  -0.145  54.127  1.00  0.00     0.135 A 
HETATM   22  N4  UNL     1      28.598   0.579  54.981  1.00  0.00    -0.255 NA
HETATM   23  C13 UNL     1      27.297   0.398  54.687  1.00  0.00     0.210 A 
ENDBRANCH  18  19
ENDBRANCH  17  18
ENDBRANCH   5  17
TORSDOF 4
ENDMDL
MODEL 4
REMARK VINA RESULT:      -6.8      2.671      5.941
REMARK  4 active torsions:
REMARK  status: ('A' for Active; 'I' for Inactive)
REMARK    1  A    between atoms: C5_6  and  N2_7 
REMARK    2  A    between atoms: C9_11  and  O1_12 
REMARK    3  A    between atoms: O1_12  and  C10_13 
REMARK    4  A    between atoms: C10_13  and  N3_14 
ROOT
HETATM    1  N2  UNL     1      24.402   3.368  51.601  1.00  0.00    -0.346 N 
HETATM    2  C6  UNL     1      25.533   3.351  50.784  1.00  0.00     0.090 A 
HETATM    3  C7  UNL     1      26.663   2.726  50.978  1.00  0.00     0.019 A 
HETATM    4  C8  UNL     1      26.851   1.918  52.168  1.00  0.00     0.035 A 
HETATM    5  C9  UNL     1      25.807   1.898  52.968  1.00  0.00     0.066 A 
HETATM    6  C14 UNL     1      24.491   2.563  52.831  1.00  0.00     0.190 A 
ENDROOT
BRANCH   1   7
HETATM    7  C5  UNL     1      23.149   4.031  51.513  1.00  0.00     0.308 C 
HETATM    8  N1  UNL     1      22.556   4.076  50.219  1.00  0.00    -0.261 NA
HETATM    9  C4  UNL     1      22.680   3.305  49.256  1.00  0.00     0.091 C 
HETATM   10  C3  UNL     1      22.519   2.701  47.921  1.00  0.00     0.073 C 
HETATM   11  C2  UNL     1      21.769   1.403  48.175  1.00  0.00    -0.025 C 
HETATM   12  C1  UNL     1      21.392   1.055  49.459  1.00  0.00    -0.023 C 
HETATM   13  C16 UNL     1      21.191   1.088  50.960  1.00  0.00     0.091 C 
HETATM   14  C15 UNL     1      21.573   2.049  51.881  1.00  0.00     0.069 C 
HETATM   15  N5  UNL     1      22.175   3.311  52.395  1.00  0.00    -0.383 N 
HETATM   16  H17 UNL     1      21.800   3.510  53.341  1.00  0.00     0.157 HD
ENDBRANCH   1   7
BRANCH   5  17
HETATM   17  O1  UNL     1      25.923   1.142  54.131  1.00  0.00    -0.334 OA
BRANCH  17  18
HETATM   18  C10 UNL     1      25.804  -0.261  54.008  1.00  0.00     0.306 C 
BRANCH  18  19
HETATM   19  N3  UNL     1      24.482  -0.718  54.389  1.00  0.00    -0.328 N 
HETATM   20  C11 UNL     1      23.344  -0.727  53.668  1.00  0.00     0.113 A 
HETATM   21  C12 UNL     1      22.291  -1.251  54.407  1.00  0.00     0.135 A 
HETATM   22  N4  UNL     1      22.829  -1.563  55.604  1.00  0.00    -0.255 NA
HETATM   23  C13 UNL     1      24.138  -1.246  55.596  1.00  0.00     0.210 A 
ENDBRANCH  18  19
ENDBRANCH  17  18
ENDBRANCH   5  17
TORSDOF 4
ENDMDL
MODEL 5
REMARK VINA RESULT:      -6.8      2.245      6.546
REMARK  4 active torsions:
REMARK  status: ('A' for Active; 'I' for Inactive)
REMARK    1  A    between atoms: C5_6  and  N2_7 
REMARK    2  A    between atoms: C9_11  and  O1_12 
REMARK    3  A    between atoms: O1_12  and  C10_13 
REMARK    4  A    between atoms: C10_13  and  N3_14 
ROOT
HETATM    1  N2  UNL     1      23.977   4.422  50.709  1.00  0.00    -0.346 N 
HETATM    2  C6  UNL     1      24.424   5.140  49.598  1.00  0.00     0.090 A 
HETATM    3  C7  UNL     1      25.581   5.068  48.999  1.00  0.00     0.019 A 
HETATM    4  C8  UNL     1      26.591   4.146  49.480  1.00  0.00     0.035 A 
HETATM    5  C9  UNL     1      26.215   3.440  50.523  1.00  0.00     0.066 A 
HETATM    6  C14 UNL     1      24.932   3.446  51.263  1.00  0.00     0.190 A 
ENDROOT
BRANCH   1   7
HETATM    7  C5  UNL     1      22.772   4.441  51.459  1.00  0.00     0.308 C 
HETATM    8  N1  UNL     1      21.584   4.121  50.741  1.00  0.00    -0.261 NA
HETATM    9  C4  UNL     1      21.426   3.420  49.730  1.00  0.00     0.091 C 
HETATM   10  C3  UNL     1      20.784   2.713  48.608  1.00  0.00     0.073 C 
HETATM   11  C2  UNL     1      20.926   1.239  48.951  1.00  0.00    -0.025 C 
HETATM   12  C1  UNL     1      21.544   0.853  50.126  1.00  0.00    -0.023 C 
HETATM   13  C16 UNL     1      22.259   0.900  51.461  1.00  0.00     0.091 C 
HETATM   14  C15 UNL     1      22.673   1.995  52.202  1.00  0.00     0.069 C 
HETATM   15  N5  UNL     1      22.886   3.426  52.555  1.00  0.00    -0.383 N 
HETATM   16  H17 UNL     1      23.088   3.503  53.570  1.00  0.00     0.157 HD
ENDBRANCH   1   7
BRANCH   5  17
HETATM   17  O1  UNL     1      27.141   2.537  51.038  1.00  0.00    -0.334 OA
BRANCH  17  18
HETATM   18  C10 UNL     1      26.663   1.564  51.945  1.00  0.00     0.306 C 
BRANCH  18  19
HETATM   19  N3  UNL     1      27.579   1.373  53.052  1.00  0.00    -0.328 N 
HETATM   20  C11 UNL     1      27.772   0.283  53.820  1.00  0.00     0.113 A 
HETATM   21  C12 UNL     1      28.749   0.517  54.780  1.00  0.00     0.135 A 
HETATM   22  N4  UNL     1      29.145   1.789  54.568  1.00  0.00    -0.255 NA
HETATM   23  C13 UNL     1      28.447   2.303  53.538  1.00  0.00     0.210 A 
ENDBRANCH  18  19
ENDBRANCH  17  18
ENDBRANCH   5  17
TORSDOF 4
ENDMDL
MODEL 6
REMARK VINA RESULT:      -6.7      4.306      7.236
REMARK  4 active torsions:
REMARK  status: ('A' for Active; 'I' for Inactive)
REMARK    1  A    between atoms: C5_6  and  N2_7 
REMARK    2  A    between atoms: C9_11  and  O1_12 
REMARK    3  A    between atoms: O1_12  and  C10_13 
REMARK    4  A    between atoms: C10_13  and  N3_14 
ROOT
HETATM    1  N2  UNL     1      25.035   5.019  50.375  1.00  0.00    -0.346 N 
HETATM    2  C6  UNL     1      25.754   3.844  50.146  1.00  0.00     0.090 A 
HETATM    3  C7  UNL     1      26.821   3.677  49.413  1.00  0.00     0.019 A 
HETATM    4  C8  UNL     1      27.405   4.805  48.714  1.00  0.00     0.035 A 
HETATM    5  C9  UNL     1      26.767   5.938  48.904  1.00  0.00     0.066 A 
HETATM    6  C14 UNL     1      25.562   6.227  49.716  1.00  0.00     0.190 A 
ENDROOT
BRANCH   1   7
HETATM    7  C5  UNL     1      23.857   5.310  51.111  1.00  0.00     0.308 C 
HETATM    8  N1  UNL     1      22.667   4.666  50.665  1.00  0.00    -0.261 NA
HETATM    9  C4  UNL     1      22.517   3.595  50.059  1.00  0.00     0.091 C 
HETATM   10  C3  UNL     1      21.881   2.452  49.382  1.00  0.00     0.073 C 
HETATM   11  C2  UNL     1      22.122   1.272  50.311  1.00  0.00    -0.025 C 
HETATM   12  C1  UNL     1      22.801   1.451  51.501  1.00  0.00    -0.023 C 
HETATM   13  C16 UNL     1      23.555   2.093  52.647  1.00  0.00     0.091 C 
HETATM   14  C15 UNL     1      23.929   3.414  52.828  1.00  0.00     0.069 C 
HETATM   15  N5  UNL     1      24.068   4.866  52.526  1.00  0.00    -0.383 N 
HETATM   16  H17 UNL     1      24.299   5.378  53.399  1.00  0.00     0.157 HD
ENDBRANCH   1   7
BRANCH   5  17
HETATM   17  O1  UNL     1      27.275   7.062  48.258  1.00  0.00    -0.334 OA
BRANCH  17  18
HETATM   18  C10 UNL     1      28.550   6.946  47.661  1.00  0.00     0.306 C 
BRANCH  18  19
HETATM   19  N3  UNL     1      29.552   7.694  48.395  1.00  0.00    -0.328 N 
HETATM   20  C11 UNL     1      30.808   7.336  48.729  1.00  0.00     0.113 A 
HETATM   21  C12 UNL     1      31.442   8.348  49.438  1.00  0.00     0.135 A 
HETATM   22  N4  UNL     1      30.527   9.336  49.523  1.00  0.00    -0.255 NA
HETATM   23  C13 UNL     1      29.398   8.948  48.902  1.00  0.00     0.210 A 
ENDBRANCH  18  19
ENDBRANCH  17  18
ENDBRANCH   5  17
TORSDOF 4
ENDMDL
MODEL 7
REMARK VINA RESULT:      -6.7      2.939      6.268
REMARK  4 active torsions:
REMARK  status: ('A' for Active; 'I' for Inactive)
REMARK    1  A    between atoms: C5_6  and  N2_7 
REMARK    2  A    between atoms: C9_11  and  O1_12 
REMARK    3  A    between atoms: O1_12  and  C10_13 
REMARK    4  A    between atoms: C10_13  and  N3_14 
ROOT
HETATM    1  N2  UNL     1      24.418   3.547  51.746  1.00  0.00    -0.346 N 
HETATM    2  C6  UNL     1      25.475   3.339  50.858  1.00  0.00     0.090 A 
HETATM    3  C7  UNL     1      26.439   2.464  50.937  1.00  0.00     0.019 A 
HETATM    4  C8  UNL     1      26.495   1.544  52.057  1.00  0.00     0.035 A 
HETATM    5  C9  UNL     1      25.515   1.697  52.920  1.00  0.00     0.066 A 
HETATM    6  C14 UNL     1      24.381   2.649  52.914  1.00  0.00     0.190 A 
ENDROOT
BRANCH   1   7
HETATM    7  C5  UNL     1      23.348   4.479  51.783  1.00  0.00     0.308 C 
HETATM    8  N1  UNL     1      23.697   5.840  51.549  1.00  0.00    -0.261 NA
HETATM    9  C4  UNL     1      24.639   6.324  50.904  1.00  0.00     0.091 C 
HETATM   10  C3  UNL     1      25.546   7.303  50.280  1.00  0.00     0.073 C 
HETATM   11  C2  UNL     1      25.308   7.149  48.786  1.00  0.00    -0.025 C 
HETATM   12  C1  UNL     1      24.379   6.238  48.319  1.00  0.00    -0.023 C 
HETATM   13  C16 UNL     1      23.311   5.166  48.272  1.00  0.00     0.091 C 
HETATM   14  C15 UNL     1      22.689   4.493  49.311  1.00  0.00     0.069 C 
HETATM   15  N5  UNL     1      22.367   4.108  50.713  1.00  0.00    -0.383 N 
HETATM   16  H17 UNL     1      21.454   3.616  50.733  1.00  0.00     0.157 HD
ENDBRANCH   1   7
BRANCH   5  17
HETATM   17  O1  UNL     1      25.511   0.847  54.023  1.00  0.00    -0.334 OA
BRANCH  17  18
HETATM   18  C10 UNL     1      25.256  -0.523  53.785  1.00  0.00     0.306 C 
BRANCH  18  19
HETATM   19  N3  UNL     1      23.885  -0.872  54.105  1.00  0.00    -0.328 N 
HETATM   20  C11 UNL     1      22.799  -0.874  53.307  1.00  0.00     0.113 A 
HETATM   21  C12 UNL     1      21.668  -1.275  54.008  1.00  0.00     0.135 A 
HETATM   22  N4  UNL     1      22.105  -1.518  55.261  1.00  0.00    -0.255 NA
HETATM   23  C13 UNL     1      23.429  -1.277  55.322  1.00  0.00     0.210 A 
ENDBRANCH  18  19
ENDBRANCH  17  18
ENDBRANCH   5  17
TORSDOF 4
ENDMDL
MODEL 8
REMARK VINA RESULT:      -6.6      2.673      7.439
REMARK  4 active torsions:
REMARK  status: ('A' for Active; 'I' for Inactive)
REMARK    1  A    between atoms: C5_6  and  N2_7 
REMARK    2  A    between atoms: C9_11  and  O1_12 
REMARK    3  A    between atoms: O1_12  and  C10_13 
REMARK    4  A    between atoms: C10_13  and  N3_14 
ROOT
HETATM    1  N2  UNL     1      24.935   4.348  50.905  1.00  0.00    -0.346 N 
HETATM    2  C6  UNL     1      23.882   4.406  51.820  1.00  0.00     0.090 A 
HETATM    3  C7  UNL     1      23.435   3.460  52.600  1.00  0.00     0.019 A 
HETATM    4  C8  UNL     1      24.056   2.149  52.582  1.00  0.00     0.035 A 
HETATM    5  C9  UNL     1      25.059   2.047  51.739  1.00  0.00     0.066 A 
HETATM    6  C14 UNL     1      25.640   3.057  50.825  1.00  0.00     0.190 A 
ENDROOT
BRANCH   1   7
HETATM    7  C5  UNL     1      25.479   5.287  49.990  1.00  0.00     0.308 C 
HETATM    8  N1  UNL     1      24.751   5.473  48.780  1.00  0.00    -0.261 NA
HETATM    9  C4  UNL     1      23.544   5.323  48.542  1.00  0.00     0.091 C 
HETATM   10  C3  UNL     1      22.256   5.287  47.828  1.00  0.00     0.073 C 
HETATM   11  C2  UNL     1      21.444   6.417  48.442  1.00  0.00    -0.025 C 
HETATM   12  C1  UNL     1      21.990   7.206  49.436  1.00  0.00    -0.023 C 
HETATM   13  C16 UNL     1      22.957   7.784  50.449  1.00  0.00     0.091 C 
HETATM   14  C15 UNL     1      24.256   7.403  50.746  1.00  0.00     0.069 C 
HETATM   15  N5  UNL     1      25.523   6.625  50.662  1.00  0.00    -0.383 N 
HETATM   16  H17 UNL     1      26.289   7.167  51.106  1.00  0.00     0.157 HD
ENDBRANCH   1   7
BRANCH   5  17
HETATM   17  O1  UNL     1      25.699   0.813  51.670  1.00  0.00    -0.334 OA
BRANCH  17  18
HETATM   18  C10 UNL     1      25.600  -0.033  52.798  1.00  0.00     0.306 C 
BRANCH  18  19
HETATM   19  N3  UNL     1      26.878  -0.181  53.465  1.00  0.00    -0.328 N 
HETATM   20  C11 UNL     1      27.397   0.538  54.481  1.00  0.00     0.113 A 
HETATM   21  C12 UNL     1      28.658   0.069  54.829  1.00  0.00     0.135 A 
HETATM   22  N4  UNL     1      28.887  -0.962  53.990  1.00  0.00    -0.255 NA
HETATM   23  C13 UNL     1      27.827  -1.113  53.174  1.00  0.00     0.210 A 
ENDBRANCH  18  19
ENDBRANCH  17  18
ENDBRANCH   5  17
TORSDOF 4
ENDMDL
MODEL 9
REMARK VINA RESULT:      -6.5      3.248      4.166
REMARK  4 active torsions:
REMARK  status: ('A' for Active; 'I' for Inactive)
REMARK    1  A    between atoms: C5_6  and  N2_7 
REMARK    2  A    between atoms: C9_11  and  O1_12 
REMARK    3  A    between atoms: O1_12  and  C10_13 
REMARK    4  A    between atoms: C10_13  and  N3_14 
ROOT
HETATM    1  N2  UNL     1      22.760   2.585  51.050  1.00  0.00    -0.346 N 
HETATM    2  C6  UNL     1      23.029   2.493  49.683  1.00  0.00     0.090 A 
HETATM    3  C7  UNL     1      22.331   1.892  48.759  1.00  0.00     0.019 A 
HETATM    4  C8  UNL     1      21.100   1.208  49.109  1.00  0.00     0.035 A 
HETATM    5  C9  UNL     1      20.800   1.271  50.387  1.00  0.00     0.066 A 
HETATM    6  C14 UNL     1      21.520   1.930  51.501  1.00  0.00     0.190 A 
ENDROOT
BRANCH   1   7
HETATM    7  C5  UNL     1      23.455   3.172  52.140  1.00  0.00     0.308 C 
HETATM    8  N1  UNL     1      23.918   2.272  53.142  1.00  0.00    -0.261 NA
HETATM    9  C4  UNL     1      24.223   1.073  53.061  1.00  0.00     0.091 C 
HETATM   10  C3  UNL     1      24.673  -0.281  53.429  1.00  0.00     0.073 C 
HETATM   11  C2  UNL     1      26.008  -0.447  52.719  1.00  0.00    -0.025 C 
HETATM   12  C1  UNL     1      26.523   0.582  51.954  1.00  0.00    -0.023 C 
HETATM   13  C16 UNL     1      26.688   1.918  51.260  1.00  0.00     0.091 C 
HETATM   14  C15 UNL     1      25.855   3.025  51.266  1.00  0.00     0.069 C 
HETATM   15  N5  UNL     1      24.671   3.863  51.603  1.00  0.00    -0.383 N 
HETATM   16  H17 UNL     1      24.887   4.858  51.405  1.00  0.00     0.157 HD
ENDBRANCH   1   7
BRANCH   5  17
HETATM   17  O1  UNL     1      19.632   0.632  50.791  1.00  0.00    -0.334 OA
BRANCH  17  18
HETATM   18  C10 UNL     1      19.437   0.452  52.179  1.00  0.00     0.306 C 
BRANCH  18  19
HETATM   19  N3  UNL     1      18.369  -0.491  52.449  1.00  0.00    -0.328 N 
HETATM   20  C11 UNL     1      17.152  -0.586  51.878  1.00  0.00     0.113 A 
HETATM   21  C12 UNL     1      16.425  -1.635  52.427  1.00  0.00     0.135 A 
HETATM   22  N4  UNL     1      17.244  -2.176  53.352  1.00  0.00    -0.255 NA
HETATM   23  C13 UNL     1      18.405  -1.495  53.368  1.00  0.00     0.210 A 
ENDBRANCH  18  19
ENDBRANCH  17  18
ENDBRANCH   5  17
TORSDOF 4
ENDMDL
