MODEL 1
REMARK VINA RESULT:      -8.2      0.000      0.000
REMARK  4 active torsions:
REMARK  status: ('A' for Active; 'I' for Inactive)
REMARK    1  A    between atoms: S1_2  and  N1_5 
REMARK    2  A    between atoms: N1_5  and  C2_6 
REMARK    3  A    between atoms: C12_19  and  P1_20 
REMARK    4  A    between atoms: C14_22  and  N5_23 
ROOT
HETATM    1  C2  UNL     1      26.325   7.836  48.275  1.00  0.00     0.043 A 
HETATM    2  C3  UNL     1      24.939   7.791  48.133  1.00  0.00     0.033 A 
HETATM    3  C4  UNL     1      24.185   6.659  48.358  1.00  0.00     0.040 A 
HETATM    4  C5  UNL     1      24.853   5.519  48.743  1.00  0.00     0.086 A 
HETATM    5  C6  UNL     1      26.227   5.520  48.895  1.00  0.00    -0.004 A 
HETATM    6  C7  UNL     1      26.949   6.673  48.661  1.00  0.00     0.041 A 
HETATM    7  C8  UNL     1      27.120   4.414  49.295  1.00  0.00     0.161 C 
HETATM    8  N2  UNL     1      26.655   3.603  50.370  1.00  0.00    -0.380 N 
HETATM    9  C9  UNL     1      25.355   3.065  50.556  1.00  0.00     0.112 A 
HETATM   10  C10 UNL     1      24.177   3.426  49.924  1.00  0.00     0.200 A 
HETATM   11  N3  UNL     1      23.011   2.818  50.210  1.00  0.00    -0.215 NA
HETATM   12  C11 UNL     1      22.958   1.825  51.134  1.00  0.00     0.236 A 
HETATM   13  N4  UNL     1      24.100   1.444  51.776  1.00  0.00    -0.239 NA
HETATM   14  C12 UNL     1      25.289   2.054  51.494  1.00  0.00     0.089 A 
HETATM   15  O3  UNL     1      24.021   4.417  48.950  1.00  0.00    -0.289 OA
HETATM   16  H10 UNL     1      27.269   3.307  51.178  1.00  0.00     0.160 HD
ENDROOT
BRANCH  14  17
HETATM   17  P1  UNL     1      26.731   1.537  52.337  1.00  0.00    -0.071 P 
HETATM   18  C13 UNL     1      26.762  -0.291  52.112  1.00  0.00     0.034 C 
HETATM   19  C14 UNL     1      27.414  -0.673  53.479  1.00  0.00     0.022 C 
HETATM   20  C15 UNL     1      27.202   0.147  54.464  1.00  0.00     0.007 C 
HETATM   21  C16 UNL     1      26.367   1.330  54.139  1.00  0.00     0.066 C 
HETATM   22  H12 UNL     1      27.876   1.970  52.073  1.00  0.00     0.064 HD
BRANCH  19  23
HETATM   23  N5  UNL     1      28.115  -1.894  53.283  1.00  0.00    -0.399 N 
HETATM   24  H14 UNL     1      27.856  -2.486  52.441  1.00  0.00     0.156 HD
HETATM   25  H15 UNL     1      28.852  -2.121  54.005  1.00  0.00     0.156 HD
ENDBRANCH  19  23
ENDBRANCH  14  17
BRANCH   1  26
HETATM   26  N1  UNL     1      26.926   9.093  47.999  1.00  0.00    -0.285 N 
HETATM   27  H4  UNL     1      26.838   9.457  47.015  1.00  0.00     0.178 HD
BRANCH  26  28
HETATM   28  S1  UNL     1      27.766  10.000  49.206  1.00  0.00     0.227 S 
HETATM   29  C1  UNL     1      29.487   9.667  49.239  1.00  0.00     0.186 C 
HETATM   30  O1  UNL     1      27.147   9.625  50.537  1.00  0.00    -0.206 OA
HETATM   31  O2  UNL     1      27.486  11.457  48.991  1.00  0.00    -0.206 OA
ENDBRANCH  26  28
ENDBRANCH   1  26
TORSDOF 4
ENDMDL
MODEL 2
REMARK VINA RESULT:      -7.8      5.110      7.938
REMARK  4 active torsions:
REMARK  status: ('A' for Active; 'I' for Inactive)
REMARK    1  A    between atoms: S1_2  and  N1_5 
REMARK    2  A    between atoms: N1_5  and  C2_6 
REMARK    3  A    between atoms: C12_19  and  P1_20 
REMARK    4  A    between atoms: C14_22  and  N5_23 
ROOT
HETATM    1  C2  UNL     1      26.211   1.130  54.095  1.00  0.00     0.043 A 
HETATM    2  C3  UNL     1      25.643  -0.102  53.774  1.00  0.00     0.033 A 
HETATM    3  C4  UNL     1      24.452  -0.239  53.093  1.00  0.00     0.040 A 
HETATM    4  C5  UNL     1      23.801   0.914  52.717  1.00  0.00     0.086 A 
HETATM    5  C6  UNL     1      24.330   2.156  53.015  1.00  0.00    -0.004 A 
HETATM    6  C7  UNL     1      25.525   2.254  53.699  1.00  0.00     0.041 A 
HETATM    7  C8  UNL     1      23.792   3.495  52.704  1.00  0.00     0.161 C 
HETATM    8  N2  UNL     1      23.253   3.656  51.395  1.00  0.00    -0.380 N 
HETATM    9  C9  UNL     1      22.385   2.778  50.697  1.00  0.00     0.112 A 
HETATM   10  C10 UNL     1      22.092   1.454  50.979  1.00  0.00     0.200 A 
HETATM   11  N3  UNL     1      21.238   0.745  50.217  1.00  0.00    -0.215 NA
HETATM   12  C11 UNL     1      20.636   1.313  49.143  1.00  0.00     0.236 A 
HETATM   13  N4  UNL     1      20.901   2.616  48.835  1.00  0.00    -0.239 NA
HETATM   14  C12 UNL     1      21.765   3.346  49.601  1.00  0.00     0.089 A 
HETATM   15  O3  UNL     1      22.604   0.691  52.033  1.00  0.00    -0.289 OA
HETATM   16  H10 UNL     1      23.462   4.492  50.783  1.00  0.00     0.160 HD
ENDROOT
BRANCH  14  17
HETATM   17  P1  UNL     1      22.079   5.012  49.176  1.00  0.00    -0.071 P 
HETATM   18  C13 UNL     1      20.880   5.977  50.188  1.00  0.00     0.034 C 
HETATM   19  C14 UNL     1      20.623   7.142  49.181  1.00  0.00     0.022 C 
HETATM   20  C15 UNL     1      20.770   6.854  47.922  1.00  0.00     0.007 C 
HETATM   21  C16 UNL     1      21.161   5.453  47.632  1.00  0.00     0.066 C 
HETATM   22  H12 UNL     1      23.201   5.556  49.300  1.00  0.00     0.064 HD
BRANCH  19  23
HETATM   23  N5  UNL     1      20.274   8.289  49.945  1.00  0.00    -0.399 N 
HETATM   24  H14 UNL     1      20.914   9.134  49.892  1.00  0.00     0.156 HD
HETATM   25  H15 UNL     1      19.389   8.208  50.514  1.00  0.00     0.156 HD
ENDBRANCH  19  23
ENDBRANCH  14  17
BRANCH   1  26
HETATM   26  N1  UNL     1      27.443   1.068  54.800  1.00  0.00    -0.285 N 
HETATM   27  H4  UNL     1      27.397   0.792  55.815  1.00  0.00     0.178 HD
BRANCH  26  28
HETATM   28  S1  UNL     1      28.956   1.426  54.047  1.00  0.00     0.227 S 
HETATM   29  C1  UNL     1      29.886  -0.011  53.660  1.00  0.00     0.186 C 
HETATM   30  O1  UNL     1      29.730   2.289  55.021  1.00  0.00    -0.206 OA
HETATM   31  O2  UNL     1      28.699   2.265  52.831  1.00  0.00    -0.206 OA
ENDBRANCH  26  28
ENDBRANCH   1  26
TORSDOF 4
ENDMDL
MODEL 3
REMARK VINA RESULT:      -7.8      2.235      2.655
REMARK  4 active torsions:
REMARK  status: ('A' for Active; 'I' for Inactive)
REMARK    1  A    between atoms: S1_2  and  N1_5 
REMARK    2  A    between atoms: N1_5  and  C2_6 
REMARK    3  A    between atoms: C12_19  and  P1_20 
REMARK    4  A    between atoms: C14_22  and  N5_23 
ROOT
HETATM    1  C2  UNL     1      24.714   7.121  50.490  1.00  0.00     0.043 A 
HETATM    2  C3  UNL     1      23.478   7.020  51.128  1.00  0.00     0.033 A 
HETATM    3  C4  UNL     1      22.890   5.820  51.466  1.00  0.00     0.040 A 
HETATM    4  C5  UNL     1      23.573   4.668  51.149  1.00  0.00     0.086 A 
HETATM    5  C6  UNL     1      24.801   4.724  50.516  1.00  0.00    -0.004 A 
HETATM    6  C7  UNL     1      25.359   5.944  50.193  1.00  0.00     0.041 A 
HETATM    7  C8  UNL     1      25.682   3.616  50.096  1.00  0.00     0.161 C 
HETATM    8  N2  UNL     1      25.825   2.551  51.031  1.00  0.00    -0.380 N 
HETATM    9  C9  UNL     1      24.805   1.901  51.773  1.00  0.00     0.112 A 
HETATM   10  C10 UNL     1      23.504   2.320  51.995  1.00  0.00     0.200 A 
HETATM   11  N3  UNL     1      22.645   1.587  52.727  1.00  0.00    -0.215 NA
HETATM   12  C11 UNL     1      23.033   0.408  53.273  1.00  0.00     0.236 A 
HETATM   13  N4  UNL     1      24.309  -0.036  53.075  1.00  0.00    -0.239 NA
HETATM   14  C12 UNL     1      25.189   0.699  52.334  1.00  0.00     0.089 A 
HETATM   15  O3  UNL     1      22.913   3.496  51.523  1.00  0.00    -0.289 OA
HETATM   16  H10 UNL     1      26.758   2.118  51.276  1.00  0.00     0.160 HD
ENDROOT
BRANCH  14  17
HETATM   17  P1  UNL     1      26.814   0.098  52.102  1.00  0.00    -0.071 P 
HETATM   18  C13 UNL     1      26.735  -1.660  52.650  1.00  0.00     0.034 C 
HETATM   19  C14 UNL     1      28.181  -1.780  53.226  1.00  0.00     0.022 C 
HETATM   20  C15 UNL     1      28.714  -0.681  53.672  1.00  0.00     0.007 C 
HETATM   21  C16 UNL     1      27.861   0.528  53.565  1.00  0.00     0.066 C 
HETATM   22  H12 UNL     1      27.408   0.123  50.999  1.00  0.00     0.064 HD
BRANCH  19  23
HETATM   23  N5  UNL     1      28.569  -3.143  53.108  1.00  0.00    -0.399 N 
HETATM   24  H14 UNL     1      27.811  -3.882  53.180  1.00  0.00     0.156 HD
HETATM   25  H15 UNL     1      29.599  -3.315  52.954  1.00  0.00     0.156 HD
ENDBRANCH  19  23
ENDBRANCH  14  17
BRANCH   1  26
HETATM   26  N1  UNL     1      25.155   8.445  50.224  1.00  0.00    -0.285 N 
HETATM   27  H4  UNL     1      25.613   8.963  51.017  1.00  0.00     0.178 HD
BRANCH  26  28
HETATM   28  S1  UNL     1      24.961   9.189  48.676  1.00  0.00     0.227 S 
HETATM   29  C1  UNL     1      23.282   9.484  48.264  1.00  0.00     0.186 C 
HETATM   30  O1  UNL     1      25.578   8.247  47.663  1.00  0.00    -0.206 OA
HETATM   31  O2  UNL     1      25.770  10.451  48.648  1.00  0.00    -0.206 OA
ENDBRANCH  26  28
ENDBRANCH   1  26
TORSDOF 4
ENDMDL
MODEL 4
REMARK VINA RESULT:      -7.8      5.937      8.779
REMARK  4 active torsions:
REMARK  status: ('A' for Active; 'I' for Inactive)
REMARK    1  A    between atoms: S1_2  and  N1_5 
REMARK    2  A    between atoms: N1_5  and  C2_6 
REMARK    3  A    between atoms: C12_19  and  P1_20 
REMARK    4  A    between atoms: C14_22  and  N5_23 
ROOT
HETATM    1  C2  UNL     1      25.517   0.468  52.596  1.00  0.00     0.043 A 
HETATM    2  C3  UNL     1      25.202  -0.588  53.451  1.00  0.00     0.033 A 
HETATM    3  C4  UNL     1      23.922  -0.867  53.879  1.00  0.00     0.040 A 
HETATM    4  C5  UNL     1      22.911  -0.049  53.430  1.00  0.00     0.086 A 
HETATM    5  C6  UNL     1      23.179   1.009  52.582  1.00  0.00    -0.004 A 
HETATM    6  C7  UNL     1      24.474   1.258  52.173  1.00  0.00     0.041 A 
HETATM    7  C8  UNL     1      22.246   1.992  51.996  1.00  0.00     0.161 C 
HETATM    8  N2  UNL     1      21.017   1.461  51.507  1.00  0.00    -0.380 N 
HETATM    9  C9  UNL     1      20.160   0.524  52.139  1.00  0.00     0.112 A 
HETATM   10  C10 UNL     1      20.437  -0.307  53.212  1.00  0.00     0.200 A 
HETATM   11  N3  UNL     1      19.511  -1.150  53.705  1.00  0.00    -0.215 NA
HETATM   12  C11 UNL     1      18.270  -1.210  53.161  1.00  0.00     0.236 A 
HETATM   13  N4  UNL     1      17.963  -0.405  52.102  1.00  0.00    -0.239 NA
HETATM   14  C12 UNL     1      18.894   0.455  51.593  1.00  0.00     0.089 A 
HETATM   15  O3  UNL     1      21.646  -0.396  53.909  1.00  0.00    -0.289 OA
HETATM   16  H10 UNL     1      20.603   1.730  50.572  1.00  0.00     0.160 HD
ENDROOT
BRANCH  14  17
HETATM   17  P1  UNL     1      18.461   1.470  50.237  1.00  0.00    -0.071 P 
HETATM   18  C13 UNL     1      17.728   2.975  51.007  1.00  0.00     0.034 C 
HETATM   19  C14 UNL     1      16.678   3.303  49.899  1.00  0.00     0.022 C 
HETATM   20  C15 UNL     1      16.238   2.294  49.209  1.00  0.00     0.007 C 
HETATM   21  C16 UNL     1      16.805   0.974  49.580  1.00  0.00     0.066 C 
HETATM   22  H12 UNL     1      19.284   1.851  49.372  1.00  0.00     0.064 HD
BRANCH  19  23
HETATM   23  N5  UNL     1      16.458   4.707  49.932  1.00  0.00    -0.399 N 
HETATM   24  H14 UNL     1      15.841   5.131  49.179  1.00  0.00     0.156 HD
HETATM   25  H15 UNL     1      16.935   5.228  50.716  1.00  0.00     0.156 HD
ENDBRANCH  19  23
ENDBRANCH  14  17
BRANCH   1  26
HETATM   26  N1  UNL     1      26.892   0.596  52.266  1.00  0.00    -0.285 N 
HETATM   27  H4  UNL     1      27.189   0.243  51.320  1.00  0.00     0.178 HD
BRANCH  26  28
HETATM   28  S1  UNL     1      28.041   1.295  53.350  1.00  0.00     0.227 S 
HETATM   29  C1  UNL     1      29.258   0.153  53.889  1.00  0.00     0.186 C 
HETATM   30  O1  UNL     1      27.256   1.805  54.541  1.00  0.00    -0.206 OA
HETATM   31  O2  UNL     1      28.656   2.492  52.689  1.00  0.00    -0.206 OA
ENDBRANCH  26  28
ENDBRANCH   1  26
TORSDOF 4
ENDMDL
MODEL 5
REMARK VINA RESULT:      -7.6      4.312      8.488
REMARK  4 active torsions:
REMARK  status: ('A' for Active; 'I' for Inactive)
REMARK    1  A    between atoms: S1_2  and  N1_5 
REMARK    2  A    between atoms: N1_5  and  C2_6 
REMARK    3  A    between atoms: C12_19  and  P1_20 
REMARK    4  A    between atoms: C14_22  and  N5_23 
ROOT
HETATM    1  C2  UNL     1      24.430   4.528  49.681  1.00  0.00     0.043 A 
HETATM    2  C3  UNL     1      25.362   3.511  49.883  1.00  0.00     0.033 A 
HETATM    3  C4  UNL     1      26.676   3.587  49.473  1.00  0.00     0.040 A 
HETATM    4  C5  UNL     1      27.073   4.736  48.829  1.00  0.00     0.086 A 
HETATM    5  C6  UNL     1      26.181   5.769  48.608  1.00  0.00    -0.004 A 
HETATM    6  C7  UNL     1      24.873   5.657  49.034  1.00  0.00     0.041 A 
HETATM    7  C8  UNL     1      26.407   7.068  47.944  1.00  0.00     0.161 C 
HETATM    8  N2  UNL     1      27.624   7.729  48.279  1.00  0.00    -0.380 N 
HETATM    9  C9  UNL     1      28.924   7.169  48.366  1.00  0.00     0.112 A 
HETATM   10  C10 UNL     1      29.282   5.834  48.440  1.00  0.00     0.200 A 
HETATM   11  N3  UNL     1      30.571   5.454  48.519  1.00  0.00    -0.215 NA
HETATM   12  C11 UNL     1      31.564   6.378  48.528  1.00  0.00     0.236 A 
HETATM   13  N4  UNL     1      31.248   7.704  48.456  1.00  0.00    -0.239 NA
HETATM   14  C12 UNL     1      29.944   8.101  48.376  1.00  0.00     0.089 A 
HETATM   15  O3  UNL     1      28.415   4.736  48.445  1.00  0.00    -0.289 OA
HETATM   16  H10 UNL     1      27.677   8.760  48.508  1.00  0.00     0.160 HD
ENDROOT
BRANCH  14  17
HETATM   17  P1  UNL     1      29.579   9.808  48.285  1.00  0.00    -0.071 P 
HETATM   18  C13 UNL     1      30.522  10.400  46.817  1.00  0.00     0.034 C 
HETATM   19  C14 UNL     1      30.851  11.839  47.327  1.00  0.00     0.022 C 
HETATM   20  C15 UNL     1      30.933  11.984  48.616  1.00  0.00     0.007 C 
HETATM   21  C16 UNL     1      30.701  10.754  49.411  1.00  0.00     0.066 C 
HETATM   22  H12 UNL     1      28.414  10.260  48.193  1.00  0.00     0.064 HD
BRANCH  19  23
HETATM   23  N5  UNL     1      30.984  12.671  46.183  1.00  0.00    -0.399 N 
HETATM   24  H14 UNL     1      30.446  13.586  46.169  1.00  0.00     0.156 HD
HETATM   25  H15 UNL     1      31.619  12.307  45.423  1.00  0.00     0.156 HD
ENDBRANCH  19  23
ENDBRANCH  14  17
BRANCH   1  26
HETATM   26  N1  UNL     1      23.125   4.266  50.175  1.00  0.00    -0.285 N 
HETATM   27  H4  UNL     1      22.578   3.505  49.696  1.00  0.00     0.178 HD
BRANCH  26  28
HETATM   28  S1  UNL     1      22.446   5.143  51.500  1.00  0.00     0.227 S 
HETATM   29  C1  UNL     1      21.712   6.660  51.013  1.00  0.00     0.186 C 
HETATM   30  O1  UNL     1      23.579   5.411  52.467  1.00  0.00    -0.206 OA
HETATM   31  O2  UNL     1      21.467   4.256  52.210  1.00  0.00    -0.206 OA
ENDBRANCH  26  28
ENDBRANCH   1  26
TORSDOF 4
ENDMDL
MODEL 6
REMARK VINA RESULT:      -7.6      2.235      2.478
REMARK  4 active torsions:
REMARK  status: ('A' for Active; 'I' for Inactive)
REMARK    1  A    between atoms: S1_2  and  N1_5 
REMARK    2  A    between atoms: N1_5  and  C2_6 
REMARK    3  A    between atoms: C12_19  and  P1_20 
REMARK    4  A    between atoms: C14_22  and  N5_23 
ROOT
HETATM    1  C2  UNL     1      28.465   7.338  48.039  1.00  0.00     0.043 A 
HETATM    2  C3  UNL     1      27.392   8.183  48.321  1.00  0.00     0.033 A 
HETATM    3  C4  UNL     1      26.189   7.746  48.831  1.00  0.00     0.040 A 
HETATM    4  C5  UNL     1      26.055   6.397  49.068  1.00  0.00     0.086 A 
HETATM    5  C6  UNL     1      27.093   5.523  48.803  1.00  0.00    -0.004 A 
HETATM    6  C7  UNL     1      28.284   5.999  48.293  1.00  0.00     0.041 A 
HETATM    7  C8  UNL     1      27.147   4.059  48.985  1.00  0.00     0.161 C 
HETATM    8  N2  UNL     1      26.584   3.567  50.198  1.00  0.00    -0.380 N 
HETATM    9  C9  UNL     1      25.351   3.931  50.797  1.00  0.00     0.112 A 
HETATM   10  C10 UNL     1      24.555   5.032  50.525  1.00  0.00     0.200 A 
HETATM   11  N3  UNL     1      23.401   5.244  51.184  1.00  0.00    -0.215 NA
HETATM   12  C11 UNL     1      22.981   4.379  52.140  1.00  0.00     0.236 A 
HETATM   13  N4  UNL     1      23.741   3.284  52.434  1.00  0.00    -0.239 NA
HETATM   14  C12 UNL     1      24.914   3.057  51.773  1.00  0.00     0.089 A 
HETATM   15  O3  UNL     1      24.808   6.033  49.583  1.00  0.00    -0.289 OA
HETATM   16  H10 UNL     1      27.059   2.841  50.803  1.00  0.00     0.160 HD
ENDROOT
BRANCH  14  17
HETATM   17  P1  UNL     1      25.859   1.643  52.177  1.00  0.00    -0.071 P 
HETATM   18  C13 UNL     1      24.821   0.733  53.397  1.00  0.00     0.034 C 
HETATM   19  C14 UNL     1      25.972   0.130  54.264  1.00  0.00     0.022 C 
HETATM   20  C15 UNL     1      27.080   0.808  54.296  1.00  0.00     0.007 C 
HETATM   21  C16 UNL     1      27.084   2.059  53.499  1.00  0.00     0.066 C 
HETATM   22  H12 UNL     1      26.256   0.814  51.326  1.00  0.00     0.064 HD
BRANCH  19  23
HETATM   23  N5  UNL     1      25.483  -1.078  54.830  1.00  0.00    -0.399 N 
HETATM   24  H14 UNL     1      25.804  -1.994  54.400  1.00  0.00     0.156 HD
HETATM   25  H15 UNL     1      24.826  -0.968  55.650  1.00  0.00     0.156 HD
ENDBRANCH  19  23
ENDBRANCH  14  17
BRANCH   1  26
HETATM   26  N1  UNL     1      29.623   7.974  47.519  1.00  0.00    -0.285 N 
HETATM   27  H4  UNL     1      29.664   8.109  46.476  1.00  0.00     0.178 HD
BRANCH  26  28
HETATM   28  S1  UNL     1      30.915   8.511  48.533  1.00  0.00     0.227 S 
HETATM   29  C1  UNL     1      30.520   9.960  49.438  1.00  0.00     0.186 C 
HETATM   30  O1  UNL     1      32.094   8.783  47.622  1.00  0.00    -0.206 OA
HETATM   31  O2  UNL     1      31.314   7.383  49.437  1.00  0.00    -0.206 OA
ENDBRANCH  26  28
ENDBRANCH   1  26
TORSDOF 4
ENDMDL
MODEL 7
REMARK VINA RESULT:      -7.3      3.151      3.720
REMARK  4 active torsions:
REMARK  status: ('A' for Active; 'I' for Inactive)
REMARK    1  A    between atoms: S1_2  and  N1_5 
REMARK    2  A    between atoms: N1_5  and  C2_6 
REMARK    3  A    between atoms: C12_19  and  P1_20 
REMARK    4  A    between atoms: C14_22  and  N5_23 
ROOT
HETATM    1  C2  UNL     1      29.712   7.114  48.287  1.00  0.00     0.043 A 
HETATM    2  C3  UNL     1      28.940   8.236  48.584  1.00  0.00     0.033 A 
HETATM    3  C4  UNL     1      27.608   8.176  48.937  1.00  0.00     0.040 A 
HETATM    4  C5  UNL     1      27.025   6.931  48.994  1.00  0.00     0.086 A 
HETATM    5  C6  UNL     1      27.754   5.792  48.708  1.00  0.00    -0.004 A 
HETATM    6  C7  UNL     1      29.085   5.892  48.358  1.00  0.00     0.041 A 
HETATM    7  C8  UNL     1      27.317   4.382  48.712  1.00  0.00     0.161 C 
HETATM    8  N2  UNL     1      26.489   3.995  49.806  1.00  0.00    -0.380 N 
HETATM    9  C9  UNL     1      25.376   4.689  50.344  1.00  0.00     0.112 A 
HETATM   10  C10 UNL     1      25.010   6.010  50.146  1.00  0.00     0.200 A 
HETATM   11  N3  UNL     1      23.914   6.531  50.730  1.00  0.00    -0.215 NA
HETATM   12  C11 UNL     1      23.133   5.769  51.536  1.00  0.00     0.236 A 
HETATM   13  N4  UNL     1      23.464   4.463  51.753  1.00  0.00    -0.239 NA
HETATM   14  C12 UNL     1      24.573   3.924  51.165  1.00  0.00     0.089 A 
HETATM   15  O3  UNL     1      25.677   6.953  49.358  1.00  0.00    -0.289 OA
HETATM   16  H10 UNL     1      26.635   3.101  50.353  1.00  0.00     0.160 HD
ENDROOT
BRANCH  14  17
HETATM   17  P1  UNL     1      24.964   2.247  51.467  1.00  0.00    -0.071 P 
HETATM   18  C13 UNL     1      23.420   1.538  52.182  1.00  0.00     0.034 C 
HETATM   19  C14 UNL     1      24.076   0.500  53.146  1.00  0.00     0.022 C 
HETATM   20  C15 UNL     1      25.264   0.795  53.584  1.00  0.00     0.007 C 
HETATM   21  C16 UNL     1      25.819   2.082  53.099  1.00  0.00     0.066 C 
HETATM   22  H12 UNL     1      25.363   1.461  50.577  1.00  0.00     0.064 HD
BRANCH  19  23
HETATM   23  N5  UNL     1      23.151  -0.568  53.306  1.00  0.00    -0.399 N 
HETATM   24  H14 UNL     1      22.379  -0.451  54.025  1.00  0.00     0.156 HD
HETATM   25  H15 UNL     1      23.308  -1.408  52.687  1.00  0.00     0.156 HD
ENDBRANCH  19  23
ENDBRANCH  14  17
BRANCH   1  26
HETATM   26  N1  UNL     1      31.064   7.377  47.945  1.00  0.00    -0.285 N 
HETATM   27  H4  UNL     1      31.234   8.086  47.185  1.00  0.00     0.178 HD
BRANCH  26  28
HETATM   28  S1  UNL     1      32.386   6.584  48.725  1.00  0.00     0.227 S 
HETATM   29  C1  UNL     1      32.927   5.152  47.869  1.00  0.00     0.186 C 
HETATM   30  O1  UNL     1      31.903   6.200  50.109  1.00  0.00    -0.206 OA
HETATM   31  O2  UNL     1      33.497   7.574  48.910  1.00  0.00    -0.206 OA
ENDBRANCH  26  28
ENDBRANCH   1  26
TORSDOF 4
ENDMDL
MODEL 8
REMARK VINA RESULT:      -7.2      5.030      8.942
REMARK  4 active torsions:
REMARK  status: ('A' for Active; 'I' for Inactive)
REMARK    1  A    between atoms: S1_2  and  N1_5 
REMARK    2  A    between atoms: N1_5  and  C2_6 
REMARK    3  A    between atoms: C12_19  and  P1_20 
REMARK    4  A    between atoms: C14_22  and  N5_23 
ROOT
HETATM    1  C2  UNL     1      18.915  -0.139  52.267  1.00  0.00     0.043 A 
HETATM    2  C3  UNL     1      19.519  -0.600  53.436  1.00  0.00     0.033 A 
HETATM    3  C4  UNL     1      20.883  -0.614  53.637  1.00  0.00     0.040 A 
HETATM    4  C5  UNL     1      21.678  -0.144  52.616  1.00  0.00     0.086 A 
HETATM    5  C6  UNL     1      21.120   0.322  51.440  1.00  0.00    -0.004 A 
HETATM    6  C7  UNL     1      19.750   0.321  51.276  1.00  0.00     0.041 A 
HETATM    7  C8  UNL     1      21.792   0.861  50.241  1.00  0.00     0.161 C 
HETATM    8  N2  UNL     1      22.873   1.755  50.488  1.00  0.00    -0.380 N 
HETATM    9  C9  UNL     1      23.929   1.608  51.423  1.00  0.00     0.112 A 
HETATM   10  C10 UNL     1      24.010   0.740  52.499  1.00  0.00     0.200 A 
HETATM   11  N3  UNL     1      25.088   0.717  53.305  1.00  0.00    -0.215 NA
HETATM   12  C11 UNL     1      26.135   1.551  53.082  1.00  0.00     0.236 A 
HETATM   13  N4  UNL     1      26.090   2.420  52.031  1.00  0.00    -0.239 NA
HETATM   14  C12 UNL     1      25.001   2.452  51.207  1.00  0.00     0.089 A 
HETATM   15  O3  UNL     1      23.045  -0.191  52.895  1.00  0.00    -0.289 OA
HETATM   16  H10 UNL     1      22.999   2.668  49.968  1.00  0.00     0.160 HD
ENDROOT
BRANCH  14  17
HETATM   17  P1  UNL     1      24.980   3.578  49.870  1.00  0.00    -0.071 P 
HETATM   18  C13 UNL     1      26.756   3.973  49.576  1.00  0.00     0.034 C 
HETATM   19  C14 UNL     1      26.582   5.454  49.114  1.00  0.00     0.022 C 
HETATM   20  C15 UNL     1      25.546   6.083  49.585  1.00  0.00     0.007 C 
HETATM   21  C16 UNL     1      24.681   5.294  50.494  1.00  0.00     0.066 C 
HETATM   22  H12 UNL     1      24.462   3.320  48.759  1.00  0.00     0.064 HD
BRANCH  19  23
HETATM   23  N5  UNL     1      27.666   5.754  48.245  1.00  0.00    -0.399 N 
HETATM   24  H14 UNL     1      27.857   5.088  47.441  1.00  0.00     0.156 HD
HETATM   25  H15 UNL     1      28.206   6.632  48.472  1.00  0.00     0.156 HD
ENDBRANCH  19  23
ENDBRANCH  14  17
BRANCH   1  26
HETATM   26  N1  UNL     1      17.497  -0.203  52.247  1.00  0.00    -0.285 N 
HETATM   27  H4  UNL     1      17.048  -0.994  52.777  1.00  0.00     0.178 HD
BRANCH  26  28
HETATM   28  S1  UNL     1      16.532   0.952  51.398  1.00  0.00     0.227 S 
HETATM   29  C1  UNL     1      16.470   0.656  49.671  1.00  0.00     0.186 C 
HETATM   30  O1  UNL     1      17.150   2.309  51.662  1.00  0.00    -0.206 OA
HETATM   31  O2  UNL     1      15.162   0.971  52.008  1.00  0.00    -0.206 OA
ENDBRANCH  26  28
ENDBRANCH   1  26
TORSDOF 4
ENDMDL
MODEL 9
REMARK VINA RESULT:      -7.2      3.338      5.244
REMARK  4 active torsions:
REMARK  status: ('A' for Active; 'I' for Inactive)
REMARK    1  A    between atoms: S1_2  and  N1_5 
REMARK    2  A    between atoms: N1_5  and  C2_6 
REMARK    3  A    between atoms: C12_19  and  P1_20 
REMARK    4  A    between atoms: C14_22  and  N5_23 
ROOT
HETATM    1  C2  UNL     1      25.385   5.517  49.125  1.00  0.00     0.043 A 
HETATM    2  C3  UNL     1      26.490   4.669  49.180  1.00  0.00     0.033 A 
HETATM    3  C4  UNL     1      26.608   3.625  50.074  1.00  0.00     0.040 A 
HETATM    4  C5  UNL     1      25.567   3.424  50.952  1.00  0.00     0.086 A 
HETATM    5  C6  UNL     1      24.453   4.242  50.931  1.00  0.00    -0.004 A 
HETATM    6  C7  UNL     1      24.371   5.277  50.022  1.00  0.00     0.041 A 
HETATM    7  C8  UNL     1      23.246   4.192  51.780  1.00  0.00     0.161 C 
HETATM    8  N2  UNL     1      22.715   2.892  52.023  1.00  0.00    -0.380 N 
HETATM    9  C9  UNL     1      23.422   1.716  52.381  1.00  0.00     0.112 A 
HETATM   10  C10 UNL     1      24.782   1.470  52.293  1.00  0.00     0.200 A 
HETATM   11  N3  UNL     1      25.309   0.292  52.676  1.00  0.00    -0.215 NA
HETATM   12  C11 UNL     1      24.516  -0.695  53.162  1.00  0.00     0.236 A 
HETATM   13  N4  UNL     1      23.171  -0.487  53.262  1.00  0.00    -0.239 NA
HETATM   14  C12 UNL     1      22.624   0.704  52.877  1.00  0.00     0.089 A 
HETATM   15  O3  UNL     1      25.762   2.350  51.823  1.00  0.00    -0.289 OA
HETATM   16  H10 UNL     1      21.684   2.667  51.956  1.00  0.00     0.160 HD
ENDROOT
BRANCH  14  17
HETATM   17  P1  UNL     1      20.897   0.932  53.021  1.00  0.00    -0.071 P 
HETATM   18  C13 UNL     1      20.286  -0.645  53.753  1.00  0.00     0.034 C 
HETATM   19  C14 UNL     1      18.895  -0.695  53.045  1.00  0.00     0.022 C 
HETATM   20  C15 UNL     1      18.818  -0.105  51.890  1.00  0.00     0.007 C 
HETATM   21  C16 UNL     1      20.071   0.531  51.415  1.00  0.00     0.066 C 
HETATM   22  H12 UNL     1      20.378   1.873  53.665  1.00  0.00     0.064 HD
BRANCH  19  23
HETATM   23  N5  UNL     1      18.016  -1.416  53.898  1.00  0.00    -0.399 N 
HETATM   24  H14 UNL     1      16.998  -1.499  53.607  1.00  0.00     0.156 HD
HETATM   25  H15 UNL     1      18.452  -1.822  54.769  1.00  0.00     0.156 HD
ENDBRANCH  19  23
ENDBRANCH  14  17
BRANCH   1  26
HETATM   26  N1  UNL     1      25.447   6.535  48.136  1.00  0.00    -0.285 N 
HETATM   27  H4  UNL     1      26.399   6.771  47.755  1.00  0.00     0.178 HD
BRANCH  26  28
HETATM   28  S1  UNL     1      24.038   7.360  47.572  1.00  0.00     0.227 S 
HETATM   29  C1  UNL     1      22.741   6.270  47.119  1.00  0.00     0.186 C 
HETATM   30  O1  UNL     1      24.466   8.173  46.368  1.00  0.00    -0.206 OA
HETATM   31  O2  UNL     1      23.601   8.336  48.623  1.00  0.00    -0.206 OA
ENDBRANCH  26  28
ENDBRANCH   1  26
TORSDOF 4
ENDMDL
