MODEL 1
REMARK VINA RESULT:      -9.5      0.000      0.000
REMARK  6 active torsions:
REMARK  status: ('A' for Active; 'I' for Inactive)
REMARK    1  A    between atoms: C2_2  and  C3_3 
REMARK    2  A    between atoms: C3_3  and  O1_4 
REMARK    3  A    between atoms: C3_3  and  C5_6 
REMARK    4  A    between atoms: N2_16  and  O2_17 
REMARK    5  A    between atoms: C15_19  and  C16_20 
REMARK    6  A    between atoms: C21_25  and  N3_26 
ROOT
HETATM    1  C5  UNL     1      20.947   1.932  52.072  1.00  0.00     0.025 C 
HETATM    2  C6  UNL     1      21.261   3.334  52.357  1.00  0.00     0.050 C 
HETATM    3  C7  UNL     1      22.308   4.281  52.332  1.00  0.00     0.150 A 
HETATM    4  C8  UNL     1      23.006   4.812  51.033  1.00  0.00     0.029 C 
HETATM    5  C9  UNL     1      22.902   3.572  50.584  1.00  0.00     0.041 C 
HETATM    6  N1  UNL     1      22.600   2.933  49.354  1.00  0.00    -0.390 N 
HETATM    7  C10 UNL     1      22.151   1.599  49.709  1.00  0.00     0.130 C 
HETATM    8  C11 UNL     1      21.878   1.342  51.028  1.00  0.00     0.052 C 
HETATM    9  C12 UNL     1      22.910   1.765  52.126  1.00  0.00    -0.023 C 
HETATM   10  C13 UNL     1      23.300   3.025  51.946  1.00  0.00     0.144 A 
HETATM   11  N2  UNL     1      23.616   4.116  52.889  1.00  0.00    -0.265 N 
HETATM   12  C14 UNL     1      22.793   0.640  53.082  1.00  0.00    -0.012 A 
HETATM   13  C15 UNL     1      23.706  -0.144  53.716  1.00  0.00    -0.013 A 
HETATM   14  C22 UNL     1      23.027  -1.002  54.588  1.00  0.00     0.013 A 
HETATM   15  C23 UNL     1      21.652  -0.963  54.702  1.00  0.00     0.002 A 
HETATM   16  C24 UNL     1      20.810  -0.121  54.009  1.00  0.00     0.009 A 
HETATM   17  C25 UNL     1      21.305   0.810  53.087  1.00  0.00    -0.035 A 
HETATM   18  H14 UNL     1      22.744   3.486  48.462  1.00  0.00     0.159 HD
ENDROOT
BRANCH  13  19
HETATM   19  C16 UNL     1      25.062   0.200  53.310  1.00  0.00     0.001 A 
HETATM   20  C17 UNL     1      25.439   0.687  52.076  1.00  0.00     0.014 A 
HETATM   21  C18 UNL     1      26.784   0.957  51.879  1.00  0.00     0.001 A 
HETATM   22  C19 UNL     1      27.695   0.741  52.886  1.00  0.00     0.002 A 
HETATM   23  C20 UNL     1      27.329   0.254  54.121  1.00  0.00     0.030 A 
HETATM   24  C21 UNL     1      25.979  -0.014  54.312  1.00  0.00     0.036 A 
BRANCH  24  25
HETATM   25  N3  UNL     1      25.668  -0.517  55.620  1.00  0.00    -0.398 N 
HETATM   26  H23 UNL     1      26.076   0.169  56.283  1.00  0.00     0.156 HD
HETATM   27  H24 UNL     1      25.165  -1.352  56.013  1.00  0.00     0.156 HD
ENDBRANCH  24  25
ENDBRANCH  13  19
BRANCH   1  28
HETATM   28  C3  UNL     1      19.533   1.719  51.734  1.00  0.00     0.134 C 
BRANCH  28  29
HETATM   29  C2  UNL     1      18.974   2.893  50.888  1.00  0.00     0.028 C 
HETATM   30  C1  UNL     1      17.745   3.489  51.515  1.00  0.00     0.007 C 
ENDBRANCH  28  29
BRANCH  28  31
HETATM   31  O1  UNL     1      19.336   0.624  50.908  1.00  0.00    -0.390 OA
HETATM   32  C4  UNL     1      18.238  -0.142  51.207  1.00  0.00     0.202 C 
ENDBRANCH  28  31
ENDBRANCH   1  28
BRANCH  11  33
HETATM   33  O2  UNL     1      24.168   4.968  53.769  1.00  0.00    -0.290 OA
HETATM   34  H18 UNL     1      24.509   5.782  53.323  1.00  0.00     0.244 HD
ENDBRANCH  11  33
TORSDOF 6
ENDMDL
MODEL 2
REMARK VINA RESULT:      -9.0      2.032      5.207
REMARK  6 active torsions:
REMARK  status: ('A' for Active; 'I' for Inactive)
REMARK    1  A    between atoms: C2_2  and  C3_3 
REMARK    2  A    between atoms: C3_3  and  O1_4 
REMARK    3  A    between atoms: C3_3  and  C5_6 
REMARK    4  A    between atoms: N2_16  and  O2_17 
REMARK    5  A    between atoms: C15_19  and  C16_20 
REMARK    6  A    between atoms: C21_25  and  N3_26 
ROOT
HETATM    1  C5  UNL     1      24.715   3.409  50.582  1.00  0.00     0.025 C 
HETATM    2  C6  UNL     1      23.828   3.207  49.433  1.00  0.00     0.050 C 
HETATM    3  C7  UNL     1      22.535   2.770  49.073  1.00  0.00     0.150 A 
HETATM    4  C8  UNL     1      21.203   3.503  49.456  1.00  0.00     0.029 C 
HETATM    5  C9  UNL     1      21.779   3.742  50.622  1.00  0.00     0.041 C 
HETATM    6  N1  UNL     1      21.848   4.814  51.548  1.00  0.00    -0.390 N 
HETATM    7  C10 UNL     1      23.057   4.586  52.317  1.00  0.00     0.130 C 
HETATM    8  C11 UNL     1      23.938   3.636  51.867  1.00  0.00     0.052 C 
HETATM    9  C12 UNL     1      23.405   2.223  51.455  1.00  0.00    -0.023 C 
HETATM   10  C13 UNL     1      22.352   2.333  50.649  1.00  0.00     0.144 A 
HETATM   11  N2  UNL     1      21.905   1.552  49.479  1.00  0.00    -0.265 N 
HETATM   12  C14 UNL     1      24.504   1.351  51.929  1.00  0.00    -0.012 A 
HETATM   13  C15 UNL     1      24.535   0.203  52.658  1.00  0.00    -0.013 A 
HETATM   14  C22 UNL     1      25.859  -0.243  52.730  1.00  0.00     0.013 A 
HETATM   15  C23 UNL     1      26.882   0.453  52.119  1.00  0.00     0.002 A 
HETATM   16  C24 UNL     1      26.743   1.618  51.395  1.00  0.00     0.009 A 
HETATM   17  C25 UNL     1      25.491   2.219  51.212  1.00  0.00    -0.035 A 
HETATM   18  H14 UNL     1      21.072   5.535  51.526  1.00  0.00     0.159 HD
ENDROOT
BRANCH  13  19
HETATM   19  C16 UNL     1      23.195  -0.191  53.072  1.00  0.00     0.001 A 
HETATM   20  C17 UNL     1      22.043  -0.048  52.326  1.00  0.00     0.014 A 
HETATM   21  C18 UNL     1      20.857  -0.484  52.894  1.00  0.00     0.001 A 
HETATM   22  C19 UNL     1      20.845  -1.036  54.153  1.00  0.00     0.002 A 
HETATM   23  C20 UNL     1      21.990  -1.182  54.906  1.00  0.00     0.030 A 
HETATM   24  C21 UNL     1      23.176  -0.743  54.331  1.00  0.00     0.036 A 
BRANCH  24  25
HETATM   25  N3  UNL     1      24.328  -0.926  55.167  1.00  0.00    -0.398 N 
HETATM   26  H23 UNL     1      24.280  -0.164  55.871  1.00  0.00     0.156 HD
HETATM   27  H24 UNL     1      25.133  -1.599  55.215  1.00  0.00     0.156 HD
ENDBRANCH  24  25
ENDBRANCH  13  19
BRANCH   1  28
HETATM   28  C3  UNL     1      25.720   4.456  50.352  1.00  0.00     0.134 C 
BRANCH  28  29
HETATM   29  C2  UNL     1      26.812   3.979  49.360  1.00  0.00     0.028 C 
HETATM   30  C1  UNL     1      27.434   5.134  48.626  1.00  0.00     0.007 C 
ENDBRANCH  28  29
BRANCH  28  31
HETATM   31  O1  UNL     1      25.198   5.574  49.721  1.00  0.00    -0.390 OA
HETATM   32  C4  UNL     1      25.203   6.723  50.472  1.00  0.00     0.202 C 
ENDBRANCH  28  31
ENDBRANCH   1  28
BRANCH  11  33
HETATM   33  O2  UNL     1      21.395   0.651  48.623  1.00  0.00    -0.290 OA
HETATM   34  H18 UNL     1      20.422   0.530  48.758  1.00  0.00     0.244 HD
ENDBRANCH  11  33
TORSDOF 6
ENDMDL
MODEL 3
REMARK VINA RESULT:      -8.9      5.969      9.544
REMARK  6 active torsions:
REMARK  status: ('A' for Active; 'I' for Inactive)
REMARK    1  A    between atoms: C2_2  and  C3_3 
REMARK    2  A    between atoms: C3_3  and  O1_4 
REMARK    3  A    between atoms: C3_3  and  C5_6 
REMARK    4  A    between atoms: N2_16  and  O2_17 
REMARK    5  A    between atoms: C15_19  and  C16_20 
REMARK    6  A    between atoms: C21_25  and  N3_26 
ROOT
HETATM    1  C5  UNL     1      27.923   7.431  48.093  1.00  0.00     0.025 C 
HETATM    2  C6  UNL     1      27.564   7.968  46.777  1.00  0.00     0.050 C 
HETATM    3  C7  UNL     1      26.538   8.637  46.076  1.00  0.00     0.150 A 
HETATM    4  C8  UNL     1      26.079  10.111  46.351  1.00  0.00     0.029 C 
HETATM    5  C9  UNL     1      26.259   9.829  47.631  1.00  0.00     0.041 C 
HETATM    6  N1  UNL     1      26.772  10.486  48.779  1.00  0.00    -0.390 N 
HETATM    7  C10 UNL     1      27.152   9.426  49.696  1.00  0.00     0.130 C 
HETATM    8  C11 UNL     1      27.189   8.142  49.216  1.00  0.00     0.052 C 
HETATM    9  C12 UNL     1      25.980   7.593  48.385  1.00  0.00    -0.023 C 
HETATM   10  C13 UNL     1      25.629   8.458  47.437  1.00  0.00     0.144 A 
HETATM   11  N2  UNL     1      25.153   8.280  46.051  1.00  0.00    -0.265 N 
HETATM   12  C14 UNL     1      25.928   6.187  48.847  1.00  0.00    -0.012 A 
HETATM   13  C15 UNL     1      24.918   5.383  49.275  1.00  0.00    -0.013 A 
HETATM   14  C22 UNL     1      25.433   4.102  49.500  1.00  0.00     0.013 A 
HETATM   15  C23 UNL     1      26.767   3.820  49.284  1.00  0.00     0.002 A 
HETATM   16  C24 UNL     1      27.718   4.715  48.843  1.00  0.00     0.009 A 
HETATM   17  C25 UNL     1      27.392   6.048  48.564  1.00  0.00    -0.035 A 
HETATM   18  H14 UNL     1      26.787  11.544  48.776  1.00  0.00     0.159 HD
ENDROOT
BRANCH  13  19
HETATM   19  C16 UNL     1      23.654   6.106  49.312  1.00  0.00     0.001 A 
HETATM   20  C17 UNL     1      22.742   6.196  48.281  1.00  0.00     0.014 A 
HETATM   21  C18 UNL     1      21.591   6.934  48.509  1.00  0.00     0.001 A 
HETATM   22  C19 UNL     1      21.382   7.546  49.721  1.00  0.00     0.002 A 
HETATM   23  C20 UNL     1      22.286   7.463  50.757  1.00  0.00     0.030 A 
HETATM   24  C21 UNL     1      23.438   6.722  50.522  1.00  0.00     0.036 A 
BRANCH  24  25
HETATM   25  N3  UNL     1      24.335   6.676  51.642  1.00  0.00    -0.398 N 
HETATM   26  H23 UNL     1      23.904   7.284  52.365  1.00  0.00     0.156 HD
HETATM   27  H24 UNL     1      25.248   6.206  51.865  1.00  0.00     0.156 HD
ENDBRANCH  24  25
ENDBRANCH  13  19
BRANCH   1  28
HETATM   28  C3  UNL     1      29.374   7.393  48.319  1.00  0.00     0.134 C 
BRANCH  28  29
HETATM   29  C2  UNL     1      30.106   6.671  47.158  1.00  0.00     0.028 C 
HETATM   30  C1  UNL     1      31.032   5.602  47.668  1.00  0.00     0.007 C 
ENDBRANCH  28  29
BRANCH  28  31
HETATM   31  O1  UNL     1      29.954   8.652  48.312  1.00  0.00    -0.390 OA
HETATM   32  C4  UNL     1      30.861   8.881  49.315  1.00  0.00     0.202 C 
ENDBRANCH  28  31
ENDBRANCH   1  28
BRANCH  11  33
HETATM   33  O2  UNL     1      24.456   8.065  44.923  1.00  0.00    -0.290 OA
HETATM   34  H18 UNL     1      23.506   7.862  45.115  1.00  0.00     0.244 HD
ENDBRANCH  11  33
TORSDOF 6
ENDMDL
MODEL 4
REMARK VINA RESULT:      -8.6      4.237      7.541
REMARK  6 active torsions:
REMARK  status: ('A' for Active; 'I' for Inactive)
REMARK    1  A    between atoms: C2_2  and  C3_3 
REMARK    2  A    between atoms: C3_3  and  O1_4 
REMARK    3  A    between atoms: C3_3  and  C5_6 
REMARK    4  A    between atoms: N2_16  and  O2_17 
REMARK    5  A    between atoms: C15_19  and  C16_20 
REMARK    6  A    between atoms: C21_25  and  N3_26 
ROOT
HETATM    1  C5  UNL     1      24.906   7.554  48.427  1.00  0.00     0.025 C 
HETATM    2  C6  UNL     1      23.957   7.568  47.311  1.00  0.00     0.050 C 
HETATM    3  C7  UNL     1      22.716   7.053  46.882  1.00  0.00     0.150 A 
HETATM    4  C8  UNL     1      21.331   7.396  47.531  1.00  0.00     0.029 C 
HETATM    5  C9  UNL     1      21.970   7.358  48.689  1.00  0.00     0.041 C 
HETATM    6  N1  UNL     1      21.964   8.089  49.905  1.00  0.00    -0.390 N 
HETATM    7  C10 UNL     1      23.259   7.841  50.512  1.00  0.00     0.130 C 
HETATM    8  C11 UNL     1      24.225   7.239  49.747  1.00  0.00     0.052 C 
HETATM    9  C12 UNL     1      23.870   5.953  48.929  1.00  0.00    -0.023 C 
HETATM   10  C13 UNL     1      22.743   6.127  48.243  1.00  0.00     0.144 A 
HETATM   11  N2  UNL     1      22.312   5.681  46.903  1.00  0.00    -0.265 N 
HETATM   12  C14 UNL     1      25.125   5.176  49.055  1.00  0.00    -0.012 A 
HETATM   13  C15 UNL     1      25.391   3.881  49.378  1.00  0.00    -0.013 A 
HETATM   14  C22 UNL     1      26.767   3.665  49.252  1.00  0.00     0.013 A 
HETATM   15  C23 UNL     1      27.616   4.678  48.854  1.00  0.00     0.002 A 
HETATM   16  C24 UNL     1      27.242   5.967  48.545  1.00  0.00     0.009 A 
HETATM   17  C25 UNL     1      25.904   6.376  48.613  1.00  0.00    -0.035 A 
HETATM   18  H14 UNL     1      21.092   8.639  50.145  1.00  0.00     0.159 HD
ENDROOT
BRANCH  13  19
HETATM   19  C16 UNL     1      24.167   3.160  49.698  1.00  0.00     0.001 A 
HETATM   20  C17 UNL     1      23.262   2.655  48.787  1.00  0.00     0.014 A 
HETATM   21  C18 UNL     1      22.152   1.996  49.288  1.00  0.00     0.001 A 
HETATM   22  C19 UNL     1      21.972   1.857  50.644  1.00  0.00     0.002 A 
HETATM   23  C20 UNL     1      22.869   2.358  51.562  1.00  0.00     0.030 A 
HETATM   24  C21 UNL     1      23.980   3.019  51.053  1.00  0.00     0.036 A 
BRANCH  24  25
HETATM   25  N3  UNL     1      24.873   3.514  52.063  1.00  0.00    -0.398 N 
HETATM   26  H23 UNL     1      24.577   4.494  52.235  1.00  0.00     0.156 HD
HETATM   27  H24 UNL     1      25.684   3.134  52.612  1.00  0.00     0.156 HD
ENDBRANCH  24  25
ENDBRANCH  13  19
BRANCH   1  28
HETATM   28  C3  UNL     1      25.721   8.774  48.503  1.00  0.00     0.134 C 
BRANCH  28  29
HETATM   29  C2  UNL     1      24.940  10.005  47.974  1.00  0.00     0.028 C 
HETATM   30  C1  UNL     1      25.754  10.794  46.987  1.00  0.00     0.007 C 
ENDBRANCH  28  29
BRANCH  28  31
HETATM   31  O1  UNL     1      26.024   9.139  49.806  1.00  0.00    -0.390 OA
HETATM   32  C4  UNL     1      27.350   9.400  50.044  1.00  0.00     0.202 C 
ENDBRANCH  28  31
ENDBRANCH   1  28
BRANCH  11  33
HETATM   33  O2  UNL     1      21.864   5.015  45.826  1.00  0.00    -0.290 OA
HETATM   34  H18 UNL     1      22.462   4.263  45.588  1.00  0.00     0.244 HD
ENDBRANCH  11  33
TORSDOF 6
ENDMDL
MODEL 5
REMARK VINA RESULT:      -8.6      2.115      5.931
REMARK  6 active torsions:
REMARK  status: ('A' for Active; 'I' for Inactive)
REMARK    1  A    between atoms: C2_2  and  C3_3 
REMARK    2  A    between atoms: C3_3  and  O1_4 
REMARK    3  A    between atoms: C3_3  and  C5_6 
REMARK    4  A    between atoms: N2_16  and  O2_17 
REMARK    5  A    between atoms: C15_19  and  C16_20 
REMARK    6  A    between atoms: C21_25  and  N3_26 
ROOT
HETATM    1  C5  UNL     1      24.136   1.889  52.233  1.00  0.00     0.025 C 
HETATM    2  C6  UNL     1      24.624   2.084  50.865  1.00  0.00     0.050 C 
HETATM    3  C7  UNL     1      24.371   2.791  49.670  1.00  0.00     0.150 A 
HETATM    4  C8  UNL     1      24.500   4.344  49.504  1.00  0.00     0.029 C 
HETATM    5  C9  UNL     1      23.989   4.423  50.721  1.00  0.00     0.041 C 
HETATM    6  N1  UNL     1      24.193   5.205  51.887  1.00  0.00    -0.390 N 
HETATM    7  C10 UNL     1      23.671   4.411  52.984  1.00  0.00     0.130 C 
HETATM    8  C11 UNL     1      23.367   3.096  52.740  1.00  0.00     0.052 C 
HETATM    9  C12 UNL     1      22.515   2.722  51.482  1.00  0.00    -0.023 C 
HETATM   10  C13 UNL     1      22.991   3.322  50.394  1.00  0.00     0.144 A 
HETATM   11  N2  UNL     1      23.117   2.888  48.989  1.00  0.00    -0.265 N 
HETATM   12  C14 UNL     1      21.692   1.609  52.011  1.00  0.00    -0.012 A 
HETATM   13  C15 UNL     1      20.363   1.326  51.959  1.00  0.00    -0.013 A 
HETATM   14  C22 UNL     1      20.149   0.080  52.558  1.00  0.00     0.013 A 
HETATM   15  C23 UNL     1      21.197  -0.650  53.081  1.00  0.00     0.002 A 
HETATM   16  C24 UNL     1      22.522  -0.270  53.082  1.00  0.00     0.009 A 
HETATM   17  C25 UNL     1      22.933   0.948  52.526  1.00  0.00    -0.035 A 
HETATM   18  H14 UNL     1      24.647   6.154  51.770  1.00  0.00     0.159 HD
ENDROOT
BRANCH  13  19
HETATM   19  C16 UNL     1      19.631   2.379  51.268  1.00  0.00     0.001 A 
HETATM   20  C17 UNL     1      19.067   3.493  51.855  1.00  0.00     0.014 A 
HETATM   21  C18 UNL     1      18.407   4.386  51.026  1.00  0.00     0.001 A 
HETATM   22  C19 UNL     1      18.326   4.157  49.673  1.00  0.00     0.002 A 
HETATM   23  C20 UNL     1      18.884   3.047  49.078  1.00  0.00     0.030 A 
HETATM   24  C21 UNL     1      19.544   2.155  49.914  1.00  0.00     0.036 A 
BRANCH  24  25
HETATM   25  N3  UNL     1      20.103   1.024  49.228  1.00  0.00    -0.398 N 
HETATM   26  H23 UNL     1      20.299   1.356  48.265  1.00  0.00     0.156 HD
HETATM   27  H24 UNL     1      20.331   0.027  49.469  1.00  0.00     0.156 HD
ENDBRANCH  24  25
ENDBRANCH  13  19
BRANCH   1  28
HETATM   28  C3  UNL     1      25.193   1.476  53.165  1.00  0.00     0.134 C 
BRANCH  28  29
HETATM   29  C2  UNL     1      26.188   0.496  52.490  1.00  0.00     0.028 C 
HETATM   30  C1  UNL     1      26.068  -0.891  53.056  1.00  0.00     0.007 C 
ENDBRANCH  28  29
BRANCH  28  31
HETATM   31  O1  UNL     1      26.011   2.526  53.551  1.00  0.00    -0.390 OA
HETATM   32  C4  UNL     1      27.358   2.283  53.454  1.00  0.00     0.202 C 
ENDBRANCH  28  31
ENDBRANCH   1  28
BRANCH  11  33
HETATM   33  O2  UNL     1      22.940   2.566  47.696  1.00  0.00    -0.290 OA
HETATM   34  H18 UNL     1      23.626   2.986  47.120  1.00  0.00     0.244 HD
ENDBRANCH  11  33
TORSDOF 6
ENDMDL
MODEL 6
REMARK VINA RESULT:      -8.2      3.488      6.483
REMARK  6 active torsions:
REMARK  status: ('A' for Active; 'I' for Inactive)
REMARK    1  A    between atoms: C2_2  and  C3_3 
REMARK    2  A    between atoms: C3_3  and  O1_4 
REMARK    3  A    between atoms: C3_3  and  C5_6 
REMARK    4  A    between atoms: N2_16  and  O2_17 
REMARK    5  A    between atoms: C15_19  and  C16_20 
REMARK    6  A    between atoms: C21_25  and  N3_26 
ROOT
HETATM    1  C5  UNL     1      22.865   3.340  49.594  1.00  0.00     0.025 C 
HETATM    2  C6  UNL     1      21.972   4.023  50.533  1.00  0.00     0.050 C 
HETATM    3  C7  UNL     1      21.250   5.219  50.733  1.00  0.00     0.150 A 
HETATM    4  C8  UNL     1      20.030   5.686  49.867  1.00  0.00     0.029 C 
HETATM    5  C9  UNL     1      20.698   5.199  48.834  1.00  0.00     0.041 C 
HETATM    6  N1  UNL     1      20.402   4.473  47.651  1.00  0.00    -0.390 N 
HETATM    7  C10 UNL     1      21.646   3.833  47.267  1.00  0.00     0.130 C 
HETATM    8  C11 UNL     1      22.678   3.834  48.170  1.00  0.00     0.052 C 
HETATM    9  C12 UNL     1      23.073   5.169  48.887  1.00  0.00    -0.023 C 
HETATM   10  C13 UNL     1      21.996   5.778  49.376  1.00  0.00     0.144 A 
HETATM   11  N2  UNL     1      21.761   6.550  50.612  1.00  0.00    -0.265 N 
HETATM   12  C14 UNL     1      24.546   5.033  48.958  1.00  0.00    -0.012 A 
HETATM   13  C15 UNL     1      25.575   5.869  48.655  1.00  0.00    -0.013 A 
HETATM   14  C22 UNL     1      26.776   5.244  49.008  1.00  0.00     0.013 A 
HETATM   15  C23 UNL     1      26.787   3.983  49.567  1.00  0.00     0.002 A 
HETATM   16  C24 UNL     1      25.677   3.212  49.837  1.00  0.00     0.009 A 
HETATM   17  C25 UNL     1      24.384   3.668  49.553  1.00  0.00    -0.035 A 
HETATM   18  H14 UNL     1      19.411   4.520  47.280  1.00  0.00     0.159 HD
ENDROOT
BRANCH  13  19
HETATM   19  C16 UNL     1      25.083   7.130  48.115  1.00  0.00     0.001 A 
HETATM   20  C17 UNL     1      24.723   7.363  46.804  1.00  0.00     0.014 A 
HETATM   21  C18 UNL     1      24.275   8.634  46.482  1.00  0.00     0.001 A 
HETATM   22  C19 UNL     1      24.199   9.614  47.443  1.00  0.00     0.002 A 
HETATM   23  C20 UNL     1      24.557   9.391  48.754  1.00  0.00     0.030 A 
HETATM   24  C21 UNL     1      25.005   8.115  49.071  1.00  0.00     0.036 A 
BRANCH  24  25
HETATM   25  N3  UNL     1      25.360   7.951  50.453  1.00  0.00    -0.398 N 
HETATM   26  H23 UNL     1      26.299   7.509  50.444  1.00  0.00     0.156 HD
HETATM   27  H24 UNL     1      24.916   8.161  51.381  1.00  0.00     0.156 HD
ENDBRANCH  24  25
ENDBRANCH  13  19
BRANCH   1  28
HETATM   28  C3  UNL     1      22.782   1.876  49.685  1.00  0.00     0.134 C 
BRANCH  28  29
HETATM   29  C2  UNL     1      22.313   1.426  51.093  1.00  0.00     0.028 C 
HETATM   30  C1  UNL     1      23.472   1.015  51.957  1.00  0.00     0.007 C 
ENDBRANCH  28  29
BRANCH  28  31
HETATM   31  O1  UNL     1      21.813   1.338  48.852  1.00  0.00    -0.390 OA
HETATM   32  C4  UNL     1      20.643   0.982  49.474  1.00  0.00     0.202 C 
ENDBRANCH  28  31
ENDBRANCH   1  28
BRANCH  11  33
HETATM   33  O2  UNL     1      21.677   7.476  51.582  1.00  0.00    -0.290 OA
HETATM   34  H18 UNL     1      20.798   7.930  51.577  1.00  0.00     0.244 HD
ENDBRANCH  11  33
TORSDOF 6
ENDMDL
MODEL 7
REMARK VINA RESULT:      -8.0      2.952      6.496
REMARK  6 active torsions:
REMARK  status: ('A' for Active; 'I' for Inactive)
REMARK    1  A    between atoms: C2_2  and  C3_3 
REMARK    2  A    between atoms: C3_3  and  O1_4 
REMARK    3  A    between atoms: C3_3  and  C5_6 
REMARK    4  A    between atoms: N2_16  and  O2_17 
REMARK    5  A    between atoms: C15_19  and  C16_20 
REMARK    6  A    between atoms: C21_25  and  N3_26 
ROOT
HETATM    1  C5  UNL     1      24.306   5.118  49.811  1.00  0.00     0.025 C 
HETATM    2  C6  UNL     1      23.866   5.191  48.415  1.00  0.00     0.050 C 
HETATM    3  C7  UNL     1      22.719   5.156  47.593  1.00  0.00     0.150 A 
HETATM    4  C8  UNL     1      21.592   6.246  47.580  1.00  0.00     0.029 C 
HETATM    5  C9  UNL     1      21.759   6.299  48.891  1.00  0.00     0.041 C 
HETATM    6  N1  UNL     1      21.784   7.300  49.897  1.00  0.00    -0.390 N 
HETATM    7  C10 UNL     1      22.529   6.722  51.000  1.00  0.00     0.130 C 
HETATM    8  C11 UNL     1      23.217   5.557  50.773  1.00  0.00     0.052 C 
HETATM    9  C12 UNL     1      22.500   4.365  50.054  1.00  0.00    -0.023 C 
HETATM   10  C13 UNL     1      21.875   4.784  48.957  1.00  0.00     0.144 A 
HETATM   11  N2  UNL     1      21.678   4.175  47.627  1.00  0.00    -0.265 N 
HETATM   12  C14 UNL     1      23.076   3.206  50.774  1.00  0.00    -0.012 A 
HETATM   13  C15 UNL     1      22.530   2.096  51.341  1.00  0.00    -0.013 A 
HETATM   14  C22 UNL     1      23.566   1.280  51.808  1.00  0.00     0.013 A 
HETATM   15  C23 UNL     1      24.888   1.647  51.659  1.00  0.00     0.002 A 
HETATM   16  C24 UNL     1      25.339   2.805  51.062  1.00  0.00     0.009 A 
HETATM   17  C25 UNL     1      24.450   3.748  50.532  1.00  0.00    -0.035 A 
HETATM   18  H14 UNL     1      21.296   8.217  49.692  1.00  0.00     0.159 HD
ENDROOT
BRANCH  13  19
HETATM   19  C16 UNL     1      21.078   2.113  51.231  1.00  0.00     0.001 A 
HETATM   20  C17 UNL     1      20.205   2.701  52.123  1.00  0.00     0.014 A 
HETATM   21  C18 UNL     1      18.851   2.611  51.845  1.00  0.00     0.001 A 
HETATM   22  C19 UNL     1      18.410   1.956  50.719  1.00  0.00     0.002 A 
HETATM   23  C20 UNL     1      19.273   1.365  49.823  1.00  0.00     0.030 A 
HETATM   24  C21 UNL     1      20.629   1.459  50.108  1.00  0.00     0.036 A 
BRANCH  24  25
HETATM   25  N3  UNL     1      21.471   0.823  49.134  1.00  0.00    -0.398 N 
HETATM   26  H23 UNL     1      22.154   1.549  48.845  1.00  0.00     0.156 HD
HETATM   27  H24 UNL     1      21.537  -0.128  48.692  1.00  0.00     0.156 HD
ENDBRANCH  24  25
ENDBRANCH  13  19
BRANCH   1  28
HETATM   28  C3  UNL     1      25.572   5.824  50.050  1.00  0.00     0.134 C 
BRANCH  28  29
HETATM   29  C2  UNL     1      26.428   5.896  48.759  1.00  0.00     0.028 C 
HETATM   30  C1  UNL     1      27.481   4.824  48.733  1.00  0.00     0.007 C 
ENDBRANCH  28  29
BRANCH  28  31
HETATM   31  O1  UNL     1      25.391   7.159  50.375  1.00  0.00    -0.390 OA
HETATM   32  C4  UNL     1      26.127   8.044  49.629  1.00  0.00     0.202 C 
ENDBRANCH  28  31
ENDBRANCH   1  28
BRANCH  11  33
HETATM   33  O2  UNL     1      21.280   3.468  46.555  1.00  0.00    -0.290 OA
HETATM   34  H18 UNL     1      21.127   2.517  46.783  1.00  0.00     0.244 HD
ENDBRANCH  11  33
TORSDOF 6
ENDMDL
MODEL 8
REMARK VINA RESULT:      -7.9      3.646      7.490
REMARK  6 active torsions:
REMARK  status: ('A' for Active; 'I' for Inactive)
REMARK    1  A    between atoms: C2_2  and  C3_3 
REMARK    2  A    between atoms: C3_3  and  O1_4 
REMARK    3  A    between atoms: C3_3  and  C5_6 
REMARK    4  A    between atoms: N2_16  and  O2_17 
REMARK    5  A    between atoms: C15_19  and  C16_20 
REMARK    6  A    between atoms: C21_25  and  N3_26 
ROOT
HETATM    1  C5  UNL     1      24.428   4.059  49.791  1.00  0.00     0.025 C 
HETATM    2  C6  UNL     1      25.556   4.864  49.315  1.00  0.00     0.050 C 
HETATM    3  C7  UNL     1      25.940   6.183  48.991  1.00  0.00     0.150 A 
HETATM    4  C8  UNL     1      26.059   7.360  50.019  1.00  0.00     0.029 C 
HETATM    5  C9  UNL     1      24.977   6.851  50.585  1.00  0.00     0.041 C 
HETATM    6  N1  UNL     1      24.493   6.640  51.902  1.00  0.00    -0.390 N 
HETATM    7  C10 UNL     1      23.510   5.578  51.789  1.00  0.00     0.130 C 
HETATM    8  C11 UNL     1      23.448   4.880  50.610  1.00  0.00     0.052 C 
HETATM    9  C12 UNL     1      23.412   5.660  49.252  1.00  0.00    -0.023 C 
HETATM   10  C13 UNL     1      24.361   6.591  49.218  1.00  0.00     0.144 A 
HETATM   11  N2  UNL     1      25.234   7.087  48.136  1.00  0.00    -0.265 N 
HETATM   12  C14 UNL     1      22.491   4.814  48.458  1.00  0.00    -0.012 A 
HETATM   13  C15 UNL     1      21.408   5.088  47.683  1.00  0.00    -0.013 A 
HETATM   14  C22 UNL     1      20.972   3.899  47.090  1.00  0.00     0.013 A 
HETATM   15  C23 UNL     1      21.619   2.703  47.327  1.00  0.00     0.002 A 
HETATM   16  C24 UNL     1      22.720   2.531  48.137  1.00  0.00     0.009 A 
HETATM   17  C25 UNL     1      23.302   3.608  48.818  1.00  0.00    -0.035 A 
HETATM   18  H14 UNL     1      24.892   7.242  52.676  1.00  0.00     0.159 HD
ENDROOT
BRANCH  13  19
HETATM   19  C16 UNL     1      21.101   6.512  47.699  1.00  0.00     0.001 A 
HETATM   20  C17 UNL     1      21.649   7.468  46.868  1.00  0.00     0.014 A 
HETATM   21  C18 UNL     1      21.228   8.777  47.036  1.00  0.00     0.001 A 
HETATM   22  C19 UNL     1      20.300   9.096  47.999  1.00  0.00     0.002 A 
HETATM   23  C20 UNL     1      19.748   8.149  48.834  1.00  0.00     0.030 A 
HETATM   24  C21 UNL     1      20.174   6.838  48.660  1.00  0.00     0.036 A 
BRANCH  24  25
HETATM   25  N3  UNL     1      19.558   5.905  49.561  1.00  0.00    -0.398 N 
HETATM   26  H23 UNL     1      20.314   5.611  50.210  1.00  0.00     0.156 HD
HETATM   27  H24 UNL     1      18.601   5.494  49.692  1.00  0.00     0.156 HD
ENDBRANCH  24  25
ENDBRANCH  13  19
BRANCH   1  28
HETATM   28  C3  UNL     1      24.850   2.840  50.495  1.00  0.00     0.134 C 
BRANCH  28  29
HETATM   29  C2  UNL     1      26.302   2.971  51.024  1.00  0.00     0.028 C 
HETATM   30  C1  UNL     1      26.794   1.678  51.613  1.00  0.00     0.007 C 
ENDBRANCH  28  29
BRANCH  28  31
HETATM   31  O1  UNL     1      24.122   2.607  51.651  1.00  0.00    -0.390 OA
HETATM   32  C4  UNL     1      23.406   1.437  51.662  1.00  0.00     0.202 C 
ENDBRANCH  28  31
ENDBRANCH   1  28
BRANCH  11  33
HETATM   33  O2  UNL     1      25.786   7.698  47.074  1.00  0.00    -0.290 OA
HETATM   34  H18 UNL     1      26.486   8.342  47.347  1.00  0.00     0.244 HD
ENDBRANCH  11  33
TORSDOF 6
ENDMDL
MODEL 9
REMARK VINA RESULT:      -7.8      8.945     11.344
REMARK  6 active torsions:
REMARK  status: ('A' for Active; 'I' for Inactive)
REMARK    1  A    between atoms: C2_2  and  C3_3 
REMARK    2  A    between atoms: C3_3  and  O1_4 
REMARK    3  A    between atoms: C3_3  and  C5_6 
REMARK    4  A    between atoms: N2_16  and  O2_17 
REMARK    5  A    between atoms: C15_19  and  C16_20 
REMARK    6  A    between atoms: C21_25  and  N3_26 
ROOT
HETATM    1  C5  UNL     1      27.804   8.033  47.827  1.00  0.00     0.025 C 
HETATM    2  C6  UNL     1      27.862   9.139  48.787  1.00  0.00     0.050 C 
HETATM    3  C7  UNL     1      28.439  10.408  49.009  1.00  0.00     0.150 A 
HETATM    4  C8  UNL     1      28.131  11.693  48.166  1.00  0.00     0.029 C 
HETATM    5  C9  UNL     1      28.108  10.885  47.118  1.00  0.00     0.041 C 
HETATM    6  N1  UNL     1      27.341  10.739  45.933  1.00  0.00    -0.390 N 
HETATM    7  C10 UNL     1      27.518   9.359  45.524  1.00  0.00     0.130 C 
HETATM    8  C11 UNL     1      28.105   8.493  46.412  1.00  0.00     0.052 C 
HETATM    9  C12 UNL     1      29.429   8.911  47.136  1.00  0.00    -0.023 C 
HETATM   10  C13 UNL     1      29.321  10.135  47.646  1.00  0.00     0.144 A 
HETATM   11  N2  UNL     1      29.825  10.743  48.893  1.00  0.00    -0.265 N 
HETATM   12  C14 UNL     1      30.152   7.619  47.182  1.00  0.00    -0.012 A 
HETATM   13  C15 UNL     1      31.424   7.250  46.872  1.00  0.00    -0.013 A 
HETATM   14  C22 UNL     1      31.590   5.901  47.200  1.00  0.00     0.013 A 
HETATM   15  C23 UNL     1      30.557   5.167  47.747  1.00  0.00     0.002 A 
HETATM   16  C24 UNL     1      29.293   5.639  48.027  1.00  0.00     0.009 A 
HETATM   17  C25 UNL     1      28.936   6.969  47.766  1.00  0.00    -0.035 A 
HETATM   18  H14 UNL     1      26.818  11.588  45.577  1.00  0.00     0.159 HD
ENDROOT
BRANCH  13  19
HETATM   19  C16 UNL     1      32.183   8.380  46.352  1.00  0.00     0.001 A 
HETATM   20  C17 UNL     1      32.913   9.279  47.102  1.00  0.00     0.014 A 
HETATM   21  C18 UNL     1      33.571  10.291  46.422  1.00  0.00     0.001 A 
HETATM   22  C19 UNL     1      33.489  10.383  45.053  1.00  0.00     0.002 A 
HETATM   23  C20 UNL     1      32.761   9.492  44.295  1.00  0.00     0.030 A 
HETATM   24  C21 UNL     1      32.104   8.479  44.983  1.00  0.00     0.036 A 
BRANCH  24  25
HETATM   25  N3  UNL     1      31.367   7.586  44.133  1.00  0.00    -0.398 N 
HETATM   26  H23 UNL     1      30.833   8.199  43.488  1.00  0.00     0.156 HD
HETATM   27  H24 UNL     1      31.261   6.545  44.035  1.00  0.00     0.156 HD
ENDBRANCH  24  25
ENDBRANCH  13  19
BRANCH   1  28
HETATM   28  C3  UNL     1      26.551   7.271  47.905  1.00  0.00     0.134 C 
BRANCH  28  29
HETATM   29  C2  UNL     1      26.382   6.608  49.297  1.00  0.00     0.028 C 
HETATM   30  C1  UNL     1      25.918   5.183  49.179  1.00  0.00     0.007 C 
ENDBRANCH  28  29
BRANCH  28  31
HETATM   31  O1  UNL     1      25.425   8.073  47.809  1.00  0.00    -0.390 OA
HETATM   32  C4  UNL     1      24.499   7.668  46.882  1.00  0.00     0.202 C 
ENDBRANCH  28  31
ENDBRANCH   1  28
BRANCH  11  33
HETATM   33  O2  UNL     1      30.540  11.319  49.874  1.00  0.00    -0.290 OA
HETATM   34  H18 UNL     1      30.499  12.307  49.823  1.00  0.00     0.244 HD
ENDBRANCH  11  33
TORSDOF 6
ENDMDL
