MODEL 1
REMARK VINA RESULT:      -7.5      0.000      0.000
REMARK  6 active torsions:
REMARK  status: ('A' for Active; 'I' for Inactive)
REMARK    1  A    between atoms: C3_3  and  C5_5 
REMARK    2  A    between atoms: C11_11  and  C12_12 
REMARK    3  A    between atoms: C13_13  and  C14_14 
REMARK    4  A    between atoms: C15_15  and  C16_16 
REMARK    5  A    between atoms: C17_17  and  O1_18 
REMARK    6  A    between atoms: S1_19  and  C18_21 
ROOT
HETATM    1  C5  UNL     1      26.402   1.406  52.432  1.00  0.00    -0.030 A 
HETATM    2  C6  UNL     1      25.333   1.788  53.213  1.00  0.00     0.014 A 
HETATM    3  C7  UNL     1      24.382   2.754  52.855  1.00  0.00     0.038 A 
HETATM    4  C8  UNL     1      24.632   3.311  51.592  1.00  0.00     0.079 A 
HETATM    5  C9  UNL     1      25.657   2.988  50.770  1.00  0.00     0.009 A 
HETATM    6  C10 UNL     1      26.551   2.019  51.207  1.00  0.00     0.025 A 
HETATM    7  C11 UNL     1      25.155   3.968  49.796  1.00  0.00     0.187 A 
HETATM    8  O3  UNL     1      24.134   4.228  50.710  1.00  0.00    -0.337 OA
ENDROOT
BRANCH   7   9
HETATM    9  C12 UNL     1      26.024   5.163  49.594  1.00  0.00     0.007 C 
HETATM   10  C13 UNL     1      26.914   5.075  48.580  1.00  0.00    -0.009 C 
BRANCH  10  11
HETATM   11  C14 UNL     1      27.640   6.331  48.566  1.00  0.00     0.127 A 
HETATM   12  C15 UNL     1      28.004   7.505  48.714  1.00  0.00     0.141 A 
HETATM   13  S1  UNL     1      29.356   6.769  47.833  1.00  0.00    -0.021 S 
HETATM   14  O2  UNL     1      29.629   7.427  46.511  1.00  0.00    -0.268 OA
BRANCH  12  15
HETATM   15  C16 UNL     1      28.059   8.863  49.069  1.00  0.00    -0.049 C 
HETATM   16  C17 UNL     1      28.125   9.964  49.357  1.00  0.00     0.053 C 
BRANCH  16  17
HETATM   17  O1  UNL     1      28.213  11.260  49.716  1.00  0.00    -0.314 OA
HETATM   18  H15 UNL     1      27.954  11.580  50.652  1.00  0.00     0.230 HD
ENDBRANCH  16  17
ENDBRANCH  12  15
BRANCH  13  19
HETATM   19  C18 UNL     1      30.847   6.876  48.871  1.00  0.00     0.094 C 
HETATM   20  C19 UNL     1      31.661   8.079  48.462  1.00  0.00     0.017 C 
ENDBRANCH  13  19
ENDBRANCH  10  11
ENDBRANCH   7   9
BRANCH   1  21
HETATM   21  C3  UNL     1      27.360   0.393  52.850  1.00  0.00    -0.056 C 
HETATM   22  C2  UNL     1      28.516   0.721  53.405  1.00  0.00    -0.023 C 
HETATM   23  C1  UNL     1      29.448  -0.390  53.800  1.00  0.00     0.036 C 
HETATM   24  C4  UNL     1      27.197  -1.076  52.716  1.00  0.00     0.049 C 
ENDBRANCH   1  21
TORSDOF 6
ENDMDL
MODEL 2
REMARK VINA RESULT:      -7.2      2.727      3.707
REMARK  6 active torsions:
REMARK  status: ('A' for Active; 'I' for Inactive)
REMARK    1  A    between atoms: C3_3  and  C5_5 
REMARK    2  A    between atoms: C11_11  and  C12_12 
REMARK    3  A    between atoms: C13_13  and  C14_14 
REMARK    4  A    between atoms: C15_15  and  C16_16 
REMARK    5  A    between atoms: C17_17  and  O1_18 
REMARK    6  A    between atoms: S1_19  and  C18_21 
ROOT
HETATM    1  C5  UNL     1      26.425   0.276  53.094  1.00  0.00    -0.030 A 
HETATM    2  C6  UNL     1      25.276   0.002  53.802  1.00  0.00     0.014 A 
HETATM    3  C7  UNL     1      23.990   0.435  53.447  1.00  0.00     0.038 A 
HETATM    4  C8  UNL     1      23.989   1.197  52.269  1.00  0.00     0.079 A 
HETATM    5  C9  UNL     1      25.073   1.508  51.521  1.00  0.00     0.009 A 
HETATM    6  C10 UNL     1      26.306   1.033  51.950  1.00  0.00     0.025 A 
HETATM    7  C11 UNL     1      24.197   2.244  50.598  1.00  0.00     0.187 A 
HETATM    8  O3  UNL     1      23.144   1.869  51.432  1.00  0.00    -0.337 OA
ENDROOT
BRANCH   7   9
HETATM    9  C12 UNL     1      24.387   3.722  50.589  1.00  0.00     0.007 C 
HETATM   10  C13 UNL     1      24.860   4.246  49.435  1.00  0.00    -0.009 C 
BRANCH  10  11
HETATM   11  C14 UNL     1      24.963   5.677  49.649  1.00  0.00     0.127 A 
HETATM   12  C15 UNL     1      25.356   6.827  49.886  1.00  0.00     0.141 A 
HETATM   13  S1  UNL     1      23.633   7.052  49.532  1.00  0.00    -0.021 S 
HETATM   14  O2  UNL     1      22.869   7.665  50.671  1.00  0.00    -0.268 OA
BRANCH  12  15
HETATM   15  C16 UNL     1      26.153   7.938  50.207  1.00  0.00    -0.049 C 
HETATM   16  C17 UNL     1      26.783   8.848  50.476  1.00  0.00     0.053 C 
BRANCH  16  17
HETATM   17  O1  UNL     1      27.516   9.938  50.782  1.00  0.00    -0.314 OA
HETATM   18  H15 UNL     1      27.289  10.535  51.581  1.00  0.00     0.230 HD
ENDBRANCH  16  17
ENDBRANCH  12  15
BRANCH  13  19
HETATM   19  C18 UNL     1      23.479   8.121  48.068  1.00  0.00     0.094 C 
HETATM   20  C19 UNL     1      23.449   7.269  46.823  1.00  0.00     0.017 C 
ENDBRANCH  13  19
ENDBRANCH  10  11
ENDBRANCH   7   9
BRANCH   1  21
HETATM   21  C3  UNL     1      27.737  -0.203  53.506  1.00  0.00    -0.056 C 
HETATM   22  C2  UNL     1      28.239  -1.334  53.037  1.00  0.00    -0.023 C 
HETATM   23  C1  UNL     1      29.598  -1.756  53.521  1.00  0.00     0.036 C 
HETATM   24  C4  UNL     1      28.653   0.465  54.463  1.00  0.00     0.049 C 
ENDBRANCH   1  21
TORSDOF 6
ENDMDL
MODEL 3
REMARK VINA RESULT:      -7.0      1.498      2.509
REMARK  6 active torsions:
REMARK  status: ('A' for Active; 'I' for Inactive)
REMARK    1  A    between atoms: C3_3  and  C5_5 
REMARK    2  A    between atoms: C11_11  and  C12_12 
REMARK    3  A    between atoms: C13_13  and  C14_14 
REMARK    4  A    between atoms: C15_15  and  C16_16 
REMARK    5  A    between atoms: C17_17  and  O1_18 
REMARK    6  A    between atoms: S1_19  and  C18_21 
ROOT
HETATM    1  C5  UNL     1      26.297   1.235  52.425  1.00  0.00    -0.030 A 
HETATM    2  C6  UNL     1      25.261   1.632  53.241  1.00  0.00     0.014 A 
HETATM    3  C7  UNL     1      24.353   2.659  52.945  1.00  0.00     0.038 A 
HETATM    4  C8  UNL     1      24.611   3.261  51.704  1.00  0.00     0.079 A 
HETATM    5  C9  UNL     1      25.606   2.927  50.850  1.00  0.00     0.009 A 
HETATM    6  C10 UNL     1      26.457   1.896  51.227  1.00  0.00     0.025 A 
HETATM    7  C11 UNL     1      25.139   3.974  49.931  1.00  0.00     0.187 A 
HETATM    8  O3  UNL     1      24.146   4.241  50.874  1.00  0.00    -0.337 OA
ENDROOT
BRANCH   7   9
HETATM    9  C12 UNL     1      26.062   5.133  49.768  1.00  0.00     0.007 C 
HETATM   10  C13 UNL     1      25.832   5.920  48.692  1.00  0.00    -0.009 C 
BRANCH  10  11
HETATM   11  C14 UNL     1      26.833   6.970  48.734  1.00  0.00     0.127 A 
HETATM   12  C15 UNL     1      27.884   7.623  48.707  1.00  0.00     0.141 A 
HETATM   13  S1  UNL     1      26.649   8.854  49.031  1.00  0.00    -0.021 S 
HETATM   14  O2  UNL     1      26.868   9.587  50.323  1.00  0.00    -0.268 OA
BRANCH  12  15
HETATM   15  C16 UNL     1      29.233   7.998  48.604  1.00  0.00    -0.049 C 
HETATM   16  C17 UNL     1      30.323   8.323  48.523  1.00  0.00     0.053 C 
BRANCH  16  17
HETATM   17  O1  UNL     1      31.606   8.720  48.410  1.00  0.00    -0.314 OA
HETATM   18  H15 UNL     1      31.891   9.686  48.587  1.00  0.00     0.230 HD
ENDBRANCH  16  17
ENDBRANCH  12  15
BRANCH  13  19
HETATM   19  C18 UNL     1      26.653  10.049  47.659  1.00  0.00     0.094 C 
HETATM   20  C19 UNL     1      25.662   9.613  46.608  1.00  0.00     0.017 C 
ENDBRANCH  13  19
ENDBRANCH  10  11
ENDBRANCH   7   9
BRANCH   1  21
HETATM   21  C3  UNL     1      27.210   0.158  52.779  1.00  0.00    -0.056 C 
HETATM   22  C2  UNL     1      28.405   0.404  53.293  1.00  0.00    -0.023 C 
HETATM   23  C1  UNL     1      29.285  -0.768  53.624  1.00  0.00     0.036 C 
HETATM   24  C4  UNL     1      26.956  -1.296  52.619  1.00  0.00     0.049 C 
ENDBRANCH   1  21
TORSDOF 6
ENDMDL
MODEL 4
REMARK VINA RESULT:      -6.9      3.514      6.621
REMARK  6 active torsions:
REMARK  status: ('A' for Active; 'I' for Inactive)
REMARK    1  A    between atoms: C3_3  and  C5_5 
REMARK    2  A    between atoms: C11_11  and  C12_12 
REMARK    3  A    between atoms: C13_13  and  C14_14 
REMARK    4  A    between atoms: C15_15  and  C16_16 
REMARK    5  A    between atoms: C17_17  and  O1_18 
REMARK    6  A    between atoms: S1_19  and  C18_21 
ROOT
HETATM    1  C5  UNL     1      26.451   6.394  49.347  1.00  0.00    -0.030 A 
HETATM    2  C6  UNL     1      26.469   7.664  49.880  1.00  0.00     0.014 A 
HETATM    3  C7  UNL     1      27.378   8.671  49.528  1.00  0.00     0.038 A 
HETATM    4  C8  UNL     1      28.294   8.248  48.553  1.00  0.00     0.079 A 
HETATM    5  C9  UNL     1      28.340   7.022  47.984  1.00  0.00     0.009 A 
HETATM    6  C10 UNL     1      27.398   6.087  48.395  1.00  0.00     0.025 A 
HETATM    7  C11 UNL     1      29.490   7.462  47.180  1.00  0.00     0.187 A 
HETATM    8  O3  UNL     1      29.358   8.694  47.821  1.00  0.00    -0.337 OA
ENDROOT
BRANCH   7   9
HETATM    9  C12 UNL     1      30.786   6.807  47.517  1.00  0.00     0.007 C 
HETATM   10  C13 UNL     1      31.631   6.611  46.479  1.00  0.00    -0.009 C 
BRANCH  10  11
HETATM   11  C14 UNL     1      32.811   5.972  47.030  1.00  0.00     0.127 A 
HETATM   12  C15 UNL     1      33.830   5.693  47.675  1.00  0.00     0.141 A 
HETATM   13  S1  UNL     1      33.603   4.271  46.639  1.00  0.00    -0.021 S 
HETATM   14  O2  UNL     1      34.769   4.009  45.729  1.00  0.00    -0.268 OA
BRANCH  12  15
HETATM   15  C16 UNL     1      34.913   5.739  48.568  1.00  0.00    -0.049 C 
HETATM   16  C17 UNL     1      35.788   5.797  49.295  1.00  0.00     0.053 C 
BRANCH  16  17
HETATM   17  O1  UNL     1      36.834   5.880  50.142  1.00  0.00    -0.314 OA
HETATM   18  H15 UNL     1      37.657   5.280  50.045  1.00  0.00     0.230 HD
ENDBRANCH  16  17
ENDBRANCH  12  15
BRANCH  13  19
HETATM   19  C18 UNL     1      33.338   2.819  47.702  1.00  0.00     0.094 C 
HETATM   20  C19 UNL     1      32.555   1.775  46.944  1.00  0.00     0.017 C 
ENDBRANCH  13  19
ENDBRANCH  10  11
ENDBRANCH   7   9
BRANCH   1  21
HETATM   21  C3  UNL     1      25.481   5.384  49.746  1.00  0.00    -0.056 C 
HETATM   22  C2  UNL     1      25.731   4.092  49.611  1.00  0.00    -0.023 C 
HETATM   23  C1  UNL     1      24.670   3.120  50.044  1.00  0.00     0.036 C 
HETATM   24  C4  UNL     1      24.139   5.640  50.327  1.00  0.00     0.049 C 
ENDBRANCH   1  21
TORSDOF 6
ENDMDL
MODEL 5
REMARK VINA RESULT:      -6.8      2.128      3.526
REMARK  6 active torsions:
REMARK  status: ('A' for Active; 'I' for Inactive)
REMARK    1  A    between atoms: C3_3  and  C5_5 
REMARK    2  A    between atoms: C11_11  and  C12_12 
REMARK    3  A    between atoms: C13_13  and  C14_14 
REMARK    4  A    between atoms: C15_15  and  C16_16 
REMARK    5  A    between atoms: C17_17  and  O1_18 
REMARK    6  A    between atoms: S1_19  and  C18_21 
ROOT
HETATM    1  C5  UNL     1      24.251   2.537  51.998  1.00  0.00    -0.030 A 
HETATM    2  C6  UNL     1      23.678   3.600  52.660  1.00  0.00     0.014 A 
HETATM    3  C7  UNL     1      23.633   4.916  52.179  1.00  0.00     0.038 A 
HETATM    4  C8  UNL     1      24.248   5.049  50.926  1.00  0.00     0.079 A 
HETATM    5  C9  UNL     1      24.832   4.056  50.216  1.00  0.00     0.009 A 
HETATM    6  C10 UNL     1      24.827   2.782  50.771  1.00  0.00     0.025 A 
HETATM    7  C11 UNL     1      25.158   5.029  49.163  1.00  0.00     0.187 A 
HETATM    8  O3  UNL     1      24.532   5.981  49.967  1.00  0.00    -0.337 OA
ENDROOT
BRANCH   7   9
HETATM    9  C12 UNL     1      26.611   5.321  49.000  1.00  0.00     0.007 C 
HETATM   10  C13 UNL     1      26.911   6.371  48.202  1.00  0.00    -0.009 C 
BRANCH  10  11
HETATM   11  C14 UNL     1      28.359   6.472  48.190  1.00  0.00     0.127 A 
HETATM   12  C15 UNL     1      29.575   6.241  48.207  1.00  0.00     0.141 A 
HETATM   13  S1  UNL     1      29.498   8.005  48.039  1.00  0.00    -0.021 S 
HETATM   14  O2  UNL     1      30.177   8.737  49.162  1.00  0.00    -0.268 OA
BRANCH  12  15
HETATM   15  C16 UNL     1      30.822   5.599  48.260  1.00  0.00    -0.049 C 
HETATM   16  C17 UNL     1      31.830   5.070  48.323  1.00  0.00     0.053 C 
BRANCH  16  17
HETATM   17  O1  UNL     1      33.027   4.457  48.415  1.00  0.00    -0.314 OA
HETATM   18  H15 UNL     1      33.671   4.408  47.622  1.00  0.00     0.230 HD
ENDBRANCH  16  17
ENDBRANCH  12  15
BRANCH  13  19
HETATM   19  C18 UNL     1      30.283   8.470  46.465  1.00  0.00     0.094 C 
HETATM   20  C19 UNL     1      29.288   8.315  45.341  1.00  0.00     0.017 C 
ENDBRANCH  13  19
ENDBRANCH  10  11
ENDBRANCH   7   9
BRANCH   1  21
HETATM   21  C3  UNL     1      24.266   1.186  52.541  1.00  0.00    -0.056 C 
HETATM   22  C2  UNL     1      23.183   0.641  53.071  1.00  0.00    -0.023 C 
HETATM   23  C1  UNL     1      23.290  -0.757  53.613  1.00  0.00     0.036 C 
HETATM   24  C4  UNL     1      25.435   0.272  52.586  1.00  0.00     0.049 C 
ENDBRANCH   1  21
TORSDOF 6
ENDMDL
MODEL 6
REMARK VINA RESULT:      -6.7      3.774      8.756
REMARK  6 active torsions:
REMARK  status: ('A' for Active; 'I' for Inactive)
REMARK    1  A    between atoms: C3_3  and  C5_5 
REMARK    2  A    between atoms: C11_11  and  C12_12 
REMARK    3  A    between atoms: C13_13  and  C14_14 
REMARK    4  A    between atoms: C15_15  and  C16_16 
REMARK    5  A    between atoms: C17_17  and  O1_18 
REMARK    6  A    between atoms: S1_19  and  C18_21 
ROOT
HETATM    1  C5  UNL     1      25.920   6.772  48.431  1.00  0.00    -0.030 A 
HETATM    2  C6  UNL     1      24.738   6.968  47.752  1.00  0.00     0.014 A 
HETATM    3  C7  UNL     1      23.463   6.674  48.257  1.00  0.00     0.038 A 
HETATM    4  C8  UNL     1      23.510   6.145  49.555  1.00  0.00     0.079 A 
HETATM    5  C9  UNL     1      24.629   5.923  50.284  1.00  0.00     0.009 A 
HETATM    6  C10 UNL     1      25.849   6.246  49.702  1.00  0.00     0.025 A 
HETATM    7  C11 UNL     1      23.790   5.415  51.378  1.00  0.00     0.187 A 
HETATM    8  O3  UNL     1      22.698   5.683  50.552  1.00  0.00    -0.337 OA
ENDROOT
BRANCH   7   9
HETATM    9  C12 UNL     1      23.922   3.956  51.654  1.00  0.00     0.007 C 
HETATM   10  C13 UNL     1      23.784   3.589  52.948  1.00  0.00    -0.009 C 
BRANCH  10  11
HETATM   11  C14 UNL     1      23.946   2.147  52.982  1.00  0.00     0.127 A 
HETATM   12  C15 UNL     1      24.393   0.993  53.019  1.00  0.00     0.141 A 
HETATM   13  S1  UNL     1      22.636   0.748  52.985  1.00  0.00    -0.021 S 
HETATM   14  O2  UNL     1      22.173  -0.054  51.803  1.00  0.00    -0.268 OA
BRANCH  12  15
HETATM   15  C16 UNL     1      25.251  -0.117  53.066  1.00  0.00    -0.049 C 
HETATM   16  C17 UNL     1      25.934  -1.029  53.094  1.00  0.00     0.053 C 
BRANCH  16  17
HETATM   17  O1  UNL     1      26.726  -2.119  53.138  1.00  0.00    -0.314 OA
HETATM   18  H15 UNL     1      26.705  -2.771  53.925  1.00  0.00     0.230 HD
ENDBRANCH  16  17
ENDBRANCH  12  15
BRANCH  13  19
HETATM   19  C18 UNL     1      22.143  -0.105  54.514  1.00  0.00     0.094 C 
HETATM   20  C19 UNL     1      21.874  -1.559  54.216  1.00  0.00     0.017 C 
ENDBRANCH  13  19
ENDBRANCH  10  11
ENDBRANCH   7   9
BRANCH   1  21
HETATM   21  C3  UNL     1      27.219   7.099  47.860  1.00  0.00    -0.056 C 
HETATM   22  C2  UNL     1      28.293   6.371  48.123  1.00  0.00    -0.023 C 
HETATM   23  C1  UNL     1      29.595   6.784  47.496  1.00  0.00     0.036 C 
HETATM   24  C4  UNL     1      27.519   8.237  46.956  1.00  0.00     0.049 C 
ENDBRANCH   1  21
TORSDOF 6
ENDMDL
MODEL 7
REMARK VINA RESULT:      -6.7      5.268      9.378
REMARK  6 active torsions:
REMARK  status: ('A' for Active; 'I' for Inactive)
REMARK    1  A    between atoms: C3_3  and  C5_5 
REMARK    2  A    between atoms: C11_11  and  C12_12 
REMARK    3  A    between atoms: C13_13  and  C14_14 
REMARK    4  A    between atoms: C15_15  and  C16_16 
REMARK    5  A    between atoms: C17_17  and  O1_18 
REMARK    6  A    between atoms: S1_19  and  C18_21 
ROOT
HETATM    1  C5  UNL     1      26.526   0.894  52.346  1.00  0.00    -0.030 A 
HETATM    2  C6  UNL     1      26.718   1.626  51.195  1.00  0.00     0.014 A 
HETATM    3  C7  UNL     1      25.810   2.560  50.677  1.00  0.00     0.038 A 
HETATM    4  C8  UNL     1      24.656   2.679  51.465  1.00  0.00     0.079 A 
HETATM    5  C9  UNL     1      24.396   1.997  52.604  1.00  0.00     0.009 A 
HETATM    6  C10 UNL     1      25.355   1.092  53.043  1.00  0.00     0.025 A 
HETATM    7  C11 UNL     1      23.110   2.701  52.707  1.00  0.00     0.187 A 
HETATM    8  O3  UNL     1      23.470   3.355  51.529  1.00  0.00    -0.337 OA
ENDROOT
BRANCH   7   9
HETATM    9  C12 UNL     1      21.903   1.848  52.511  1.00  0.00     0.007 C 
HETATM   10  C13 UNL     1      20.715   2.452  52.738  1.00  0.00    -0.009 C 
BRANCH  10  11
HETATM   11  C14 UNL     1      19.695   1.451  52.489  1.00  0.00     0.127 A 
HETATM   12  C15 UNL     1      18.949   0.464  52.537  1.00  0.00     0.141 A 
HETATM   13  S1  UNL     1      18.364   1.346  51.114  1.00  0.00    -0.021 S 
HETATM   14  O2  UNL     1      18.439   0.544  49.846  1.00  0.00    -0.268 OA
BRANCH  12  15
HETATM   15  C16 UNL     1      18.330  -0.739  52.915  1.00  0.00    -0.049 C 
HETATM   16  C17 UNL     1      17.843  -1.725  53.212  1.00  0.00     0.053 C 
BRANCH  16  17
HETATM   17  O1  UNL     1      17.262  -2.896  53.542  1.00  0.00    -0.314 OA
HETATM   18  H15 UNL     1      17.812  -3.718  53.802  1.00  0.00     0.230 HD
ENDBRANCH  16  17
ENDBRANCH  12  15
BRANCH  13  19
HETATM   19  C18 UNL     1      16.636   1.833  51.409  1.00  0.00     0.094 C 
HETATM   20  C19 UNL     1      16.566   3.320  51.655  1.00  0.00     0.017 C 
ENDBRANCH  13  19
ENDBRANCH  10  11
ENDBRANCH   7   9
BRANCH   1  21
HETATM   21  C3  UNL     1      27.505  -0.063  52.843  1.00  0.00    -0.056 C 
HETATM   22  C2  UNL     1      28.656   0.332  53.362  1.00  0.00    -0.023 C 
HETATM   23  C1  UNL     1      29.610  -0.725  53.846  1.00  0.00     0.036 C 
HETATM   24  C4  UNL     1      27.368  -1.541  52.836  1.00  0.00     0.049 C 
ENDBRANCH   1  21
TORSDOF 6
ENDMDL
MODEL 8
REMARK VINA RESULT:      -6.7      4.311      6.167
REMARK  6 active torsions:
REMARK  status: ('A' for Active; 'I' for Inactive)
REMARK    1  A    between atoms: C3_3  and  C5_5 
REMARK    2  A    between atoms: C11_11  and  C12_12 
REMARK    3  A    between atoms: C13_13  and  C14_14 
REMARK    4  A    between atoms: C15_15  and  C16_16 
REMARK    5  A    between atoms: C17_17  and  O1_18 
REMARK    6  A    between atoms: S1_19  and  C18_21 
ROOT
HETATM    1  C5  UNL     1      24.269   0.021  53.174  1.00  0.00    -0.030 A 
HETATM    2  C6  UNL     1      25.434  -0.590  52.766  1.00  0.00     0.014 A 
HETATM    3  C7  UNL     1      26.456   0.033  52.036  1.00  0.00     0.038 A 
HETATM    4  C8  UNL     1      26.169   1.376  51.752  1.00  0.00     0.079 A 
HETATM    5  C9  UNL     1      25.050   2.045  52.117  1.00  0.00     0.009 A 
HETATM    6  C10 UNL     1      24.091   1.346  52.839  1.00  0.00     0.025 A 
HETATM    7  C11 UNL     1      25.579   3.246  51.454  1.00  0.00     0.187 A 
HETATM    8  O3  UNL     1      26.693   2.473  51.129  1.00  0.00    -0.337 OA
ENDROOT
BRANCH   7   9
HETATM    9  C12 UNL     1      24.837   3.675  50.235  1.00  0.00     0.007 C 
HETATM   10  C13 UNL     1      23.772   4.481  50.450  1.00  0.00    -0.009 C 
BRANCH  10  11
HETATM   11  C14 UNL     1      23.211   4.772  49.144  1.00  0.00     0.127 A 
HETATM   12  C15 UNL     1      22.745   4.703  47.999  1.00  0.00     0.141 A 
HETATM   13  S1  UNL     1      22.726   6.443  48.341  1.00  0.00    -0.021 S 
HETATM   14  O2  UNL     1      23.544   7.247  47.371  1.00  0.00    -0.268 OA
BRANCH  12  15
HETATM   15  C16 UNL     1      22.277   4.230  46.762  1.00  0.00    -0.049 C 
HETATM   16  C17 UNL     1      21.895   3.867  45.752  1.00  0.00     0.053 C 
BRANCH  16  17
HETATM   17  O1  UNL     1      21.423   3.446  44.561  1.00  0.00    -0.314 OA
HETATM   18  H15 UNL     1      20.668   3.936  44.076  1.00  0.00     0.230 HD
ENDBRANCH  16  17
ENDBRANCH  12  15
BRANCH  13  19
HETATM   19  C18 UNL     1      21.003   7.022  48.290  1.00  0.00     0.094 C 
HETATM   20  C19 UNL     1      20.692   7.792  49.550  1.00  0.00     0.017 C 
ENDBRANCH  13  19
ENDBRANCH  10  11
ENDBRANCH   7   9
BRANCH   1  21
HETATM   21  C3  UNL     1      23.240  -0.672  53.935  1.00  0.00    -0.056 C 
HETATM   22  C2  UNL     1      22.031  -0.878  53.436  1.00  0.00    -0.023 C 
HETATM   23  C1  UNL     1      21.028  -1.597  54.294  1.00  0.00     0.036 C 
HETATM   24  C4  UNL     1      23.382  -1.216  55.309  1.00  0.00     0.049 C 
ENDBRANCH   1  21
TORSDOF 6
ENDMDL
MODEL 9
REMARK VINA RESULT:      -6.4      1.471      2.083
REMARK  6 active torsions:
REMARK  status: ('A' for Active; 'I' for Inactive)
REMARK    1  A    between atoms: C3_3  and  C5_5 
REMARK    2  A    between atoms: C11_11  and  C12_12 
REMARK    3  A    between atoms: C13_13  and  C14_14 
REMARK    4  A    between atoms: C15_15  and  C16_16 
REMARK    5  A    between atoms: C17_17  and  O1_18 
REMARK    6  A    between atoms: S1_19  and  C18_21 
ROOT
HETATM    1  C5  UNL     1      24.823   2.698  51.882  1.00  0.00    -0.030 A 
HETATM    2  C6  UNL     1      23.960   3.441  52.658  1.00  0.00     0.014 A 
HETATM    3  C7  UNL     1      23.412   4.678  52.290  1.00  0.00     0.038 A 
HETATM    4  C8  UNL     1      23.841   5.098  51.023  1.00  0.00     0.079 A 
HETATM    5  C9  UNL     1      24.684   4.427  50.204  1.00  0.00     0.009 A 
HETATM    6  C10 UNL     1      25.177   3.207  50.652  1.00  0.00     0.025 A 
HETATM    7  C11 UNL     1      24.560   5.512  49.221  1.00  0.00     0.187 A 
HETATM    8  O3  UNL     1      23.698   6.124  50.132  1.00  0.00    -0.337 OA
ENDROOT
BRANCH   7   9
HETATM    9  C12 UNL     1      25.795   6.320  49.010  1.00  0.00     0.007 C 
HETATM   10  C13 UNL     1      25.732   7.240  48.020  1.00  0.00    -0.009 C 
BRANCH  10  11
HETATM   11  C14 UNL     1      27.024   7.900  47.995  1.00  0.00     0.127 A 
HETATM   12  C15 UNL     1      27.991   8.645  48.198  1.00  0.00     0.141 A 
HETATM   13  S1  UNL     1      28.592   7.526  46.960  1.00  0.00    -0.021 S 
HETATM   14  O2  UNL     1      29.023   8.216  45.697  1.00  0.00    -0.268 OA
BRANCH  12  15
HETATM   15  C16 UNL     1      28.831   9.658  48.690  1.00  0.00    -0.049 C 
HETATM   16  C17 UNL     1      29.513  10.488  49.070  1.00  0.00     0.053 C 
BRANCH  16  17
HETATM   17  O1  UNL     1      30.336  11.462  49.506  1.00  0.00    -0.314 OA
HETATM   18  H15 UNL     1      31.319  11.281  49.727  1.00  0.00     0.230 HD
ENDBRANCH  16  17
ENDBRANCH  12  15
BRANCH  13  19
HETATM   19  C18 UNL     1      30.004   6.609  47.648  1.00  0.00     0.094 C 
HETATM   20  C19 UNL     1      29.527   5.288  48.199  1.00  0.00     0.017 C 
ENDBRANCH  13  19
ENDBRANCH  10  11
ENDBRANCH   7   9
BRANCH   1  21
HETATM   21  C3  UNL     1      25.361   1.415  52.311  1.00  0.00    -0.056 C 
HETATM   22  C2  UNL     1      26.568   1.014  51.944  1.00  0.00    -0.023 C 
HETATM   23  C1  UNL     1      27.042  -0.328  52.428  1.00  0.00     0.036 C 
HETATM   24  C4  UNL     1      24.673   0.418  53.168  1.00  0.00     0.049 C 
ENDBRANCH   1  21
TORSDOF 6
ENDMDL
