MODEL 1
REMARK VINA RESULT:      -8.8      0.000      0.000
REMARK  7 active torsions:
REMARK  status: ('A' for Active; 'I' for Inactive)
REMARK    1  A    between atoms: C1_2  and  C2_3 
REMARK    2  A    between atoms: C8_11  and  N3_12 
REMARK    3  A    between atoms: N3_12  and  C9_13 
REMARK    4  A    between atoms: C11_15  and  C12_16 
REMARK    5  A    between atoms: C12_16  and  O1_17 
REMARK    6  A    between atoms: O1_17  and  C13_18 
REMARK    7  A    between atoms: C13_18  and  C14_19 
ROOT
HETATM    1  C9  UNL     1      25.790   4.504  49.749  1.00  0.00     0.131 A 
HETATM    2  C10 UNL     1      26.969   4.583  48.991  1.00  0.00     0.080 A 
HETATM    3  C11 UNL     1      27.434   5.864  48.746  1.00  0.00     0.063 A 
HETATM    4  N5  UNL     1      26.800   6.991  49.207  1.00  0.00    -0.244 NA
HETATM    5  C18 UNL     1      25.655   6.845  49.938  1.00  0.00     0.235 A 
HETATM    6  N6  UNL     1      25.191   5.620  50.183  1.00  0.00    -0.224 NA
ENDROOT
BRANCH   1   7
HETATM    7  N3  UNL     1      25.337   3.183  50.003  1.00  0.00    -0.341 N 
HETATM    8  H8  UNL     1      24.830   3.019  49.111  1.00  0.00     0.167 HD
BRANCH   7   9
HETATM    9  C8  UNL     1      25.462   2.267  51.080  1.00  0.00     0.035 A 
HETATM   10  C7  UNL     1      26.716   1.994  51.581  1.00  0.00     0.044 A 
HETATM   11  C6  UNL     1      26.784   1.106  52.633  1.00  0.00     0.015 A 
HETATM   12  C5  UNL     1      27.773   0.538  53.445  1.00  0.00     0.152 A 
HETATM   13  C21 UNL     1      25.616   0.543  53.124  1.00  0.00     0.075 A 
HETATM   14  N2  UNL     1      27.162  -0.283  54.322  1.00  0.00    -0.183 NA
HETATM   15  N1  UNL     1      25.851  -0.295  54.145  1.00  0.00    -0.265 N 
HETATM   16  C4  UNL     1      24.765  -0.996  54.818  1.00  0.00     0.179 A 
HETATM   17  C3  UNL     1      23.462  -0.624  54.187  1.00  0.00     0.005 A 
HETATM   18  C2  UNL     1      23.198   0.208  53.171  1.00  0.00    -0.019 A 
HETATM   19  C20 UNL     1      24.369   0.849  52.585  1.00  0.00     0.004 A 
HETATM   20  C19 UNL     1      24.264   1.746  51.519  1.00  0.00     0.044 A 
BRANCH  18  21
HETATM   21  C1  UNL     1      21.858   0.517  52.611  1.00  0.00     0.261 C 
HETATM   22  F1  UNL     1      21.609  -0.314  51.561  1.00  0.00    -0.251 F 
ENDBRANCH  18  21
ENDBRANCH   7   9
ENDBRANCH   1   7
BRANCH   3  23
HETATM   23  C12 UNL     1      28.695   6.024  47.936  1.00  0.00     0.227 C 
BRANCH  23  24
HETATM   24  O1  UNL     1      29.644   5.146  48.363  1.00  0.00    -0.383 OA
BRANCH  24  25
HETATM   25  C13 UNL     1      30.815   5.110  47.677  1.00  0.00     0.201 C 
BRANCH  25  26
HETATM   26  C14 UNL     1      32.029   5.715  48.320  1.00  0.00     0.162 C 
HETATM   27  C15 UNL     1      31.827   6.046  49.763  1.00  0.00     0.147 C 
HETATM   28  N4  UNL     1      31.593   7.402  50.059  1.00  0.00    -0.417 N 
HETATM   29  C16 UNL     1      32.027   8.394  49.150  1.00  0.00     0.140 C 
HETATM   30  H17 UNL     1      30.930   7.653  50.787  1.00  0.00     0.153 HD
HETATM   31  C17 UNL     1      31.733   7.924  47.732  1.00  0.00     0.187 C 
HETATM   32  O2  UNL     1      32.500   6.768  47.560  1.00  0.00    -0.381 OA
ENDBRANCH  25  26
ENDBRANCH  24  25
ENDBRANCH  23  24
ENDBRANCH   3  23
TORSDOF 7
ENDMDL
MODEL 2
REMARK VINA RESULT:      -8.7      3.439      8.709
REMARK  7 active torsions:
REMARK  status: ('A' for Active; 'I' for Inactive)
REMARK    1  A    between atoms: C1_2  and  C2_3 
REMARK    2  A    between atoms: C8_11  and  N3_12 
REMARK    3  A    between atoms: N3_12  and  C9_13 
REMARK    4  A    between atoms: C11_15  and  C12_16 
REMARK    5  A    between atoms: C12_16  and  O1_17 
REMARK    6  A    between atoms: O1_17  and  C13_18 
REMARK    7  A    between atoms: C13_18  and  C14_19 
ROOT
HETATM    1  C9  UNL     1      27.663   5.942  48.521  1.00  0.00     0.131 A 
HETATM    2  C10 UNL     1      27.546   4.594  48.892  1.00  0.00     0.080 A 
HETATM    3  C11 UNL     1      26.460   4.291  49.696  1.00  0.00     0.063 A 
HETATM    4  N5  UNL     1      25.550   5.232  50.110  1.00  0.00    -0.244 NA
HETATM    5  C18 UNL     1      25.722   6.528  49.714  1.00  0.00     0.235 A 
HETATM    6  N6  UNL     1      26.762   6.839  48.941  1.00  0.00    -0.224 NA
ENDROOT
BRANCH   1   7
HETATM    7  N3  UNL     1      28.773   6.231  47.684  1.00  0.00    -0.341 N 
HETATM    8  H8  UNL     1      28.254   6.575  46.852  1.00  0.00     0.167 HD
BRANCH   7   9
HETATM    9  C8  UNL     1      30.183   6.130  47.812  1.00  0.00     0.035 A 
HETATM   10  C7  UNL     1      30.887   7.211  48.293  1.00  0.00     0.044 A 
HETATM   11  C6  UNL     1      32.252   7.062  48.409  1.00  0.00     0.015 A 
HETATM   12  C5  UNL     1      33.346   7.829  48.827  1.00  0.00     0.152 A 
HETATM   13  C21 UNL     1      32.837   5.859  48.044  1.00  0.00     0.075 A 
HETATM   14  N2  UNL     1      34.454   7.073  48.692  1.00  0.00    -0.183 NA
HETATM   15  N1  UNL     1      34.167   5.872  48.217  1.00  0.00    -0.265 N 
HETATM   16  C4  UNL     1      34.987   4.709  47.901  1.00  0.00     0.179 A 
HETATM   17  C3  UNL     1      34.116   3.608  47.387  1.00  0.00     0.005 A 
HETATM   18  C2  UNL     1      32.789   3.566  47.205  1.00  0.00    -0.019 A 
HETATM   19  C20 UNL     1      32.084   4.792  47.561  1.00  0.00     0.004 A 
HETATM   20  C19 UNL     1      30.698   4.910  47.432  1.00  0.00     0.044 A 
BRANCH  18  21
HETATM   21  C1  UNL     1      32.007   2.416  46.685  1.00  0.00     0.261 C 
HETATM   22  F1  UNL     1      32.594   1.256  47.090  1.00  0.00    -0.251 F 
ENDBRANCH  18  21
ENDBRANCH   7   9
ENDBRANCH   1   7
BRANCH   3  23
HETATM   23  C12 UNL     1      26.272   2.861  50.135  1.00  0.00     0.227 C 
BRANCH  23  24
HETATM   24  O1  UNL     1      27.056   2.595  51.217  1.00  0.00    -0.383 OA
BRANCH  24  25
HETATM   25  C13 UNL     1      26.442   2.122  52.331  1.00  0.00     0.201 C 
BRANCH  25  26
HETATM   26  C14 UNL     1      27.141   2.292  53.648  1.00  0.00     0.162 C 
HETATM   27  C15 UNL     1      28.624   2.419  53.516  1.00  0.00     0.147 C 
HETATM   28  N4  UNL     1      29.372   1.266  53.818  1.00  0.00    -0.417 N 
HETATM   29  C16 UNL     1      28.811   0.276  54.657  1.00  0.00     0.140 C 
HETATM   30  H17 UNL     1      30.198   1.041  53.270  1.00  0.00     0.153 HD
HETATM   31  C17 UNL     1      27.349   0.084  54.279  1.00  0.00     0.187 C 
HETATM   32  O2  UNL     1      26.736   1.314  54.536  1.00  0.00    -0.381 OA
ENDBRANCH  25  26
ENDBRANCH  24  25
ENDBRANCH  23  24
ENDBRANCH   3  23
TORSDOF 7
ENDMDL
MODEL 3
REMARK VINA RESULT:      -8.7      1.658      2.643
REMARK  7 active torsions:
REMARK  status: ('A' for Active; 'I' for Inactive)
REMARK    1  A    between atoms: C1_2  and  C2_3 
REMARK    2  A    between atoms: C8_11  and  N3_12 
REMARK    3  A    between atoms: N3_12  and  C9_13 
REMARK    4  A    between atoms: C11_15  and  C12_16 
REMARK    5  A    between atoms: C12_16  and  O1_17 
REMARK    6  A    between atoms: O1_17  and  C13_18 
REMARK    7  A    between atoms: C13_18  and  C14_19 
ROOT
HETATM    1  C9  UNL     1      25.619   4.734  49.627  1.00  0.00     0.131 A 
HETATM    2  C10 UNL     1      26.816   4.771  48.896  1.00  0.00     0.080 A 
HETATM    3  C11 UNL     1      27.383   6.026  48.746  1.00  0.00     0.063 A 
HETATM    4  N5  UNL     1      26.826   7.166  49.271  1.00  0.00    -0.244 NA
HETATM    5  C18 UNL     1      25.658   7.060  49.972  1.00  0.00     0.235 A 
HETATM    6  N6  UNL     1      25.097   5.861  50.126  1.00  0.00    -0.224 NA
ENDROOT
BRANCH   1   7
HETATM    7  N3  UNL     1      25.063   3.438  49.784  1.00  0.00    -0.341 N 
HETATM    8  H8  UNL     1      24.738   3.289  48.808  1.00  0.00     0.167 HD
BRANCH   7   9
HETATM    9  C8  UNL     1      24.924   2.526  50.864  1.00  0.00     0.035 A 
HETATM   10  C7  UNL     1      23.696   1.949  51.096  1.00  0.00     0.044 A 
HETATM   11  C6  UNL     1      23.614   1.063  52.149  1.00  0.00     0.015 A 
HETATM   12  C5  UNL     1      22.639   0.260  52.752  1.00  0.00     0.152 A 
HETATM   13  C21 UNL     1      24.746   0.803  52.907  1.00  0.00     0.075 A 
HETATM   14  N2  UNL     1      23.223  -0.393  53.777  1.00  0.00    -0.183 NA
HETATM   15  N1  UNL     1      24.503  -0.078  53.888  1.00  0.00    -0.265 N 
HETATM   16  C4  UNL     1      25.553  -0.501  54.807  1.00  0.00     0.179 A 
HETATM   17  C3  UNL     1      26.830   0.192  54.460  1.00  0.00     0.005 A 
HETATM   18  C2  UNL     1      27.102   1.073  53.488  1.00  0.00    -0.019 A 
HETATM   19  C20 UNL     1      25.968   1.412  52.636  1.00  0.00     0.004 A 
HETATM   20  C19 UNL     1      26.086   2.314  51.575  1.00  0.00     0.044 A 
BRANCH  18  21
HETATM   21  C1  UNL     1      28.415   1.712  53.219  1.00  0.00     0.261 C 
HETATM   22  F1  UNL     1      28.486   2.891  53.896  1.00  0.00    -0.251 F 
ENDBRANCH  18  21
ENDBRANCH   7   9
ENDBRANCH   1   7
BRANCH   3  23
HETATM   23  C12 UNL     1      28.669   6.142  47.969  1.00  0.00     0.227 C 
BRANCH  23  24
HETATM   24  O1  UNL     1      29.560   5.203  48.391  1.00  0.00    -0.383 OA
BRANCH  24  25
HETATM   25  C13 UNL     1      30.729   5.101  47.709  1.00  0.00     0.201 C 
BRANCH  25  26
HETATM   26  C14 UNL     1      31.964   5.683  48.334  1.00  0.00     0.162 C 
HETATM   27  C15 UNL     1      31.781   6.045  49.772  1.00  0.00     0.147 C 
HETATM   28  N4  UNL     1      31.586   7.412  50.045  1.00  0.00    -0.417 N 
HETATM   29  C16 UNL     1      32.042   8.376  49.117  1.00  0.00     0.140 C 
HETATM   30  H17 UNL     1      30.935   7.694  50.773  1.00  0.00     0.153 HD
HETATM   31  C17 UNL     1      31.726   7.889  47.709  1.00  0.00     0.187 C 
HETATM   32  O2  UNL     1      32.460   6.709  47.553  1.00  0.00    -0.381 OA
ENDBRANCH  25  26
ENDBRANCH  24  25
ENDBRANCH  23  24
ENDBRANCH   3  23
TORSDOF 7
ENDMDL
MODEL 4
REMARK VINA RESULT:      -8.3      1.705      1.965
REMARK  7 active torsions:
REMARK  status: ('A' for Active; 'I' for Inactive)
REMARK    1  A    between atoms: C1_2  and  C2_3 
REMARK    2  A    between atoms: C8_11  and  N3_12 
REMARK    3  A    between atoms: N3_12  and  C9_13 
REMARK    4  A    between atoms: C11_15  and  C12_16 
REMARK    5  A    between atoms: C12_16  and  O1_17 
REMARK    6  A    between atoms: O1_17  and  C13_18 
REMARK    7  A    between atoms: C13_18  and  C14_19 
ROOT
HETATM    1  C9  UNL     1      25.916   4.607  49.735  1.00  0.00     0.131 A 
HETATM    2  C10 UNL     1      27.046   4.708  48.909  1.00  0.00     0.080 A 
HETATM    3  C11 UNL     1      27.498   5.996  48.674  1.00  0.00     0.063 A 
HETATM    4  N5  UNL     1      26.895   7.109  49.206  1.00  0.00    -0.244 NA
HETATM    5  C18 UNL     1      25.797   6.942  50.001  1.00  0.00     0.235 A 
HETATM    6  N6  UNL     1      25.346   5.710  50.238  1.00  0.00    -0.224 NA
ENDROOT
BRANCH   1   7
HETATM    7  N3  UNL     1      25.477   3.279  49.978  1.00  0.00    -0.341 N 
HETATM    8  H8  UNL     1      24.995   3.108  49.074  1.00  0.00     0.167 HD
BRANCH   7   9
HETATM    9  C8  UNL     1      25.589   2.365  51.058  1.00  0.00     0.035 A 
HETATM   10  C7  UNL     1      26.831   2.125  51.603  1.00  0.00     0.044 A 
HETATM   11  C6  UNL     1      26.887   1.237  52.656  1.00  0.00     0.015 A 
HETATM   12  C5  UNL     1      27.862   0.695  53.501  1.00  0.00     0.152 A 
HETATM   13  C21 UNL     1      25.718   0.641  53.104  1.00  0.00     0.075 A 
HETATM   14  N2  UNL     1      27.243  -0.144  54.355  1.00  0.00    -0.183 NA
HETATM   15  N1  UNL     1      25.940  -0.192  54.132  1.00  0.00    -0.265 N 
HETATM   16  C4  UNL     1      24.850  -0.924  54.765  1.00  0.00     0.179 A 
HETATM   17  C3  UNL     1      23.561  -0.587  54.089  1.00  0.00     0.005 A 
HETATM   18  C2  UNL     1      23.310   0.240  53.064  1.00  0.00    -0.019 A 
HETATM   19  C20 UNL     1      24.483   0.914  52.522  1.00  0.00     0.004 A 
HETATM   20  C19 UNL     1      24.391   1.809  51.453  1.00  0.00     0.044 A 
BRANCH  18  21
HETATM   21  C1  UNL     1      21.983   0.512  52.457  1.00  0.00     0.261 C 
HETATM   22  F1  UNL     1      21.375   1.519  53.143  1.00  0.00    -0.251 F 
ENDBRANCH  18  21
ENDBRANCH   7   9
ENDBRANCH   1   7
BRANCH   3  23
HETATM   23  C12 UNL     1      28.707   6.180  47.793  1.00  0.00     0.227 C 
BRANCH  23  24
HETATM   24  O1  UNL     1      29.657   6.907  48.443  1.00  0.00    -0.383 OA
BRANCH  24  25
HETATM   25  C13 UNL     1      30.353   7.817  47.716  1.00  0.00     0.201 C 
BRANCH  25  26
HETATM   26  C14 UNL     1      30.388   9.235  48.206  1.00  0.00     0.162 C 
HETATM   27  C15 UNL     1      30.053   9.365  49.656  1.00  0.00     0.147 C 
HETATM   28  N4  UNL     1      28.750   9.805  49.953  1.00  0.00    -0.417 N 
HETATM   29  C16 UNL     1      28.029  10.540  48.984  1.00  0.00     0.140 C 
HETATM   30  H17 UNL     1      28.253   9.413  50.748  1.00  0.00     0.153 HD
HETATM   31  C17 UNL     1      28.264   9.912  47.617  1.00  0.00     0.187 C 
HETATM   32  O2  UNL     1      29.635  10.047  47.379  1.00  0.00    -0.381 OA
ENDBRANCH  25  26
ENDBRANCH  24  25
ENDBRANCH  23  24
ENDBRANCH   3  23
TORSDOF 7
ENDMDL
MODEL 5
REMARK VINA RESULT:      -8.0      2.268      3.253
REMARK  7 active torsions:
REMARK  status: ('A' for Active; 'I' for Inactive)
REMARK    1  A    between atoms: C1_2  and  C2_3 
REMARK    2  A    between atoms: C8_11  and  N3_12 
REMARK    3  A    between atoms: N3_12  and  C9_13 
REMARK    4  A    between atoms: C11_15  and  C12_16 
REMARK    5  A    between atoms: C12_16  and  O1_17 
REMARK    6  A    between atoms: O1_17  and  C13_18 
REMARK    7  A    between atoms: C13_18  and  C14_19 
ROOT
HETATM    1  C9  UNL     1      26.811   4.747  49.116  1.00  0.00     0.131 A 
HETATM    2  C10 UNL     1      28.043   5.109  48.549  1.00  0.00     0.080 A 
HETATM    3  C11 UNL     1      28.160   6.438  48.180  1.00  0.00     0.063 A 
HETATM    4  N5  UNL     1      27.151   7.354  48.350  1.00  0.00    -0.244 NA
HETATM    5  C18 UNL     1      25.975   6.936  48.907  1.00  0.00     0.235 A 
HETATM    6  N6  UNL     1      25.843   5.660  49.268  1.00  0.00    -0.224 NA
ENDROOT
BRANCH   1   7
HETATM    7  N3  UNL     1      26.716   3.385  49.504  1.00  0.00    -0.341 N 
HETATM    8  H8  UNL     1      27.483   3.002  48.915  1.00  0.00     0.167 HD
BRANCH   7   9
HETATM    9  C8  UNL     1      25.891   2.647  50.393  1.00  0.00     0.035 A 
HETATM   10  C7  UNL     1      24.529   2.851  50.361  1.00  0.00     0.044 A 
HETATM   11  C6  UNL     1      23.770   2.104  51.236  1.00  0.00     0.015 A 
HETATM   12  C5  UNL     1      22.417   1.955  51.566  1.00  0.00     0.152 A 
HETATM   13  C21 UNL     1      24.398   1.206  52.086  1.00  0.00     0.075 A 
HETATM   14  N2  UNL     1      22.331   1.027  52.539  1.00  0.00    -0.183 NA
HETATM   15  N1  UNL     1      23.524   0.558  52.870  1.00  0.00    -0.265 N 
HETATM   16  C4  UNL     1      23.964  -0.438  53.839  1.00  0.00     0.179 A 
HETATM   17  C3  UNL     1      25.452  -0.566  53.783  1.00  0.00     0.005 A 
HETATM   18  C2  UNL     1      26.349   0.065  53.011  1.00  0.00    -0.019 A 
HETATM   19  C20 UNL     1      25.780   1.034  52.083  1.00  0.00     0.004 A 
HETATM   20  C19 UNL     1      26.579   1.775  51.208  1.00  0.00     0.044 A 
BRANCH  18  21
HETATM   21  C1  UNL     1      27.820  -0.133  53.028  1.00  0.00     0.261 C 
HETATM   22  F1  UNL     1      28.241  -0.256  54.317  1.00  0.00    -0.251 F 
ENDBRANCH  18  21
ENDBRANCH   7   9
ENDBRANCH   1   7
BRANCH   3  23
HETATM   23  C12 UNL     1      29.455   6.898  47.561  1.00  0.00     0.227 C 
BRANCH  23  24
HETATM   24  O1  UNL     1      30.503   6.574  48.368  1.00  0.00    -0.383 OA
BRANCH  24  25
HETATM   25  C13 UNL     1      31.685   6.280  47.768  1.00  0.00     0.201 C 
BRANCH  25  26
HETATM   26  C14 UNL     1      32.566   5.249  48.413  1.00  0.00     0.162 C 
HETATM   27  C15 UNL     1      34.015   5.436  48.101  1.00  0.00     0.147 C 
HETATM   28  N4  UNL     1      34.551   4.579  47.122  1.00  0.00    -0.417 N 
HETATM   29  C16 UNL     1      33.916   3.344  46.858  1.00  0.00     0.140 C 
HETATM   30  H17 UNL     1      35.239   4.933  46.462  1.00  0.00     0.153 HD
HETATM   31  C17 UNL     1      32.409   3.559  46.853  1.00  0.00     0.187 C 
HETATM   32  O2  UNL     1      32.091   3.979  48.148  1.00  0.00    -0.381 OA
ENDBRANCH  25  26
ENDBRANCH  24  25
ENDBRANCH  23  24
ENDBRANCH   3  23
TORSDOF 7
ENDMDL
MODEL 6
REMARK VINA RESULT:      -8.0      3.258      5.573
REMARK  7 active torsions:
REMARK  status: ('A' for Active; 'I' for Inactive)
REMARK    1  A    between atoms: C1_2  and  C2_3 
REMARK    2  A    between atoms: C8_11  and  N3_12 
REMARK    3  A    between atoms: N3_12  and  C9_13 
REMARK    4  A    between atoms: C11_15  and  C12_16 
REMARK    5  A    between atoms: C12_16  and  O1_17 
REMARK    6  A    between atoms: O1_17  and  C13_18 
REMARK    7  A    between atoms: C13_18  and  C14_19 
ROOT
HETATM    1  C9  UNL     1      26.086   4.165  49.786  1.00  0.00     0.131 A 
HETATM    2  C10 UNL     1      25.147   4.987  50.428  1.00  0.00     0.080 A 
HETATM    3  C11 UNL     1      25.261   6.341  50.160  1.00  0.00     0.063 A 
HETATM    4  N5  UNL     1      26.220   6.861  49.326  1.00  0.00    -0.244 NA
HETATM    5  C18 UNL     1      27.105   6.006  48.733  1.00  0.00     0.235 A 
HETATM    6  N6  UNL     1      27.012   4.699  48.979  1.00  0.00    -0.224 NA
ENDROOT
BRANCH   1   7
HETATM    7  N3  UNL     1      25.944   2.779  50.059  1.00  0.00    -0.341 N 
HETATM    8  H8  UNL     1      25.851   2.438  49.082  1.00  0.00     0.167 HD
BRANCH   7   9
HETATM    9  C8  UNL     1      25.917   1.983  51.234  1.00  0.00     0.035 A 
HETATM   10  C7  UNL     1      27.080   1.817  51.953  1.00  0.00     0.044 A 
HETATM   11  C6  UNL     1      27.001   1.044  53.091  1.00  0.00     0.015 A 
HETATM   12  C5  UNL     1      27.861   0.605  54.106  1.00  0.00     0.152 A 
HETATM   13  C21 UNL     1      25.785   0.482  53.449  1.00  0.00     0.075 A 
HETATM   14  N2  UNL     1      27.138  -0.149  54.957  1.00  0.00    -0.183 NA
HETATM   15  N1  UNL     1      25.874  -0.237  54.577  1.00  0.00    -0.265 N 
HETATM   16  C4  UNL     1      24.713  -0.914  55.141  1.00  0.00     0.179 A 
HETATM   17  C3  UNL     1      23.520  -0.666  54.276  1.00  0.00     0.005 A 
HETATM   18  C2  UNL     1      23.401   0.048  53.147  1.00  0.00    -0.019 A 
HETATM   19  C20 UNL     1      24.634   0.677  52.689  1.00  0.00     0.004 A 
HETATM   20  C19 UNL     1      24.678   1.456  51.530  1.00  0.00     0.044 A 
BRANCH  18  21
HETATM   21  C1  UNL     1      22.162   0.239  52.352  1.00  0.00     0.261 C 
HETATM   22  F1  UNL     1      21.404   1.210  52.930  1.00  0.00    -0.251 F 
ENDBRANCH  18  21
ENDBRANCH   7   9
ENDBRANCH   1   7
BRANCH   3  23
HETATM   23  C12 UNL     1      24.287   7.285  50.818  1.00  0.00     0.227 C 
BRANCH  23  24
HETATM   24  O1  UNL     1      23.195   6.601  51.260  1.00  0.00    -0.383 OA
BRANCH  24  25
HETATM   25  C13 UNL     1      21.991   6.940  50.734  1.00  0.00     0.201 C 
BRANCH  25  26
HETATM   26  C14 UNL     1      20.989   5.847  50.501  1.00  0.00     0.162 C 
HETATM   27  C15 UNL     1      21.245   4.628  51.326  1.00  0.00     0.147 C 
HETATM   28  N4  UNL     1      21.854   3.549  50.660  1.00  0.00    -0.417 N 
HETATM   29  C16 UNL     1      21.745   3.451  49.254  1.00  0.00     0.140 C 
HETATM   30  H17 UNL     1      22.544   2.981  51.144  1.00  0.00     0.153 HD
HETATM   31  C17 UNL     1      21.923   4.838  48.650  1.00  0.00     0.187 C 
HETATM   32  O2  UNL     1      20.859   5.596  49.148  1.00  0.00    -0.381 OA
ENDBRANCH  25  26
ENDBRANCH  24  25
ENDBRANCH  23  24
ENDBRANCH   3  23
TORSDOF 7
ENDMDL
MODEL 7
REMARK VINA RESULT:      -8.0      3.418      8.685
REMARK  7 active torsions:
REMARK  status: ('A' for Active; 'I' for Inactive)
REMARK    1  A    between atoms: C1_2  and  C2_3 
REMARK    2  A    between atoms: C8_11  and  N3_12 
REMARK    3  A    between atoms: N3_12  and  C9_13 
REMARK    4  A    between atoms: C11_15  and  C12_16 
REMARK    5  A    between atoms: C12_16  and  O1_17 
REMARK    6  A    between atoms: O1_17  and  C13_18 
REMARK    7  A    between atoms: C13_18  and  C14_19 
ROOT
HETATM    1  C9  UNL     1      25.762   4.959  49.593  1.00  0.00     0.131 A 
HETATM    2  C10 UNL     1      25.899   3.715  50.229  1.00  0.00     0.080 A 
HETATM    3  C11 UNL     1      24.946   3.433  51.193  1.00  0.00     0.063 A 
HETATM    4  N5  UNL     1      23.931   4.298  51.518  1.00  0.00    -0.244 NA
HETATM    5  C18 UNL     1      23.855   5.494  50.863  1.00  0.00     0.235 A 
HETATM    6  N6  UNL     1      24.764   5.785  49.932  1.00  0.00    -0.224 NA
ENDROOT
BRANCH   1   7
HETATM    7  N3  UNL     1      26.737   5.224  48.597  1.00  0.00    -0.341 N 
HETATM    8  H8  UNL     1      26.411   4.549  47.877  1.00  0.00     0.167 HD
BRANCH   7   9
HETATM    9  C8  UNL     1      27.850   6.098  48.485  1.00  0.00     0.035 A 
HETATM   10  C7  UNL     1      27.671   7.441  48.734  1.00  0.00     0.044 A 
HETATM   11  C6  UNL     1      28.784   8.247  48.623  1.00  0.00     0.015 A 
HETATM   12  C5  UNL     1      29.097   9.603  48.771  1.00  0.00     0.152 A 
HETATM   13  C21 UNL     1      30.001   7.682  48.274  1.00  0.00     0.075 A 
HETATM   14  N2  UNL     1      30.412   9.750  48.514  1.00  0.00    -0.183 NA
HETATM   15  N1  UNL     1      30.981   8.594  48.210  1.00  0.00    -0.265 N 
HETATM   16  C4  UNL     1      32.347   8.221  47.865  1.00  0.00     0.179 A 
HETATM   17  C3  UNL     1      32.415   6.749  47.615  1.00  0.00     0.005 A 
HETATM   18  C2  UNL     1      31.455   5.815  47.672  1.00  0.00    -0.019 A 
HETATM   19  C20 UNL     1      30.134   6.317  48.031  1.00  0.00     0.004 A 
HETATM   20  C19 UNL     1      29.027   5.471  48.135  1.00  0.00     0.044 A 
BRANCH  18  21
HETATM   21  C1  UNL     1      31.622   4.364  47.405  1.00  0.00     0.261 C 
HETATM   22  F1  UNL     1      32.565   3.859  48.246  1.00  0.00    -0.251 F 
ENDBRANCH  18  21
ENDBRANCH   7   9
ENDBRANCH   1   7
BRANCH   3  23
HETATM   23  C12 UNL     1      25.031   2.114  51.919  1.00  0.00     0.227 C 
BRANCH  23  24
HETATM   24  O1  UNL     1      25.349   2.317  53.227  1.00  0.00    -0.383 OA
BRANCH  24  25
HETATM   25  C13 UNL     1      26.320   1.534  53.762  1.00  0.00     0.201 C 
BRANCH  25  26
HETATM   26  C14 UNL     1      27.301   0.888  52.827  1.00  0.00     0.162 C 
HETATM   27  C15 UNL     1      27.363  -0.598  52.973  1.00  0.00     0.147 C 
HETATM   28  N4  UNL     1      28.459  -1.103  53.696  1.00  0.00    -0.417 N 
HETATM   29  C16 UNL     1      29.633  -0.323  53.810  1.00  0.00     0.140 C 
HETATM   30  H17 UNL     1      28.333  -1.901  54.312  1.00  0.00     0.153 HD
HETATM   31  C17 UNL     1      29.238   1.126  54.055  1.00  0.00     0.187 C 
HETATM   32  O2  UNL     1      28.530   1.514  52.914  1.00  0.00    -0.381 OA
ENDBRANCH  25  26
ENDBRANCH  24  25
ENDBRANCH  23  24
ENDBRANCH   3  23
TORSDOF 7
ENDMDL
MODEL 8
REMARK VINA RESULT:      -7.9      1.857      2.336
REMARK  7 active torsions:
REMARK  status: ('A' for Active; 'I' for Inactive)
REMARK    1  A    between atoms: C1_2  and  C2_3 
REMARK    2  A    between atoms: C8_11  and  N3_12 
REMARK    3  A    between atoms: N3_12  and  C9_13 
REMARK    4  A    between atoms: C11_15  and  C12_16 
REMARK    5  A    between atoms: C12_16  and  O1_17 
REMARK    6  A    between atoms: O1_17  and  C13_18 
REMARK    7  A    between atoms: C13_18  and  C14_19 
ROOT
HETATM    1  C9  UNL     1      24.199   4.199  50.426  1.00  0.00     0.131 A 
HETATM    2  C10 UNL     1      24.856   4.750  49.315  1.00  0.00     0.080 A 
HETATM    3  C11 UNL     1      24.830   6.132  49.234  1.00  0.00     0.063 A 
HETATM    4  N5  UNL     1      24.209   6.924  50.168  1.00  0.00    -0.244 NA
HETATM    5  C18 UNL     1      23.586   6.325  51.225  1.00  0.00     0.235 A 
HETATM    6  N6  UNL     1      23.600   4.995  51.320  1.00  0.00    -0.224 NA
ENDROOT
BRANCH   1   7
HETATM    7  N3  UNL     1      24.250   2.782  50.501  1.00  0.00    -0.341 N 
HETATM    8  H8  UNL     1      24.309   2.575  49.484  1.00  0.00     0.167 HD
BRANCH   7   9
HETATM    9  C8  UNL     1      24.235   1.829  51.553  1.00  0.00     0.035 A 
HETATM   10  C7  UNL     1      25.431   1.347  52.033  1.00  0.00     0.044 A 
HETATM   11  C6  UNL     1      25.365   0.431  53.061  1.00  0.00     0.015 A 
HETATM   12  C5  UNL     1      26.256  -0.309  53.848  1.00  0.00     0.152 A 
HETATM   13  C21 UNL     1      24.125   0.049  53.551  1.00  0.00     0.075 A 
HETATM   14  N2  UNL     1      25.527  -1.045  54.710  1.00  0.00    -0.183 NA
HETATM   15  N1  UNL     1      24.230  -0.843  54.547  1.00  0.00    -0.265 N 
HETATM   16  C4  UNL     1      23.050  -1.380  55.214  1.00  0.00     0.179 A 
HETATM   17  C3  UNL     1      21.819  -0.789  54.607  1.00  0.00     0.005 A 
HETATM   18  C2  UNL     1      21.684   0.102  53.615  1.00  0.00    -0.019 A 
HETATM   19  C20 UNL     1      22.939   0.564  53.033  1.00  0.00     0.004 A 
HETATM   20  C19 UNL     1      22.971   1.494  51.991  1.00  0.00     0.044 A 
BRANCH  18  21
HETATM   21  C1  UNL     1      20.407   0.635  53.077  1.00  0.00     0.261 C 
HETATM   22  F1  UNL     1      20.002  -0.140  52.034  1.00  0.00    -0.251 F 
ENDBRANCH  18  21
ENDBRANCH   7   9
ENDBRANCH   1   7
BRANCH   3  23
HETATM   23  C12 UNL     1      25.514   6.793  48.065  1.00  0.00     0.227 C 
BRANCH  23  24
HETATM   24  O1  UNL     1      26.845   6.504  48.074  1.00  0.00    -0.383 OA
BRANCH  24  25
HETATM   25  C13 UNL     1      27.660   7.336  48.771  1.00  0.00     0.201 C 
BRANCH  25  26
HETATM   26  C14 UNL     1      28.903   7.837  48.094  1.00  0.00     0.162 C 
HETATM   27  C15 UNL     1      30.157   7.258  48.664  1.00  0.00     0.147 C 
HETATM   28  N4  UNL     1      30.880   8.092  49.538  1.00  0.00    -0.417 N 
HETATM   29  C16 UNL     1      30.709   9.493  49.459  1.00  0.00     0.140 C 
HETATM   30  H17 UNL     1      31.337   7.693  50.354  1.00  0.00     0.153 HD
HETATM   31  C17 UNL     1      29.231   9.797  49.263  1.00  0.00     0.187 C 
HETATM   32  O2  UNL     1      28.894   9.217  48.036  1.00  0.00    -0.381 OA
ENDBRANCH  25  26
ENDBRANCH  24  25
ENDBRANCH  23  24
ENDBRANCH   3  23
TORSDOF 7
ENDMDL
MODEL 9
REMARK VINA RESULT:      -7.7      5.837      8.787
REMARK  7 active torsions:
REMARK  status: ('A' for Active; 'I' for Inactive)
REMARK    1  A    between atoms: C1_2  and  C2_3 
REMARK    2  A    between atoms: C8_11  and  N3_12 
REMARK    3  A    between atoms: N3_12  and  C9_13 
REMARK    4  A    between atoms: C11_15  and  C12_16 
REMARK    5  A    between atoms: C12_16  and  O1_17 
REMARK    6  A    between atoms: O1_17  and  C13_18 
REMARK    7  A    between atoms: C13_18  and  C14_19 
ROOT
HETATM    1  C9  UNL     1      21.340  -0.789  54.279  1.00  0.00     0.131 A 
HETATM    2  C10 UNL     1      22.137  -0.055  53.386  1.00  0.00     0.080 A 
HETATM    3  C11 UNL     1      23.502  -0.135  53.604  1.00  0.00     0.063 A 
HETATM    4  N5  UNL     1      24.055  -0.876  54.619  1.00  0.00    -0.244 NA
HETATM    5  C18 UNL     1      23.224  -1.566  55.454  1.00  0.00     0.235 A 
HETATM    6  N6  UNL     1      21.907  -1.501  55.261  1.00  0.00    -0.224 NA
ENDROOT
BRANCH   1   7
HETATM    7  N3  UNL     1      19.945  -0.709  54.029  1.00  0.00    -0.341 N 
HETATM    8  H8  UNL     1      19.603  -1.021  54.960  1.00  0.00     0.167 HD
BRANCH   7   9
HETATM    9  C8  UNL     1      19.141  -0.341  52.919  1.00  0.00     0.035 A 
HETATM   10  C7  UNL     1      19.573   0.669  52.089  1.00  0.00     0.044 A 
HETATM   11  C6  UNL     1      18.762   0.983  51.019  1.00  0.00     0.015 A 
HETATM   12  C5  UNL     1      18.766   1.884  49.948  1.00  0.00     0.152 A 
HETATM   13  C21 UNL     1      17.579   0.284  50.834  1.00  0.00     0.075 A 
HETATM   14  N2  UNL     1      17.644   1.674  49.231  1.00  0.00    -0.183 NA
HETATM   15  N1  UNL     1      16.909   0.705  49.753  1.00  0.00    -0.265 N 
HETATM   16  C4  UNL     1      15.638   0.106  49.364  1.00  0.00     0.179 A 
HETATM   17  C3  UNL     1      15.274  -0.969  50.337  1.00  0.00     0.005 A 
HETATM   18  C2  UNL     1      15.923  -1.411  51.423  1.00  0.00    -0.019 A 
HETATM   19  C20 UNL     1      17.183  -0.732  51.701  1.00  0.00     0.004 A 
HETATM   20  C19 UNL     1      17.981  -1.075  52.795  1.00  0.00     0.044 A 
BRANCH  18  21
HETATM   21  C1  UNL     1      15.478  -2.495  52.335  1.00  0.00     0.261 C 
HETATM   22  F1  UNL     1      14.151  -2.343  52.597  1.00  0.00    -0.251 F 
ENDBRANCH  18  21
ENDBRANCH   7   9
ENDBRANCH   1   7
BRANCH   3  23
HETATM   23  C12 UNL     1      24.419   0.630  52.684  1.00  0.00     0.227 C 
BRANCH  23  24
HETATM   24  O1  UNL     1      25.359   1.300  53.407  1.00  0.00    -0.383 OA
BRANCH  24  25
HETATM   25  C13 UNL     1      26.659   1.108  53.070  1.00  0.00     0.201 C 
BRANCH  25  26
HETATM   26  C14 UNL     1      27.626   0.751  54.161  1.00  0.00     0.162 C 
HETATM   27  C15 UNL     1      28.940   1.450  54.035  1.00  0.00     0.147 C 
HETATM   28  N4  UNL     1      29.999   0.685  53.511  1.00  0.00    -0.417 N 
HETATM   29  C16 UNL     1      29.944  -0.725  53.596  1.00  0.00     0.140 C 
HETATM   30  H17 UNL     1      30.674   1.119  52.886  1.00  0.00     0.153 HD
HETATM   31  C17 UNL     1      28.526  -1.180  53.280  1.00  0.00     0.187 C 
HETATM   32  O2  UNL     1      27.727  -0.622  54.282  1.00  0.00    -0.381 OA
ENDBRANCH  25  26
ENDBRANCH  24  25
ENDBRANCH  23  24
ENDBRANCH   3  23
TORSDOF 7
ENDMDL
