MODEL 1
REMARK VINA RESULT:      -8.3      0.000      0.000
REMARK  3 active torsions:
REMARK  status: ('A' for Active; 'I' for Inactive)
REMARK    1  A    between atoms: O1_2  and  C2_3 
REMARK    2  A    between atoms: C6_9  and  O2_10 
REMARK    3  A    between atoms: O2_10  and  C7_11 
ROOT
HETATM    1  C2  UNL     1      20.274  -0.158  52.712  1.00  0.00     0.076 A 
HETATM    2  C3  UNL     1      20.623  -0.790  53.887  1.00  0.00     0.070 A 
HETATM    3  C4  UNL     1      21.965  -0.823  54.186  1.00  0.00     0.075 A 
HETATM    4  N1  UNL     1      22.267  -1.457  55.356  1.00  0.00    -0.241 NA
HETATM    5  C5  UNL     1      23.565  -1.553  55.757  1.00  0.00     0.236 A 
HETATM    6  N2  UNL     1      24.549  -1.031  55.013  1.00  0.00    -0.217 NA
HETATM    7  C6  UNL     1      24.321  -0.394  53.851  1.00  0.00     0.183 A 
HETATM    8  C13 UNL     1      22.997  -0.295  53.441  1.00  0.00     0.047 A 
HETATM    9  C14 UNL     1      22.573   0.319  52.282  1.00  0.00     0.027 A 
HETATM   10  C15 UNL     1      21.249   0.396  51.909  1.00  0.00    -0.028 A 
HETATM   11  C16 UNL     1      20.847   1.073  50.647  1.00  0.00     0.051 C 
ENDROOT
BRANCH   7  12
HETATM   12  O2  UNL     1      25.179   0.205  52.950  1.00  0.00    -0.291 OA
BRANCH  12  13
HETATM   13  C7  UNL     1      26.505   0.421  53.178  1.00  0.00     0.079 A 
HETATM   14  C8  UNL     1      26.750   1.797  53.278  1.00  0.00     0.037 A 
HETATM   15  C9  UNL     1      28.038   2.290  53.512  1.00  0.00     0.004 A 
HETATM   16  C10 UNL     1      29.109   1.433  53.651  1.00  0.00     0.024 A 
HETATM   17  C11 UNL     1      28.852   0.083  53.550  1.00  0.00     0.036 A 
HETATM   18 CL1  UNL     1      30.101  -1.144  53.703  1.00  0.00    -0.084 Cl
HETATM   19  C12 UNL     1      27.588  -0.419  53.321  1.00  0.00     0.061 A 
ENDBRANCH  12  13
ENDBRANCH   7  12
BRANCH   1  20
HETATM   20  O1  UNL     1      18.932  -0.090  52.353  1.00  0.00    -0.355 OA
HETATM   21  C1  UNL     1      17.999  -1.042  52.852  1.00  0.00     0.210 C 
ENDBRANCH   1  20
TORSDOF 3
ENDMDL
MODEL 2
REMARK VINA RESULT:      -7.9      2.131      3.026
REMARK  3 active torsions:
REMARK  status: ('A' for Active; 'I' for Inactive)
REMARK    1  A    between atoms: O1_2  and  C2_3 
REMARK    2  A    between atoms: C6_9  and  O2_10 
REMARK    3  A    between atoms: O2_10  and  C7_11 
ROOT
HETATM    1  C2  UNL     1      21.186   0.058  52.448  1.00  0.00     0.076 A 
HETATM    2  C3  UNL     1      21.612   0.875  51.421  1.00  0.00     0.070 A 
HETATM    3  C4  UNL     1      22.894   1.362  51.520  1.00  0.00     0.075 A 
HETATM    4  N1  UNL     1      23.275   2.164  50.485  1.00  0.00    -0.241 NA
HETATM    5  C5  UNL     1      24.524   2.706  50.474  1.00  0.00     0.236 A 
HETATM    6  N2  UNL     1      25.383   2.459  51.471  1.00  0.00    -0.217 NA
HETATM    7  C6  UNL     1      25.072   1.679  52.521  1.00  0.00     0.183 A 
HETATM    8  C13 UNL     1      23.798   1.125  52.533  1.00  0.00     0.047 A 
HETATM    9  C14 UNL     1      23.303   0.303  53.523  1.00  0.00     0.027 A 
HETATM   10  C15 UNL     1      22.032  -0.227  53.500  1.00  0.00    -0.028 A 
HETATM   11  C16 UNL     1      21.549  -1.110  54.594  1.00  0.00     0.051 C 
ENDROOT
BRANCH   7  12
HETATM   12  O2  UNL     1      25.800   1.305  53.633  1.00  0.00    -0.291 OA
BRANCH  12  13
HETATM   13  C7  UNL     1      26.985   0.634  53.587  1.00  0.00     0.079 A 
HETATM   14  C8  UNL     1      28.040   1.519  53.842  1.00  0.00     0.037 A 
HETATM   15  C9  UNL     1      29.369   1.081  53.853  1.00  0.00     0.004 A 
HETATM   16  C10 UNL     1      29.680  -0.241  53.612  1.00  0.00     0.024 A 
HETATM   17  C11 UNL     1      28.631  -1.099  53.363  1.00  0.00     0.036 A 
HETATM   18 CL1  UNL     1      28.851  -2.812  53.038  1.00  0.00    -0.084 Cl
HETATM   19  C12 UNL     1      27.316  -0.683  53.349  1.00  0.00     0.061 A 
ENDBRANCH  12  13
ENDBRANCH   7  12
BRANCH   1  20
HETATM   20  O1  UNL     1      19.898  -0.467  52.405  1.00  0.00    -0.355 OA
HETATM   21  C1  UNL     1      18.827   0.285  51.848  1.00  0.00     0.210 C 
ENDBRANCH   1  20
TORSDOF 3
ENDMDL
MODEL 3
REMARK VINA RESULT:      -7.8      4.425      5.434
REMARK  3 active torsions:
REMARK  status: ('A' for Active; 'I' for Inactive)
REMARK    1  A    between atoms: O1_2  and  C2_3 
REMARK    2  A    between atoms: C6_9  and  O2_10 
REMARK    3  A    between atoms: O2_10  and  C7_11 
ROOT
HETATM    1  C2  UNL     1      23.083   0.200  52.958  1.00  0.00     0.076 A 
HETATM    2  C3  UNL     1      24.345   0.234  53.514  1.00  0.00     0.070 A 
HETATM    3  C4  UNL     1      25.279   1.004  52.862  1.00  0.00     0.075 A 
HETATM    4  N1  UNL     1      26.512   1.010  53.445  1.00  0.00    -0.241 NA
HETATM    5  C5  UNL     1      27.519   1.737  52.888  1.00  0.00     0.236 A 
HETATM    6  N2  UNL     1      27.311   2.448  51.772  1.00  0.00    -0.217 NA
HETATM    7  C6  UNL     1      26.121   2.486  51.148  1.00  0.00     0.183 A 
HETATM    8  C13 UNL     1      25.092   1.744  51.715  1.00  0.00     0.047 A 
HETATM    9  C14 UNL     1      23.809   1.662  51.217  1.00  0.00     0.027 A 
HETATM   10  C15 UNL     1      22.816   0.914  51.808  1.00  0.00    -0.028 A 
HETATM   11  C16 UNL     1      21.448   0.862  51.229  1.00  0.00     0.051 C 
ENDROOT
BRANCH   7  12
HETATM   12  O2  UNL     1      25.704   3.144  50.007  1.00  0.00    -0.291 OA
BRANCH  12  13
HETATM   13  C7  UNL     1      25.998   4.443  49.718  1.00  0.00     0.079 A 
HETATM   14  C8  UNL     1      27.135   4.500  48.900  1.00  0.00     0.037 A 
HETATM   15  C9  UNL     1      27.650   5.723  48.457  1.00  0.00     0.004 A 
HETATM   16  C10 UNL     1      27.052   6.914  48.814  1.00  0.00     0.024 A 
HETATM   17  C11 UNL     1      25.935   6.841  49.618  1.00  0.00     0.036 A 
HETATM   18 CL1  UNL     1      25.053   8.260  50.163  1.00  0.00    -0.084 Cl
HETATM   19  C12 UNL     1      25.415   5.644  50.063  1.00  0.00     0.061 A 
ENDBRANCH  12  13
ENDBRANCH   7  12
BRANCH   1  20
HETATM   20  O1  UNL     1      22.093  -0.561  53.571  1.00  0.00    -0.355 OA
HETATM   21  C1  UNL     1      22.257  -1.022  54.907  1.00  0.00     0.210 C 
ENDBRANCH   1  20
TORSDOF 3
ENDMDL
MODEL 4
REMARK VINA RESULT:      -7.6      4.191      5.156
REMARK  3 active torsions:
REMARK  status: ('A' for Active; 'I' for Inactive)
REMARK    1  A    between atoms: O1_2  and  C2_3 
REMARK    2  A    between atoms: C6_9  and  O2_10 
REMARK    3  A    between atoms: O2_10  and  C7_11 
ROOT
HETATM    1  C2  UNL     1      23.085  -0.007  52.936  1.00  0.00     0.076 A 
HETATM    2  C3  UNL     1      24.361   0.031  53.457  1.00  0.00     0.070 A 
HETATM    3  C4  UNL     1      25.254   0.865  52.826  1.00  0.00     0.075 A 
HETATM    4  N1  UNL     1      26.503   0.873  53.373  1.00  0.00    -0.241 NA
HETATM    5  C5  UNL     1      27.473   1.660  52.831  1.00  0.00     0.236 A 
HETATM    6  N2  UNL     1      27.212   2.428  51.765  1.00  0.00    -0.217 NA
HETATM    7  C6  UNL     1      26.003   2.467  51.178  1.00  0.00     0.183 A 
HETATM    8  C13 UNL     1      25.013   1.665  51.730  1.00  0.00     0.047 A 
HETATM    9  C14 UNL     1      23.718   1.574  51.264  1.00  0.00     0.027 A 
HETATM   10  C15 UNL     1      22.763   0.765  51.838  1.00  0.00    -0.028 A 
HETATM   11  C16 UNL     1      21.381   0.707  51.295  1.00  0.00     0.051 C 
ENDROOT
BRANCH   7  12
HETATM   12  O2  UNL     1      25.535   3.178  50.091  1.00  0.00    -0.291 OA
BRANCH  12  13
HETATM   13  C7  UNL     1      26.133   4.294  49.585  1.00  0.00     0.079 A 
HETATM   14  C8  UNL     1      25.298   5.403  49.768  1.00  0.00     0.037 A 
HETATM   15  C9  UNL     1      25.679   6.678  49.336  1.00  0.00     0.004 A 
HETATM   16  C10 UNL     1      26.893   6.881  48.714  1.00  0.00     0.024 A 
HETATM   17  C11 UNL     1      27.703   5.780  48.541  1.00  0.00     0.036 A 
HETATM   18 CL1  UNL     1      29.280   5.862  47.770  1.00  0.00    -0.084 Cl
HETATM   19  C12 UNL     1      27.343   4.517  48.962  1.00  0.00     0.061 A 
ENDBRANCH  12  13
ENDBRANCH   7  12
BRANCH   1  20
HETATM   20  O1  UNL     1      22.134  -0.831  53.531  1.00  0.00    -0.355 OA
HETATM   21  C1  UNL     1      21.890  -0.761  54.931  1.00  0.00     0.210 C 
ENDBRANCH   1  20
TORSDOF 3
ENDMDL
MODEL 5
REMARK VINA RESULT:      -7.6      3.547      6.490
REMARK  3 active torsions:
REMARK  status: ('A' for Active; 'I' for Inactive)
REMARK    1  A    between atoms: O1_2  and  C2_3 
REMARK    2  A    between atoms: C6_9  and  O2_10 
REMARK    3  A    between atoms: O2_10  and  C7_11 
ROOT
HETATM    1  C2  UNL     1      27.596   0.363  54.178  1.00  0.00     0.076 A 
HETATM    2  C3  UNL     1      26.488  -0.450  54.293  1.00  0.00     0.070 A 
HETATM    3  C4  UNL     1      25.295   0.079  53.862  1.00  0.00     0.075 A 
HETATM    4  N1  UNL     1      24.225  -0.758  53.993  1.00  0.00    -0.241 NA
HETATM    5  C5  UNL     1      22.990  -0.343  53.600  1.00  0.00     0.236 A 
HETATM    6  N2  UNL     1      22.814   0.881  53.085  1.00  0.00    -0.217 NA
HETATM    7  C6  UNL     1      23.824   1.755  52.928  1.00  0.00     0.183 A 
HETATM    8  C13 UNL     1      25.084   1.332  53.328  1.00  0.00     0.047 A 
HETATM    9  C14 UNL     1      26.235   2.087  53.245  1.00  0.00     0.027 A 
HETATM   10  C15 UNL     1      27.469   1.633  53.654  1.00  0.00    -0.028 A 
HETATM   11  C16 UNL     1      28.678   2.491  53.540  1.00  0.00     0.051 C 
ENDROOT
BRANCH   7  12
HETATM   12  O2  UNL     1      23.854   3.041  52.426  1.00  0.00    -0.291 OA
BRANCH  12  13
HETATM   13  C7  UNL     1      23.636   3.363  51.119  1.00  0.00     0.079 A 
HETATM   14  C8  UNL     1      23.895   4.724  50.918  1.00  0.00     0.037 A 
HETATM   15  C9  UNL     1      23.747   5.313  49.657  1.00  0.00     0.004 A 
HETATM   16  C10 UNL     1      23.339   4.566  48.571  1.00  0.00     0.024 A 
HETATM   17  C11 UNL     1      23.088   3.228  48.786  1.00  0.00     0.036 A 
HETATM   18 CL1  UNL     1      22.563   2.136  47.514  1.00  0.00    -0.084 Cl
HETATM   19  C12 UNL     1      23.230   2.634  50.022  1.00  0.00     0.061 A 
ENDBRANCH  12  13
ENDBRANCH   7  12
BRANCH   1  20
HETATM   20  O1  UNL     1      28.833  -0.115  54.597  1.00  0.00    -0.355 OA
HETATM   21  C1  UNL     1      29.578  -1.012  53.780  1.00  0.00     0.210 C 
ENDBRANCH   1  20
TORSDOF 3
ENDMDL
MODEL 6
REMARK VINA RESULT:      -7.6      3.110      6.974
REMARK  3 active torsions:
REMARK  status: ('A' for Active; 'I' for Inactive)
REMARK    1  A    between atoms: O1_2  and  C2_3 
REMARK    2  A    between atoms: C6_9  and  O2_10 
REMARK    3  A    between atoms: O2_10  and  C7_11 
ROOT
HETATM    1  C2  UNL     1      27.007   0.606  53.166  1.00  0.00     0.076 A 
HETATM    2  C3  UNL     1      26.555  -0.214  54.178  1.00  0.00     0.070 A 
HETATM    3  C4  UNL     1      25.193  -0.376  54.269  1.00  0.00     0.075 A 
HETATM    4  N1  UNL     1      24.788  -1.195  55.283  1.00  0.00    -0.241 NA
HETATM    5  C5  UNL     1      23.461  -1.430  55.473  1.00  0.00     0.236 A 
HETATM    6  N2  UNL     1      22.547  -0.865  54.673  1.00  0.00    -0.217 NA
HETATM    7  C6  UNL     1      22.877  -0.050  53.656  1.00  0.00     0.183 A 
HETATM    8  C13 UNL     1      24.231   0.191  53.462  1.00  0.00     0.047 A 
HETATM    9  C14 UNL     1      24.757   0.998  52.475  1.00  0.00     0.027 A 
HETATM   10  C15 UNL     1      26.107   1.213  52.314  1.00  0.00    -0.028 A 
HETATM   11  C16 UNL     1      26.620   2.093  51.230  1.00  0.00     0.051 C 
ENDROOT
BRANCH   7  12
HETATM   12  O2  UNL     1      22.103   0.622  52.731  1.00  0.00    -0.291 OA
BRANCH  12  13
HETATM   13  C7  UNL     1      20.820   0.288  52.414  1.00  0.00     0.079 A 
HETATM   14  C8  UNL     1      20.515   0.750  51.127  1.00  0.00     0.037 A 
HETATM   15  C9  UNL     1      19.255   0.536  50.558  1.00  0.00     0.004 A 
HETATM   16  C10 UNL     1      18.272  -0.139  51.251  1.00  0.00     0.024 A 
HETATM   17  C11 UNL     1      18.587  -0.588  52.515  1.00  0.00     0.036 A 
HETATM   18 CL1  UNL     1      17.453  -1.465  53.531  1.00  0.00    -0.084 Cl
HETATM   19  C12 UNL     1      19.825  -0.385  53.089  1.00  0.00     0.061 A 
ENDBRANCH  12  13
ENDBRANCH   7  12
BRANCH   1  20
HETATM   20  O1  UNL     1      28.376   0.811  53.020  1.00  0.00    -0.355 OA
HETATM   21  C1  UNL     1      29.299   0.204  53.917  1.00  0.00     0.210 C 
ENDBRANCH   1  20
TORSDOF 3
ENDMDL
MODEL 7
REMARK VINA RESULT:      -7.4      4.724      6.710
REMARK  3 active torsions:
REMARK  status: ('A' for Active; 'I' for Inactive)
REMARK    1  A    between atoms: O1_2  and  C2_3 
REMARK    2  A    between atoms: C6_9  and  O2_10 
REMARK    3  A    between atoms: O2_10  and  C7_11 
ROOT
HETATM    1  C2  UNL     1      25.872   6.290  49.658  1.00  0.00     0.076 A 
HETATM    2  C3  UNL     1      24.742   6.504  50.419  1.00  0.00     0.070 A 
HETATM    3  C4  UNL     1      24.148   5.386  50.956  1.00  0.00     0.075 A 
HETATM    4  N1  UNL     1      23.034   5.640  51.702  1.00  0.00    -0.241 NA
HETATM    5  C5  UNL     1      22.360   4.611  52.284  1.00  0.00     0.236 A 
HETATM    6  N2  UNL     1      22.781   3.348  52.132  1.00  0.00    -0.217 NA
HETATM    7  C6  UNL     1      23.870   3.028  51.411  1.00  0.00     0.183 A 
HETATM    8  C13 UNL     1      24.558   4.078  50.817  1.00  0.00     0.047 A 
HETATM    9  C14 UNL     1      25.692   3.942  50.044  1.00  0.00     0.027 A 
HETATM   10  C15 UNL     1      26.347   5.009  49.470  1.00  0.00    -0.028 A 
HETATM   11  C16 UNL     1      27.567   4.806  48.646  1.00  0.00     0.051 C 
ENDROOT
BRANCH   7  12
HETATM   12  O2  UNL     1      24.461   1.810  51.135  1.00  0.00    -0.291 OA
BRANCH  12  13
HETATM   13  C7  UNL     1      25.015   0.994  52.076  1.00  0.00     0.079 A 
HETATM   14  C8  UNL     1      26.375   0.805  51.797  1.00  0.00     0.037 A 
HETATM   15  C9  UNL     1      27.179   0.004  52.615  1.00  0.00     0.004 A 
HETATM   16  C10 UNL     1      26.655  -0.627  53.723  1.00  0.00     0.024 A 
HETATM   17  C11 UNL     1      25.316  -0.432  53.984  1.00  0.00     0.036 A 
HETATM   18 CL1  UNL     1      24.490  -1.159  55.354  1.00  0.00    -0.084 Cl
HETATM   19  C12 UNL     1      24.510   0.356  53.188  1.00  0.00     0.061 A 
ENDBRANCH  12  13
ENDBRANCH   7  12
BRANCH   1  20
HETATM   20  O1  UNL     1      26.520   7.382  49.087  1.00  0.00    -0.355 OA
HETATM   21  C1  UNL     1      26.847   8.522  49.873  1.00  0.00     0.210 C 
ENDBRANCH   1  20
TORSDOF 3
ENDMDL
MODEL 8
REMARK VINA RESULT:      -7.3      7.984      9.985
REMARK  3 active torsions:
REMARK  status: ('A' for Active; 'I' for Inactive)
REMARK    1  A    between atoms: O1_2  and  C2_3 
REMARK    2  A    between atoms: C6_9  and  O2_10 
REMARK    3  A    between atoms: O2_10  and  C7_11 
ROOT
HETATM    1  C2  UNL     1      26.023   5.877  49.011  1.00  0.00     0.076 A 
HETATM    2  C3  UNL     1      26.572   7.057  48.554  1.00  0.00     0.070 A 
HETATM    3  C4  UNL     1      27.884   7.002  48.147  1.00  0.00     0.075 A 
HETATM    4  N1  UNL     1      28.388   8.189  47.702  1.00  0.00    -0.241 NA
HETATM    5  C5  UNL     1      29.678   8.257  47.273  1.00  0.00     0.236 A 
HETATM    6  N2  UNL     1      30.459   7.169  47.284  1.00  0.00    -0.217 NA
HETATM    7  C6  UNL     1      30.026   5.969  47.710  1.00  0.00     0.183 A 
HETATM    8  C13 UNL     1      28.710   5.899  48.147  1.00  0.00     0.047 A 
HETATM    9  C14 UNL     1      28.094   4.758  48.618  1.00  0.00     0.027 A 
HETATM   10  C15 UNL     1      26.785   4.728  49.044  1.00  0.00    -0.028 A 
HETATM   11  C16 UNL     1      26.170   3.469  49.541  1.00  0.00     0.051 C 
ENDROOT
BRANCH   7  12
HETATM   12  O2  UNL     1      30.660   4.745  47.801  1.00  0.00    -0.291 OA
BRANCH  12  13
HETATM   13  C7  UNL     1      32.012   4.576  47.781  1.00  0.00     0.079 A 
HETATM   14  C8  UNL     1      32.338   3.472  46.982  1.00  0.00     0.037 A 
HETATM   15  C9  UNL     1      33.668   3.080  46.793  1.00  0.00     0.004 A 
HETATM   16  C10 UNL     1      34.701   3.771  47.392  1.00  0.00     0.024 A 
HETATM   17  C11 UNL     1      34.363   4.854  48.175  1.00  0.00     0.036 A 
HETATM   18 CL1  UNL     1      35.554   5.843  49.007  1.00  0.00    -0.084 Cl
HETATM   19  C12 UNL     1      33.058   5.253  48.369  1.00  0.00     0.061 A 
ENDBRANCH  12  13
ENDBRANCH   7  12
BRANCH   1  20
HETATM   20  O1  UNL     1      24.698   5.867  49.437  1.00  0.00    -0.355 OA
HETATM   21  C1  UNL     1      24.317   6.535  50.635  1.00  0.00     0.210 C 
ENDBRANCH   1  20
TORSDOF 3
ENDMDL
MODEL 9
REMARK VINA RESULT:      -7.3      2.080      2.582
REMARK  3 active torsions:
REMARK  status: ('A' for Active; 'I' for Inactive)
REMARK    1  A    between atoms: O1_2  and  C2_3 
REMARK    2  A    between atoms: C6_9  and  O2_10 
REMARK    3  A    between atoms: O2_10  and  C7_11 
ROOT
HETATM    1  C2  UNL     1      20.626   2.955  52.321  1.00  0.00     0.076 A 
HETATM    2  C3  UNL     1      20.473   1.833  53.107  1.00  0.00     0.070 A 
HETATM    3  C4  UNL     1      21.585   1.037  53.257  1.00  0.00     0.075 A 
HETATM    4  N1  UNL     1      21.391  -0.062  54.042  1.00  0.00    -0.241 NA
HETATM    5  C5  UNL     1      22.421  -0.925  54.263  1.00  0.00     0.236 A 
HETATM    6  N2  UNL     1      23.624  -0.705  53.716  1.00  0.00    -0.217 NA
HETATM    7  C6  UNL     1      23.882   0.357  52.933  1.00  0.00     0.183 A 
HETATM    8  C13 UNL     1      22.832   1.238  52.708  1.00  0.00     0.047 A 
HETATM    9  C14 UNL     1      22.909   2.377  51.934  1.00  0.00     0.027 A 
HETATM   10  C15 UNL     1      21.844   3.227  51.733  1.00  0.00    -0.028 A 
HETATM   11  C16 UNL     1      21.982   4.444  50.890  1.00  0.00     0.051 C 
ENDROOT
BRANCH   7  12
HETATM   12  O2  UNL     1      25.032   0.759  52.283  1.00  0.00    -0.291 OA
BRANCH  12  13
HETATM   13  C7  UNL     1      26.294   0.562  52.760  1.00  0.00     0.079 A 
HETATM   14  C8  UNL     1      26.682  -0.766  52.538  1.00  0.00     0.037 A 
HETATM   15  C9  UNL     1      27.940  -1.231  52.934  1.00  0.00     0.004 A 
HETATM   16  C10 UNL     1      28.839  -0.393  53.560  1.00  0.00     0.024 A 
HETATM   17  C11 UNL     1      28.443   0.910  53.772  1.00  0.00     0.036 A 
HETATM   18 CL1  UNL     1      29.465   2.107  54.553  1.00  0.00    -0.084 Cl
HETATM   19  C12 UNL     1      27.207   1.384  53.386  1.00  0.00     0.061 A 
ENDBRANCH  12  13
ENDBRANCH   7  12
BRANCH   1  20
HETATM   20  O1  UNL     1      19.538   3.801  52.130  1.00  0.00    -0.355 OA
HETATM   21  C1  UNL     1      18.354   3.329  51.496  1.00  0.00     0.210 C 
ENDBRANCH   1  20
TORSDOF 3
ENDMDL
