MODEL 1
REMARK VINA RESULT:      -7.3      0.000      0.000
REMARK  4 active torsions:
REMARK  status: ('A' for Active; 'I' for Inactive)
REMARK    1  A    between atoms: O1_2  and  C2_3 
REMARK    2  A    between atoms: C2_3  and  C3_4 
REMARK    3  A    between atoms: C3_4  and  C4_5 
REMARK    4  A    between atoms: C4_5  and  O2_6 
ROOT
HETATM    1  C4  UNL     1      29.147   5.923  48.046  1.00  0.00     0.073 C 
HETATM    2  C6  UNL     1      30.415   6.051  47.697  1.00  0.00     0.019 C 
HETATM    3  C7  UNL     1      31.052   4.755  47.697  1.00  0.00     0.161 C 
HETATM    4  N1  UNL     1      32.346   4.745  48.346  1.00  0.00    -0.381 N 
HETATM    5  C8  UNL     1      33.254   5.846  48.384  1.00  0.00     0.107 A 
HETATM    6  C9  UNL     1      34.553   5.559  48.333  1.00  0.00     0.067 A 
HETATM    7  N2  UNL     1      35.509   6.476  48.432  1.00  0.00    -0.244 NA
HETATM    8  C10 UNL     1      35.351   7.771  48.578  1.00  0.00     0.236 A 
HETATM    9  N3  UNL     1      34.051   8.135  48.624  1.00  0.00    -0.216 NA
HETATM   10  C11 UNL     1      33.095   7.201  48.527  1.00  0.00     0.197 A 
HETATM   11  O3  UNL     1      31.766   7.719  48.549  1.00  0.00    -0.302 OA
HETATM   12  C12 UNL     1      30.969   7.366  47.366  1.00  0.00     0.271 C 
HETATM   13  N4  UNL     1      31.814   7.331  46.164  1.00  0.00    -0.324 N 
HETATM   14  C13 UNL     1      32.636   6.314  45.818  1.00  0.00    -0.028 C 
HETATM   15  C14 UNL     1      33.350   5.395  45.514  1.00  0.00     0.063 A 
HETATM   16  C15 UNL     1      34.201   4.303  45.180  1.00  0.00     0.082 A 
HETATM   17 BR1  UNL     1      33.389   4.697  43.604  1.00  0.00    -0.103 Br
HETATM   18  C16 UNL     1      34.658   4.170  46.424  1.00  0.00     0.024 C 
HETATM   19  C17 UNL     1      35.035   4.212  47.913  1.00  0.00     0.069 C 
HETATM   20  H11 UNL     1      32.707   3.878  48.850  1.00  0.00     0.160 HD
HETATM   21  H14 UNL     1      32.246   7.579  45.294  1.00  0.00     0.172 HD
ENDROOT
BRANCH   1  22
HETATM   22  C3  UNL     1      28.037   6.843  48.224  1.00  0.00     0.016 C 
BRANCH  22  23
HETATM   23  C2  UNL     1      27.174   7.849  48.349  1.00  0.00     0.027 C 
BRANCH  23  24
HETATM   24  O1  UNL     1      27.786   9.130  48.363  1.00  0.00     0.000 OA
HETATM   25  C1  UNL     1      28.393   9.532  49.605  1.00  0.00     0.000 C 
ENDBRANCH  23  24
ENDBRANCH  22  23
ENDBRANCH   1  22
BRANCH   1  26
HETATM   26  O2  UNL     1      28.549   4.702  48.357  1.00  0.00    -0.356 OA
HETATM   27  C5  UNL     1      27.227   4.696  48.873  1.00  0.00     0.210 C 
ENDBRANCH   1  26
TORSDOF 4
ENDMDL
MODEL 2
REMARK VINA RESULT:      -7.1      7.313      9.824
REMARK  4 active torsions:
REMARK  status: ('A' for Active; 'I' for Inactive)
REMARK    1  A    between atoms: O1_2  and  C2_3 
REMARK    2  A    between atoms: C2_3  and  C3_4 
REMARK    3  A    between atoms: C3_4  and  C4_5 
REMARK    4  A    between atoms: C4_5  and  O2_6 
ROOT
HETATM    1  C4  UNL     1      25.205   3.725  50.641  1.00  0.00     0.073 C 
HETATM    2  C6  UNL     1      25.554   2.878  51.593  1.00  0.00     0.019 C 
HETATM    3  C7  UNL     1      26.604   2.011  51.112  1.00  0.00     0.161 C 
HETATM    4  N1  UNL     1      26.394   0.614  51.429  1.00  0.00    -0.381 N 
HETATM    5  C8  UNL     1      25.716   0.128  52.587  1.00  0.00     0.107 A 
HETATM    6  C9  UNL     1      26.174  -1.000  53.126  1.00  0.00     0.067 A 
HETATM    7  N2  UNL     1      25.599  -1.603  54.159  1.00  0.00    -0.244 NA
HETATM    8  C10 UNL     1      24.531  -1.207  54.813  1.00  0.00     0.236 A 
HETATM    9  N3  UNL     1      24.020  -0.056  54.325  1.00  0.00    -0.216 NA
HETATM   10  C11 UNL     1      24.608   0.542  53.281  1.00  0.00     0.197 A 
HETATM   11  O3  UNL     1      23.995   1.770  52.889  1.00  0.00    -0.302 OA
HETATM   12  C12 UNL     1      24.907   2.923  52.907  1.00  0.00     0.271 C 
HETATM   13  N4  UNL     1      25.871   2.804  54.010  1.00  0.00    -0.324 N 
HETATM   14  C13 UNL     1      26.978   2.027  53.998  1.00  0.00    -0.028 C 
HETATM   15  C14 UNL     1      27.968   1.345  53.967  1.00  0.00     0.063 A 
HETATM   16  C15 UNL     1      29.126   0.519  53.916  1.00  0.00     0.082 A 
HETATM   17 BR1  UNL     1      29.751   2.072  54.619  1.00  0.00    -0.103 Br
HETATM   18  C16 UNL     1      28.472  -0.509  53.375  1.00  0.00     0.024 C 
HETATM   19  C17 UNL     1      27.515  -1.544  52.765  1.00  0.00     0.069 C 
HETATM   20  H11 UNL     1      26.751  -0.160  50.789  1.00  0.00     0.160 HD
HETATM   21  H14 UNL     1      26.339   2.939  54.885  1.00  0.00     0.172 HD
ENDROOT
BRANCH   1  22
HETATM   22  C3  UNL     1      24.233   4.799  50.533  1.00  0.00     0.016 C 
BRANCH  22  23
HETATM   23  C2  UNL     1      23.355   5.791  50.661  1.00  0.00     0.027 C 
BRANCH  23  24
HETATM   24  O1  UNL     1      22.387   5.572  51.677  1.00  0.00     0.000 OA
HETATM   25  C1  UNL     1      21.663   4.329  51.608  1.00  0.00     0.000 C 
ENDBRANCH  23  24
ENDBRANCH  22  23
ENDBRANCH   1  22
BRANCH   1  26
HETATM   26  O2  UNL     1      25.790   3.751  49.375  1.00  0.00    -0.356 OA
HETATM   27  C5  UNL     1      26.597   4.859  49.013  1.00  0.00     0.210 C 
ENDBRANCH   1  26
TORSDOF 4
ENDMDL
MODEL 3
REMARK VINA RESULT:      -6.7      6.209      9.560
REMARK  4 active torsions:
REMARK  status: ('A' for Active; 'I' for Inactive)
REMARK    1  A    between atoms: O1_2  and  C2_3 
REMARK    2  A    between atoms: C2_3  and  C3_4 
REMARK    3  A    between atoms: C3_4  and  C4_5 
REMARK    4  A    between atoms: C4_5  and  O2_6 
ROOT
HETATM    1  C4  UNL     1      24.862   6.231  50.515  1.00  0.00     0.073 C 
HETATM    2  C6  UNL     1      24.686   4.925  50.614  1.00  0.00     0.019 C 
HETATM    3  C7  UNL     1      23.599   4.649  51.523  1.00  0.00     0.161 C 
HETATM    4  N1  UNL     1      23.892   3.599  52.477  1.00  0.00    -0.381 N 
HETATM    5  C8  UNL     1      24.750   2.486  52.232  1.00  0.00     0.107 A 
HETATM    6  C9  UNL     1      24.410   1.328  52.792  1.00  0.00     0.067 A 
HETATM    7  N2  UNL     1      25.152   0.229  52.710  1.00  0.00    -0.244 NA
HETATM    8  C10 UNL     1      26.295   0.092  52.079  1.00  0.00     0.236 A 
HETATM    9  N3  UNL     1      26.695   1.231  51.473  1.00  0.00    -0.216 NA
HETATM   10  C11 UNL     1      25.940   2.334  51.566  1.00  0.00     0.197 A 
HETATM   11  O3  UNL     1      26.452   3.456  50.850  1.00  0.00    -0.302 OA
HETATM   12  C12 UNL     1      25.523   3.998  49.849  1.00  0.00     0.271 C 
HETATM   13  N4  UNL     1      24.741   2.919  49.229  1.00  0.00    -0.324 N 
HETATM   14  C13 UNL     1      23.667   2.316  49.786  1.00  0.00    -0.028 C 
HETATM   15  C14 UNL     1      22.702   1.800  50.286  1.00  0.00     0.063 A 
HETATM   16  C15 UNL     1      21.572   1.191  50.902  1.00  0.00     0.082 A 
HETATM   17 BR1  UNL     1      21.020   1.465  49.194  1.00  0.00    -0.103 Br
HETATM   18  C16 UNL     1      22.165   1.102  52.093  1.00  0.00     0.024 C 
HETATM   19  C17 UNL     1      23.045   1.106  53.352  1.00  0.00     0.069 C 
HETATM   20  H11 UNL     1      23.463   3.600  53.452  1.00  0.00     0.160 HD
HETATM   21  H14 UNL     1      24.408   2.239  48.573  1.00  0.00     0.172 HD
ENDROOT
BRANCH   1  22
HETATM   22  C3  UNL     1      25.778   7.087  49.780  1.00  0.00     0.016 C 
BRANCH  22  23
HETATM   23  C2  UNL     1      26.771   7.710  49.150  1.00  0.00     0.027 C 
BRANCH  23  24
HETATM   24  O1  UNL     1      27.274   6.997  48.029  1.00  0.00     0.000 OA
HETATM   25  C1  UNL     1      28.304   6.029  48.301  1.00  0.00     0.000 C 
ENDBRANCH  23  24
ENDBRANCH  22  23
ENDBRANCH   1  22
BRANCH   1  26
HETATM   26  O2  UNL     1      24.092   7.171  51.200  1.00  0.00    -0.356 OA
HETATM   27  C5  UNL     1      23.344   8.120  50.456  1.00  0.00     0.210 C 
ENDBRANCH   1  26
TORSDOF 4
ENDMDL
MODEL 4
REMARK VINA RESULT:      -6.7      6.569     10.007
REMARK  4 active torsions:
REMARK  status: ('A' for Active; 'I' for Inactive)
REMARK    1  A    between atoms: O1_2  and  C2_3 
REMARK    2  A    between atoms: C2_3  and  C3_4 
REMARK    3  A    between atoms: C3_4  and  C4_5 
REMARK    4  A    between atoms: C4_5  and  O2_6 
ROOT
HETATM    1  C4  UNL     1      25.616   6.528  49.404  1.00  0.00     0.073 C 
HETATM    2  C6  UNL     1      24.818   5.718  50.076  1.00  0.00     0.019 C 
HETATM    3  C7  UNL     1      24.979   4.366  49.594  1.00  0.00     0.161 C 
HETATM    4  N1  UNL     1      23.726   3.675  49.374  1.00  0.00    -0.381 N 
HETATM    5  C8  UNL     1      22.527   3.894  50.116  1.00  0.00     0.107 A 
HETATM    6  C9  UNL     1      21.755   2.834  50.343  1.00  0.00     0.067 A 
HETATM    7  N2  UNL     1      20.579   2.903  50.955  1.00  0.00    -0.244 NA
HETATM    8  C10 UNL     1      19.999   3.979  51.437  1.00  0.00     0.236 A 
HETATM    9  N3  UNL     1      20.737   5.095  51.252  1.00  0.00    -0.216 NA
HETATM   10  C11 UNL     1      21.921   5.013  50.630  1.00  0.00     0.197 A 
HETATM   11  O3  UNL     1      22.618   6.254  50.534  1.00  0.00    -0.302 OA
HETATM   12  C12 UNL     1      23.956   6.233  51.143  1.00  0.00     0.271 C 
HETATM   13  N4  UNL     1      23.969   5.376  52.337  1.00  0.00    -0.324 N 
HETATM   14  C13 UNL     1      24.038   4.026  52.326  1.00  0.00    -0.028 C 
HETATM   15  C14 UNL     1      24.117   2.826  52.303  1.00  0.00     0.063 A 
HETATM   16  C15 UNL     1      24.195   1.405  52.252  1.00  0.00     0.082 A 
HETATM   17 BR1  UNL     1      25.383   1.843  53.554  1.00  0.00    -0.103 Br
HETATM   18  C16 UNL     1      23.303   1.308  51.267  1.00  0.00     0.024 C 
HETATM   19  C17 UNL     1      22.263   1.446  50.145  1.00  0.00     0.069 C 
HETATM   20  H11 UNL     1      23.627   2.932  48.616  1.00  0.00     0.160 HD
HETATM   21  H14 UNL     1      23.978   5.071  53.291  1.00  0.00     0.172 HD
ENDROOT
BRANCH   1  22
HETATM   22  C3  UNL     1      25.886   7.955  49.433  1.00  0.00     0.016 C 
BRANCH  22  23
HETATM   23  C2  UNL     1      26.030   9.258  49.664  1.00  0.00     0.027 C 
BRANCH  23  24
HETATM   24  O1  UNL     1      27.188   9.581  50.420  1.00  0.00     0.000 OA
HETATM   25  C1  UNL     1      28.433   9.607  49.698  1.00  0.00     0.000 C 
ENDBRANCH  23  24
ENDBRANCH  22  23
ENDBRANCH   1  22
BRANCH   1  26
HETATM   26  O2  UNL     1      26.474   6.104  48.389  1.00  0.00    -0.356 OA
HETATM   27  C5  UNL     1      27.874   6.251  48.567  1.00  0.00     0.210 C 
ENDBRANCH   1  26
TORSDOF 4
ENDMDL
MODEL 5
REMARK VINA RESULT:      -6.7      7.542     10.341
REMARK  4 active torsions:
REMARK  status: ('A' for Active; 'I' for Inactive)
REMARK    1  A    between atoms: O1_2  and  C2_3 
REMARK    2  A    between atoms: C2_3  and  C3_4 
REMARK    3  A    between atoms: C3_4  and  C4_5 
REMARK    4  A    between atoms: C4_5  and  O2_6 
ROOT
HETATM    1  C4  UNL     1      20.787   2.171  50.149  1.00  0.00     0.073 C 
HETATM    2  C6  UNL     1      21.943   2.691  50.523  1.00  0.00     0.019 C 
HETATM    3  C7  UNL     1      22.626   3.236  49.374  1.00  0.00     0.161 C 
HETATM    4  N1  UNL     1      24.028   2.881  49.309  1.00  0.00    -0.381 N 
HETATM    5  C8  UNL     1      24.870   2.655  50.439  1.00  0.00     0.107 A 
HETATM    6  C9  UNL     1      26.139   3.041  50.333  1.00  0.00     0.067 A 
HETATM    7  N2  UNL     1      27.050   2.829  51.276  1.00  0.00    -0.244 NA
HETATM    8  C10 UNL     1      26.866   2.238  52.435  1.00  0.00     0.236 A 
HETATM    9  N3  UNL     1      25.591   1.832  52.615  1.00  0.00    -0.216 NA
HETATM   10  C11 UNL     1      24.682   2.049  51.655  1.00  0.00     0.197 A 
HETATM   11  O3  UNL     1      23.366   1.608  51.986  1.00  0.00    -0.302 OA
HETATM   12  C12 UNL     1      22.351   2.670  51.930  1.00  0.00     0.271 C 
HETATM   13  N4  UNL     1      22.919   3.953  52.368  1.00  0.00    -0.324 N 
HETATM   14  C13 UNL     1      23.694   4.761  51.610  1.00  0.00    -0.028 C 
HETATM   15  C14 UNL     1      24.368   5.479  50.919  1.00  0.00     0.063 A 
HETATM   16  C15 UNL     1      25.178   6.306  50.089  1.00  0.00     0.082 A 
HETATM   17 BR1  UNL     1      24.029   7.483  50.859  1.00  0.00    -0.103 Br
HETATM   18  C16 UNL     1      25.897   5.283  49.629  1.00  0.00     0.024 C 
HETATM   19  C17 UNL     1      26.583   3.962  49.248  1.00  0.00     0.069 C 
HETATM   20  H11 UNL     1      24.529   2.767  48.376  1.00  0.00     0.160 HD
HETATM   21  H14 UNL     1      23.141   4.758  52.921  1.00  0.00     0.172 HD
ENDROOT
BRANCH   1  22
HETATM   22  C3  UNL     1      19.699   1.496  50.836  1.00  0.00     0.016 C 
BRANCH  22  23
HETATM   23  C2  UNL     1      18.845   0.870  51.642  1.00  0.00     0.027 C 
BRANCH  23  24
HETATM   24  O1  UNL     1      19.404  -0.252  52.310  1.00  0.00     0.000 OA
HETATM   25  C1  UNL     1      20.237   0.037  53.448  1.00  0.00     0.000 C 
ENDBRANCH  23  24
ENDBRANCH  22  23
ENDBRANCH   1  22
BRANCH   1  26
HETATM   26  O2  UNL     1      20.328   2.171  48.832  1.00  0.00    -0.356 OA
HETATM   27  C5  UNL     1      19.111   2.835  48.529  1.00  0.00     0.210 C 
ENDBRANCH   1  26
TORSDOF 4
ENDMDL
MODEL 6
REMARK VINA RESULT:      -6.6      9.239     12.305
REMARK  4 active torsions:
REMARK  status: ('A' for Active; 'I' for Inactive)
REMARK    1  A    between atoms: O1_2  and  C2_3 
REMARK    2  A    between atoms: C2_3  and  C3_4 
REMARK    3  A    between atoms: C3_4  and  C4_5 
REMARK    4  A    between atoms: C4_5  and  O2_6 
ROOT
HETATM    1  C4  UNL     1      24.583   1.561  52.683  1.00  0.00     0.073 C 
HETATM    2  C6  UNL     1      23.503   1.881  51.994  1.00  0.00     0.019 C 
HETATM    3  C7  UNL     1      23.623   3.233  51.501  1.00  0.00     0.161 C 
HETATM    4  N1  UNL     1      22.429   4.030  51.693  1.00  0.00    -0.381 N 
HETATM    5  C8  UNL     1      21.096   3.522  51.694  1.00  0.00     0.107 A 
HETATM    6  C9  UNL     1      20.152   4.304  51.175  1.00  0.00     0.067 A 
HETATM    7  N2  UNL     1      18.861   3.991  51.175  1.00  0.00    -0.244 NA
HETATM    8  C10 UNL     1      18.312   2.899  51.653  1.00  0.00     0.236 A 
HETATM    9  N3  UNL     1      19.218   2.050  52.185  1.00  0.00    -0.216 NA
HETATM   10  C11 UNL     1      20.517   2.378  52.181  1.00  0.00     0.197 A 
HETATM   11  O3  UNL     1      21.373   1.380  52.735  1.00  0.00    -0.302 OA
HETATM   12  C12 UNL     1      22.418   0.913  51.813  1.00  0.00     0.271 C 
HETATM   13  N4  UNL     1      21.915   0.887  50.432  1.00  0.00    -0.324 N 
HETATM   14  C13 UNL     1      21.794   1.966  49.625  1.00  0.00    -0.028 C 
HETATM   15  C14 UNL     1      21.708   2.931  48.913  1.00  0.00     0.063 A 
HETATM   16  C15 UNL     1      21.598   4.089  48.092  1.00  0.00     0.082 A 
HETATM   17 BR1  UNL     1      22.338   2.857  46.982  1.00  0.00    -0.103 Br
HETATM   18  C16 UNL     1      21.078   4.834  49.067  1.00  0.00     0.024 C 
HETATM   19  C17 UNL     1      20.497   5.484  50.332  1.00  0.00     0.069 C 
HETATM   20  H11 UNL     1      22.484   5.082  51.848  1.00  0.00     0.160 HD
HETATM   21  H14 UNL     1      21.566   0.562  49.551  1.00  0.00     0.172 HD
ENDROOT
BRANCH   1  22
HETATM   22  C3  UNL     1      25.025   0.379  53.403  1.00  0.00     0.016 C 
BRANCH  22  23
HETATM   23  C2  UNL     1      25.236  -0.680  54.180  1.00  0.00     0.027 C 
BRANCH  23  24
HETATM   24  O1  UNL     1      26.479  -1.326  53.943  1.00  0.00     0.000 OA
HETATM   25  C1  UNL     1      26.761  -1.679  52.576  1.00  0.00     0.000 C 
ENDBRANCH  23  24
ENDBRANCH  22  23
ENDBRANCH   1  22
BRANCH   1  26
HETATM   26  O2  UNL     1      25.660   2.425  52.881  1.00  0.00    -0.356 OA
HETATM   27  C5  UNL     1      26.935   2.061  52.376  1.00  0.00     0.210 C 
ENDBRANCH   1  26
TORSDOF 4
ENDMDL
MODEL 7
REMARK VINA RESULT:      -6.5      2.829      6.103
REMARK  4 active torsions:
REMARK  status: ('A' for Active; 'I' for Inactive)
REMARK    1  A    between atoms: O1_2  and  C2_3 
REMARK    2  A    between atoms: C2_3  and  C3_4 
REMARK    3  A    between atoms: C3_4  and  C4_5 
REMARK    4  A    between atoms: C4_5  and  O2_6 
ROOT
HETATM    1  C4  UNL     1      34.313   5.948  47.664  1.00  0.00     0.073 C 
HETATM    2  C6  UNL     1      33.239   6.710  47.564  1.00  0.00     0.019 C 
HETATM    3  C7  UNL     1      33.429   7.920  48.329  1.00  0.00     0.161 C 
HETATM    4  N1  UNL     1      32.289   8.274  49.149  1.00  0.00    -0.381 N 
HETATM    5  C8  UNL     1      30.928   7.990  48.828  1.00  0.00     0.107 A 
HETATM    6  C9  UNL     1      30.021   8.895  49.190  1.00  0.00     0.067 A 
HETATM    7  N2  UNL     1      28.714   8.730  49.020  1.00  0.00    -0.244 NA
HETATM    8  C10 UNL     1      28.111   7.697  48.477  1.00  0.00     0.236 A 
HETATM    9  N3  UNL     1      28.977   6.742  48.073  1.00  0.00    -0.216 NA
HETATM   10  C11 UNL     1      30.292   6.919  48.252  1.00  0.00     0.197 A 
HETATM   11  O3  UNL     1      31.100   5.857  47.746  1.00  0.00    -0.302 OA
HETATM   12  C12 UNL     1      32.095   6.287  46.753  1.00  0.00     0.271 C 
HETATM   13  N4  UNL     1      31.561   7.377  45.924  1.00  0.00    -0.324 N 
HETATM   14  C13 UNL     1      31.487   8.675  46.297  1.00  0.00    -0.028 C 
HETATM   15  C14 UNL     1      31.443   9.828  46.635  1.00  0.00     0.063 A 
HETATM   16  C15 UNL     1      31.385  11.186  47.061  1.00  0.00     0.082 A 
HETATM   17 BR1  UNL     1      32.026  11.307  45.366  1.00  0.00    -0.103 Br
HETATM   18  C16 UNL     1      30.932  10.873  48.274  1.00  0.00     0.024 C 
HETATM   19  C17 UNL     1      30.418  10.275  49.592  1.00  0.00     0.069 C 
HETATM   20  H11 UNL     1      32.410   8.788  50.074  1.00  0.00     0.160 HD
HETATM   21  H14 UNL     1      31.174   7.887  45.153  1.00  0.00     0.172 HD
ENDROOT
BRANCH   1  22
HETATM   22  C3  UNL     1      34.699   4.649  47.137  1.00  0.00     0.016 C 
BRANCH  22  23
HETATM   23  C2  UNL     1      34.909   3.509  46.484  1.00  0.00     0.027 C 
BRANCH  23  24
HETATM   24  O1  UNL     1      33.784   2.642  46.467  1.00  0.00     0.000 OA
HETATM   25  C1  UNL     1      33.114   2.445  47.726  1.00  0.00     0.000 C 
ENDBRANCH  23  24
ENDBRANCH  22  23
ENDBRANCH   1  22
BRANCH   1  26
HETATM   26  O2  UNL     1      35.444   6.294  48.403  1.00  0.00    -0.356 OA
HETATM   27  C5  UNL     1      35.765   5.541  49.561  1.00  0.00     0.210 C 
ENDBRANCH   1  26
TORSDOF 4
ENDMDL
MODEL 8
REMARK VINA RESULT:      -6.4      7.883     10.443
REMARK  4 active torsions:
REMARK  status: ('A' for Active; 'I' for Inactive)
REMARK    1  A    between atoms: O1_2  and  C2_3 
REMARK    2  A    between atoms: C2_3  and  C3_4 
REMARK    3  A    between atoms: C3_4  and  C4_5 
REMARK    4  A    between atoms: C4_5  and  O2_6 
ROOT
HETATM    1  C4  UNL     1      20.107   4.381  49.740  1.00  0.00     0.073 C 
HETATM    2  C6  UNL     1      21.337   4.432  50.219  1.00  0.00     0.019 C 
HETATM    3  C7  UNL     1      22.285   4.339  49.134  1.00  0.00     0.161 C 
HETATM    4  N1  UNL     1      23.372   3.417  49.390  1.00  0.00    -0.381 N 
HETATM    5  C8  UNL     1      23.922   3.134  50.676  1.00  0.00     0.107 A 
HETATM    6  C9  UNL     1      25.231   2.903  50.735  1.00  0.00     0.067 A 
HETATM    7  N2  UNL     1      25.864   2.558  51.850  1.00  0.00    -0.244 NA
HETATM    8  C10 UNL     1      25.337   2.401  53.042  1.00  0.00     0.236 A 
HETATM    9  N3  UNL     1      24.006   2.633  53.058  1.00  0.00    -0.216 NA
HETATM   10  C11 UNL     1      23.379   2.978  51.926  1.00  0.00     0.197 A 
HETATM   11  O3  UNL     1      21.984   3.234  52.085  1.00  0.00    -0.302 OA
HETATM   12  C12 UNL     1      21.573   4.579  51.657  1.00  0.00     0.271 C 
HETATM   13  N4  UNL     1      22.625   5.562  51.954  1.00  0.00    -0.324 N 
HETATM   14  C13 UNL     1      23.743   5.753  51.217  1.00  0.00    -0.028 C 
HETATM   15  C14 UNL     1      24.724   5.925  50.543  1.00  0.00     0.063 A 
HETATM   16  C15 UNL     1      25.887   6.101  49.740  1.00  0.00     0.082 A 
HETATM   17 BR1  UNL     1      25.342   7.803  50.066  1.00  0.00    -0.103 Br
HETATM   18  C16 UNL     1      26.097   4.792  49.609  1.00  0.00     0.024 C 
HETATM   19  C17 UNL     1      26.134   3.256  49.601  1.00  0.00     0.069 C 
HETATM   20  H11 UNL     1      23.841   2.879  48.599  1.00  0.00     0.160 HD
HETATM   21  H14 UNL     1      23.144   6.303  52.386  1.00  0.00     0.172 HD
ENDROOT
BRANCH   1  22
HETATM   22  C3  UNL     1      18.778   4.421  50.327  1.00  0.00     0.016 C 
BRANCH  22  23
HETATM   23  C2  UNL     1      17.492   4.370  50.666  1.00  0.00     0.027 C 
BRANCH  23  24
HETATM   24  O1  UNL     1      17.270   4.006  52.020  1.00  0.00     0.000 OA
HETATM   25  C1  UNL     1      15.914   4.106  52.492  1.00  0.00     0.000 C 
ENDBRANCH  23  24
ENDBRANCH  22  23
ENDBRANCH   1  22
BRANCH   1  26
HETATM   26  O2  UNL     1      19.808   4.259  48.383  1.00  0.00    -0.356 OA
HETATM   27  C5  UNL     1      19.330   3.016  47.894  1.00  0.00     0.210 C 
ENDBRANCH   1  26
TORSDOF 4
ENDMDL
MODEL 9
REMARK VINA RESULT:      -6.2      3.692      7.201
REMARK  4 active torsions:
REMARK  status: ('A' for Active; 'I' for Inactive)
REMARK    1  A    between atoms: O1_2  and  C2_3 
REMARK    2  A    between atoms: C2_3  and  C3_4 
REMARK    3  A    between atoms: C3_4  and  C4_5 
REMARK    4  A    between atoms: C4_5  and  O2_6 
ROOT
HETATM    1  C4  UNL     1      31.762   7.957  47.842  1.00  0.00     0.073 C 
HETATM    2  C6  UNL     1      30.706   8.669  48.194  1.00  0.00     0.019 C 
HETATM    3  C7  UNL     1      29.612   8.394  47.292  1.00  0.00     0.161 C 
HETATM    4  N1  UNL     1      28.924   9.583  46.834  1.00  0.00    -0.381 N 
HETATM    5  C8  UNL     1      28.775  10.785  47.588  1.00  0.00     0.107 A 
HETATM    6  C9  UNL     1      27.635  11.455  47.437  1.00  0.00     0.067 A 
HETATM    7  N2  UNL     1      27.389  12.623  48.019  1.00  0.00    -0.244 NA
HETATM    8  C10 UNL     1      28.187  13.290  48.821  1.00  0.00     0.236 A 
HETATM    9  N3  UNL     1      29.362  12.659  49.030  1.00  0.00    -0.216 NA
HETATM   10  C11 UNL     1      29.599  11.482  48.435  1.00  0.00     0.197 A 
HETATM   11  O3  UNL     1      30.859  10.901  48.769  1.00  0.00    -0.302 OA
HETATM   12  C12 UNL     1      30.757   9.557  49.357  1.00  0.00     0.271 C 
HETATM   13  N4  UNL     1      29.557   9.449  50.198  1.00  0.00    -0.324 N 
HETATM   14  C13 UNL     1      28.299   9.259  49.740  1.00  0.00    -0.028 C 
HETATM   15  C14 UNL     1      27.187   9.072  49.320  1.00  0.00     0.063 A 
HETATM   16  C15 UNL     1      25.877   8.867  48.800  1.00  0.00     0.082 A 
HETATM   17 BR1  UNL     1      25.962   7.704  50.193  1.00  0.00    -0.103 Br
HETATM   18  C16 UNL     1      26.034   9.761  47.825  1.00  0.00     0.024 C 
HETATM   19  C17 UNL     1      26.444  10.826  46.796  1.00  0.00     0.069 C 
HETATM   20  H11 UNL     1      28.470   9.625  45.871  1.00  0.00     0.160 HD
HETATM   21  H14 UNL     1      28.953   9.399  50.997  1.00  0.00     0.172 HD
ENDROOT
BRANCH   1  22
HETATM   22  C3  UNL     1      33.117   7.818  48.350  1.00  0.00     0.016 C 
BRANCH  22  23
HETATM   23  C2  UNL     1      34.421   7.731  48.600  1.00  0.00     0.027 C 
BRANCH  23  24
HETATM   24  O1  UNL     1      35.020   6.539  48.113  1.00  0.00     0.000 OA
HETATM   25  C1  UNL     1      35.202   5.481  49.073  1.00  0.00     0.000 C 
ENDBRANCH  23  24
ENDBRANCH  22  23
ENDBRANCH   1  22
BRANCH   1  26
HETATM   26  O2  UNL     1      31.779   7.080  46.758  1.00  0.00    -0.356 OA
HETATM   27  C5  UNL     1      31.867   5.685  47.005  1.00  0.00     0.210 C 
ENDBRANCH   1  26
TORSDOF 4
ENDMDL
