MODEL 1
REMARK VINA RESULT:      -8.4      0.000      0.000
REMARK  6 active torsions:
REMARK  status: ('A' for Active; 'I' for Inactive)
REMARK    1  A    between atoms: O1_2  and  C2_3 
REMARK    2  A    between atoms: C6_9  and  O2_10 
REMARK    3  A    between atoms: O2_10  and  C7_11 
REMARK    4  A    between atoms: C10_14  and  N3_15 
REMARK       I    between atoms: N3_15  and  C11_16 
REMARK       I    between atoms: C11_16  and  N4_18 
REMARK    5  A    between atoms: N4_18  and  C12_19 
REMARK    6  A    between atoms: C21_29  and  O4_30 
ROOT
HETATM    1  C7  UNL     1      25.521   4.999  49.849  1.00  0.00     0.072 A 
HETATM    2  C8  UNL     1      26.516   4.222  49.301  1.00  0.00     0.039 A 
HETATM    3  C9  UNL     1      27.540   4.827  48.602  1.00  0.00     0.032 A 
HETATM    4  C10 UNL     1      27.587   6.204  48.440  1.00  0.00     0.036 A 
HETATM    5  C18 UNL     1      26.605   6.994  48.978  1.00  0.00     0.032 A 
HETATM    6  C19 UNL     1      25.562   6.389  49.689  1.00  0.00     0.039 A 
ENDROOT
BRANCH   1   7
HETATM    7  O2  UNL     1      24.398   4.651  50.584  1.00  0.00    -0.314 OA
BRANCH   7   8
HETATM    8  C6  UNL     1      23.905   3.304  50.410  1.00  0.00     0.202 A 
HETATM    9  N2  UNL     1      23.568   3.071  49.068  1.00  0.00    -0.240 NA
HETATM   10  C5  UNL     1      22.850   2.501  48.181  1.00  0.00     0.230 C 
HETATM   11  N1  UNL     1      21.740   1.570  48.177  1.00  0.00    -0.254 NA
HETATM   12  C4  UNL     1      21.238   0.917  49.208  1.00  0.00     0.120 C 
HETATM   13  C3  UNL     1      21.494   0.806  50.638  1.00  0.00     0.055 C 
HETATM   14  C2  UNL     1      22.289   1.593  51.344  1.00  0.00     0.087 C 
HETATM   15  C21 UNL     1      23.206   2.699  51.509  1.00  0.00     0.165 A 
HETATM   16  C20 UNL     1      24.666   2.343  51.245  1.00  0.00     0.117 A 
BRANCH  14  17
HETATM   17  O1  UNL     1      22.182   1.064  52.651  1.00  0.00    -0.357 OA
HETATM   18  C1  UNL     1      22.310  -0.341  52.758  1.00  0.00     0.209 C 
ENDBRANCH  14  17
BRANCH  15  19
HETATM   19  O4  UNL     1      22.961   3.566  52.611  1.00  0.00    -0.373 OA
HETATM   20  C22 UNL     1      21.807   4.270  52.288  1.00  0.00     0.203 C 
ENDBRANCH  15  19
ENDBRANCH   7   8
ENDBRANCH   1   7
BRANCH   4  21
HETATM   21  N3  UNL     1      28.677   6.756  47.705  1.00  0.00    -0.309 N 
HETATM   22  C11 UNL     1      29.980   6.347  48.050  1.00  0.00     0.325 C 
HETATM   23  O3  UNL     1      30.055   5.535  48.975  1.00  0.00    -0.247 OA
HETATM   24  N4  UNL     1      31.160   6.798  47.422  1.00  0.00    -0.309 N 
HETATM   25  H10 UNL     1      30.945   7.485  46.655  1.00  0.00     0.170 HD
HETATM   26  H9  UNL     1      28.554   7.456  46.914  1.00  0.00     0.170 HD
BRANCH  24  27
HETATM   27  C12 UNL     1      32.509   6.454  47.690  1.00  0.00     0.037 A 
HETATM   28  C13 UNL     1      33.336   7.419  48.220  1.00  0.00     0.029 A 
HETATM   29  C14 UNL     1      34.660   7.169  48.511  1.00  0.00     0.004 A 
HETATM   30  C15 UNL     1      35.226   5.944  48.288  1.00  0.00     0.024 A 
HETATM   31  C16 UNL     1      34.417   4.968  47.761  1.00  0.00     0.036 A 
HETATM   32 CL1  UNL     1      35.100   3.394  47.463  1.00  0.00    -0.084 Cl
HETATM   33  C17 UNL     1      33.097   5.250  47.481  1.00  0.00     0.053 A 
ENDBRANCH  24  27
ENDBRANCH   4  21
TORSDOF 6
ENDMDL
MODEL 2
REMARK VINA RESULT:      -8.4      1.588      2.333
REMARK  6 active torsions:
REMARK  status: ('A' for Active; 'I' for Inactive)
REMARK    1  A    between atoms: O1_2  and  C2_3 
REMARK    2  A    between atoms: C6_9  and  O2_10 
REMARK    3  A    between atoms: O2_10  and  C7_11 
REMARK    4  A    between atoms: C10_14  and  N3_15 
REMARK       I    between atoms: N3_15  and  C11_16 
REMARK       I    between atoms: C11_16  and  N4_18 
REMARK    5  A    between atoms: N4_18  and  C12_19 
REMARK    6  A    between atoms: C21_29  and  O4_30 
ROOT
HETATM    1  C7  UNL     1      25.501   4.581  49.871  1.00  0.00     0.072 A 
HETATM    2  C8  UNL     1      26.516   3.925  49.214  1.00  0.00     0.039 A 
HETATM    3  C9  UNL     1      27.513   4.658  48.603  1.00  0.00     0.032 A 
HETATM    4  C10 UNL     1      27.512   6.044  48.639  1.00  0.00     0.036 A 
HETATM    5  C18 UNL     1      26.510   6.715  49.288  1.00  0.00     0.032 A 
HETATM    6  C19 UNL     1      25.494   5.980  49.911  1.00  0.00     0.039 A 
ENDROOT
BRANCH   1   7
HETATM    7  O2  UNL     1      24.397   4.094  50.555  1.00  0.00    -0.314 OA
BRANCH   7   8
HETATM    8  C6  UNL     1      24.663   3.175  51.638  1.00  0.00     0.202 A 
HETATM    9  N2  UNL     1      25.986   2.712  51.580  1.00  0.00    -0.240 NA
HETATM   10  C5  UNL     1      26.859   1.802  51.771  1.00  0.00     0.230 C 
HETATM   11  N1  UNL     1      26.859   0.448  52.286  1.00  0.00    -0.254 NA
HETATM   12  C4  UNL     1      25.860  -0.188  52.868  1.00  0.00     0.120 C 
HETATM   13  C3  UNL     1      24.478   0.090  53.235  1.00  0.00     0.055 C 
HETATM   14  C2  UNL     1      23.769   1.135  52.841  1.00  0.00     0.087 C 
HETATM   15  C21 UNL     1      23.574   2.374  52.119  1.00  0.00     0.165 A 
HETATM   16  C20 UNL     1      24.003   3.618  52.890  1.00  0.00     0.117 A 
BRANCH  14  17
HETATM   17  O1  UNL     1      22.518   0.927  53.468  1.00  0.00    -0.357 OA
HETATM   18  C1  UNL     1      22.202  -0.417  53.778  1.00  0.00     0.209 C 
ENDBRANCH  14  17
BRANCH  15  19
HETATM   19  O4  UNL     1      22.371   2.485  51.366  1.00  0.00    -0.373 OA
HETATM   20  C22 UNL     1      22.481   1.553  50.340  1.00  0.00     0.203 C 
ENDBRANCH  15  19
ENDBRANCH   7   8
ENDBRANCH   1   7
BRANCH   4  21
HETATM   21  N3  UNL     1      28.576   6.732  47.985  1.00  0.00    -0.309 N 
HETATM   22  C11 UNL     1      29.895   6.320  48.258  1.00  0.00     0.325 C 
HETATM   23  O3  UNL     1      30.006   5.385  49.054  1.00  0.00    -0.247 OA
HETATM   24  N4  UNL     1      31.054   6.896  47.694  1.00  0.00    -0.309 N 
HETATM   25  H10 UNL     1      30.808   7.679  47.037  1.00  0.00     0.170 HD
HETATM   26  H9  UNL     1      28.423   7.535  47.304  1.00  0.00     0.170 HD
BRANCH  24  27
HETATM   27  C12 UNL     1      32.416   6.560  47.901  1.00  0.00     0.037 A 
HETATM   28  C13 UNL     1      33.283   7.560  48.281  1.00  0.00     0.029 A 
HETATM   29  C14 UNL     1      34.622   7.320  48.504  1.00  0.00     0.004 A 
HETATM   30  C15 UNL     1      35.164   6.073  48.358  1.00  0.00     0.024 A 
HETATM   31  C16 UNL     1      34.314   5.063  47.979  1.00  0.00     0.036 A 
HETATM   32 CL1  UNL     1      34.965   3.459  47.783  1.00  0.00    -0.084 Cl
HETATM   33  C17 UNL     1      32.980   5.335  47.765  1.00  0.00     0.053 A 
ENDBRANCH  24  27
ENDBRANCH   4  21
TORSDOF 6
ENDMDL
MODEL 3
REMARK VINA RESULT:      -8.1      4.043     10.169
REMARK  6 active torsions:
REMARK  status: ('A' for Active; 'I' for Inactive)
REMARK    1  A    between atoms: O1_2  and  C2_3 
REMARK    2  A    between atoms: C6_9  and  O2_10 
REMARK    3  A    between atoms: O2_10  and  C7_11 
REMARK    4  A    between atoms: C10_14  and  N3_15 
REMARK       I    between atoms: N3_15  and  C11_16 
REMARK       I    between atoms: C11_16  and  N4_18 
REMARK    5  A    between atoms: N4_18  and  C12_19 
REMARK    6  A    between atoms: C21_29  and  O4_30 
ROOT
HETATM    1  C7  UNL     1      26.056   6.209  49.371  1.00  0.00     0.072 A 
HETATM    2  C8  UNL     1      24.701   6.335  49.574  1.00  0.00     0.039 A 
HETATM    3  C9  UNL     1      23.917   5.202  49.639  1.00  0.00     0.032 A 
HETATM    4  C10 UNL     1      24.468   3.936  49.504  1.00  0.00     0.036 A 
HETATM    5  C18 UNL     1      25.815   3.790  49.301  1.00  0.00     0.032 A 
HETATM    6  C19 UNL     1      26.618   4.935  49.234  1.00  0.00     0.039 A 
ENDROOT
BRANCH   1   7
HETATM    7  O2  UNL     1      27.052   7.168  49.267  1.00  0.00    -0.314 OA
BRANCH   7   8
HETATM    8  C6  UNL     1      26.676   8.425  48.662  1.00  0.00     0.202 A 
HETATM    9  N2  UNL     1      26.203   8.223  47.356  1.00  0.00    -0.240 NA
HETATM   10  C5  UNL     1      26.054   8.612  46.151  1.00  0.00     0.230 C 
HETATM   11  N1  UNL     1      26.419   9.783  45.380  1.00  0.00    -0.254 NA
HETATM   12  C4  UNL     1      26.937  10.910  45.830  1.00  0.00     0.120 C 
HETATM   13  C3  UNL     1      27.341  11.469  47.114  1.00  0.00     0.055 C 
HETATM   14  C2  UNL     1      27.459  10.797  48.247  1.00  0.00     0.087 C 
HETATM   15  C21 UNL     1      27.396   9.602  49.059  1.00  0.00     0.165 A 
HETATM   16  C20 UNL     1      26.017   9.318  49.645  1.00  0.00     0.117 A 
BRANCH  14  17
HETATM   17  O1  UNL     1      27.870  11.790  49.166  1.00  0.00    -0.357 OA
HETATM   18  C1  UNL     1      28.020  13.094  48.636  1.00  0.00     0.209 C 
ENDBRANCH  14  17
BRANCH  15  19
HETATM   19  O4  UNL     1      28.506   9.362  49.919  1.00  0.00    -0.373 OA
HETATM   20  C22 UNL     1      29.578   9.081  49.081  1.00  0.00     0.203 C 
ENDBRANCH  15  19
ENDBRANCH   7   8
ENDBRANCH   1   7
BRANCH   4  21
HETATM   21  N3  UNL     1      23.594   2.813  49.582  1.00  0.00    -0.309 N 
HETATM   22  C11 UNL     1      23.374   2.235  50.848  1.00  0.00     0.325 C 
HETATM   23  O3  UNL     1      23.972   2.766  51.786  1.00  0.00    -0.247 OA
HETATM   24  N4  UNL     1      22.541   1.122  51.094  1.00  0.00    -0.309 N 
HETATM   25  H10 UNL     1      22.099   0.775  50.206  1.00  0.00     0.170 HD
HETATM   26  H9  UNL     1      23.103   2.393  48.737  1.00  0.00     0.170 HD
BRANCH  24  27
HETATM   27  C12 UNL     1      22.254   0.468  52.318  1.00  0.00     0.037 A 
HETATM   28  C13 UNL     1      20.935   0.324  52.687  1.00  0.00     0.029 A 
HETATM   29  C14 UNL     1      20.568  -0.300  53.861  1.00  0.00     0.004 A 
HETATM   30  C15 UNL     1      21.497  -0.811  54.725  1.00  0.00     0.024 A 
HETATM   31  C16 UNL     1      22.818  -0.677  54.374  1.00  0.00     0.036 A 
HETATM   32 CL1  UNL     1      24.032  -1.314  55.447  1.00  0.00    -0.084 Cl
HETATM   33  C17 UNL     1      23.152  -0.048  53.193  1.00  0.00     0.053 A 
ENDBRANCH  24  27
ENDBRANCH   4  21
TORSDOF 6
ENDMDL
MODEL 4
REMARK VINA RESULT:      -8.0      3.486     10.300
REMARK  6 active torsions:
REMARK  status: ('A' for Active; 'I' for Inactive)
REMARK    1  A    between atoms: O1_2  and  C2_3 
REMARK    2  A    between atoms: C6_9  and  O2_10 
REMARK    3  A    between atoms: O2_10  and  C7_11 
REMARK    4  A    between atoms: C10_14  and  N3_15 
REMARK       I    between atoms: N3_15  and  C11_16 
REMARK       I    between atoms: C11_16  and  N4_18 
REMARK    5  A    between atoms: N4_18  and  C12_19 
REMARK    6  A    between atoms: C21_29  and  O4_30 
ROOT
HETATM    1  C7  UNL     1      26.580   5.901  49.146  1.00  0.00     0.072 A 
HETATM    2  C8  UNL     1      27.008   4.601  49.289  1.00  0.00     0.039 A 
HETATM    3  C9  UNL     1      26.076   3.589  49.393  1.00  0.00     0.032 A 
HETATM    4  C10 UNL     1      24.716   3.855  49.358  1.00  0.00     0.036 A 
HETATM    5  C18 UNL     1      24.271   5.144  49.216  1.00  0.00     0.032 A 
HETATM    6  C19 UNL     1      25.209   6.177  49.109  1.00  0.00     0.039 A 
ENDROOT
BRANCH   1   7
HETATM    7  O2  UNL     1      27.294   7.083  49.022  1.00  0.00    -0.314 OA
BRANCH   7   8
HETATM    8  C6  UNL     1      28.278   7.136  47.965  1.00  0.00     0.202 A 
HETATM    9  N2  UNL     1      29.119   6.015  48.018  1.00  0.00    -0.240 NA
HETATM   10  C5  UNL     1      30.257   5.464  47.842  1.00  0.00     0.230 C 
HETATM   11  N1  UNL     1      31.560   5.889  47.371  1.00  0.00    -0.254 NA
HETATM   12  C4  UNL     1      31.876   7.047  46.826  1.00  0.00     0.120 C 
HETATM   13  C3  UNL     1      31.201   8.289  46.473  1.00  0.00     0.055 C 
HETATM   14  C2  UNL     1      29.980   8.637  46.844  1.00  0.00     0.087 C 
HETATM   15  C21 UNL     1      28.722   8.429  47.528  1.00  0.00     0.165 A 
HETATM   16  C20 UNL     1      27.688   7.662  46.710  1.00  0.00     0.117 A 
BRANCH  14  17
HETATM   17  O1  UNL     1      29.814   9.907  46.244  1.00  0.00    -0.357 OA
HETATM   18  C1  UNL     1      30.951  10.750  46.265  1.00  0.00     0.209 C 
ENDBRANCH  14  17
BRANCH  15  19
HETATM   19  O4  UNL     1      28.231   9.522  48.297  1.00  0.00    -0.373 OA
HETATM   20  C22 UNL     1      29.105   9.651  49.370  1.00  0.00     0.203 C 
ENDBRANCH  15  19
ENDBRANCH   7   8
ENDBRANCH   1   7
BRANCH   4  21
HETATM   21  N3  UNL     1      23.814   2.758  49.472  1.00  0.00    -0.309 N 
HETATM   22  C11 UNL     1      23.486   2.304  50.764  1.00  0.00     0.325 C 
HETATM   23  O3  UNL     1      24.022   2.912  51.693  1.00  0.00    -0.247 OA
HETATM   24  N4  UNL     1      22.611   1.233  51.046  1.00  0.00    -0.309 N 
HETATM   25  H10 UNL     1      22.230   0.810  50.162  1.00  0.00     0.170 HD
HETATM   26  H9  UNL     1      23.379   2.268  48.633  1.00  0.00     0.170 HD
BRANCH  24  27
HETATM   27  C12 UNL     1      22.218   0.700  52.300  1.00  0.00     0.037 A 
HETATM   28  C13 UNL     1      20.929   0.929  52.730  1.00  0.00     0.029 A 
HETATM   29  C14 UNL     1      20.465   0.447  53.935  1.00  0.00     0.004 A 
HETATM   30  C15 UNL     1      21.261  -0.285  54.772  1.00  0.00     0.024 A 
HETATM   31  C16 UNL     1      22.549  -0.524  54.360  1.00  0.00     0.036 A 
HETATM   32 CL1  UNL     1      23.595  -1.453  55.397  1.00  0.00    -0.084 Cl
HETATM   33  C17 UNL     1      22.983  -0.028  53.149  1.00  0.00     0.053 A 
ENDBRANCH  24  27
ENDBRANCH   4  21
TORSDOF 6
ENDMDL
MODEL 5
REMARK VINA RESULT:      -8.0      1.821      2.696
REMARK  6 active torsions:
REMARK  status: ('A' for Active; 'I' for Inactive)
REMARK    1  A    between atoms: O1_2  and  C2_3 
REMARK    2  A    between atoms: C6_9  and  O2_10 
REMARK    3  A    between atoms: O2_10  and  C7_11 
REMARK    4  A    between atoms: C10_14  and  N3_15 
REMARK       I    between atoms: N3_15  and  C11_16 
REMARK       I    between atoms: C11_16  and  N4_18 
REMARK    5  A    between atoms: N4_18  and  C12_19 
REMARK    6  A    between atoms: C21_29  and  O4_30 
ROOT
HETATM    1  C7  UNL     1      24.668   3.891  49.195  1.00  0.00     0.072 A 
HETATM    2  C8  UNL     1      24.462   5.218  48.894  1.00  0.00     0.039 A 
HETATM    3  C9  UNL     1      25.544   6.070  48.813  1.00  0.00     0.032 A 
HETATM    4  C10 UNL     1      26.836   5.616  49.028  1.00  0.00     0.036 A 
HETATM    5  C18 UNL     1      27.061   4.298  49.329  1.00  0.00     0.032 A 
HETATM    6  C19 UNL     1      25.969   3.426  49.414  1.00  0.00     0.039 A 
ENDROOT
BRANCH   1   7
HETATM    7  O2  UNL     1      23.772   2.842  49.336  1.00  0.00    -0.314 OA
BRANCH   7   8
HETATM    8  C6  UNL     1      23.346   2.533  50.682  1.00  0.00     0.202 A 
HETATM    9  N2  UNL     1      24.370   1.881  51.386  1.00  0.00    -0.240 NA
HETATM   10  C5  UNL     1      24.760   1.042  52.266  1.00  0.00     0.230 C 
HETATM   11  N1  UNL     1      24.122   0.131  53.194  1.00  0.00    -0.254 NA
HETATM   12  C4  UNL     1      22.836   0.039  53.470  1.00  0.00     0.120 C 
HETATM   13  C3  UNL     1      21.599   0.693  53.062  1.00  0.00     0.055 C 
HETATM   14  C2  UNL     1      21.464   1.520  52.038  1.00  0.00     0.087 C 
HETATM   15  C21 UNL     1      21.953   2.266  50.899  1.00  0.00     0.165 A 
HETATM   16  C20 UNL     1      22.530   3.633  51.251  1.00  0.00     0.117 A 
BRANCH  14  17
HETATM   17  O1  UNL     1      20.092   1.860  52.082  1.00  0.00    -0.357 OA
HETATM   18  C1  UNL     1      19.193   0.774  52.207  1.00  0.00     0.209 C 
ENDBRANCH  14  17
BRANCH  15  19
HETATM   19  O4  UNL     1      21.165   2.203  49.715  1.00  0.00    -0.373 OA
HETATM   20  C22 UNL     1      21.348   0.922  49.209  1.00  0.00     0.203 C 
ENDBRANCH  15  19
ENDBRANCH   7   8
ENDBRANCH   1   7
BRANCH   4  21
HETATM   21  N3  UNL     1      27.903   6.556  48.926  1.00  0.00    -0.309 N 
HETATM   22  C11 UNL     1      29.139   6.100  48.430  1.00  0.00     0.325 C 
HETATM   23  O3  UNL     1      29.183   4.906  48.125  1.00  0.00    -0.247 OA
HETATM   24  N4  UNL     1      30.290   6.902  48.268  1.00  0.00    -0.309 N 
HETATM   25  H10 UNL     1      30.107   7.894  48.567  1.00  0.00     0.170 HD
HETATM   26  H9  UNL     1      27.810   7.579  49.205  1.00  0.00     0.170 HD
BRANCH  24  27
HETATM   27  C12 UNL     1      31.573   6.545  47.782  1.00  0.00     0.037 A 
HETATM   28  C13 UNL     1      31.796   6.604  46.425  1.00  0.00     0.029 A 
HETATM   29  C14 UNL     1      33.014   6.275  45.869  1.00  0.00     0.004 A 
HETATM   30  C15 UNL     1      34.070   5.870  46.638  1.00  0.00     0.024 A 
HETATM   31  C16 UNL     1      33.866   5.805  47.995  1.00  0.00     0.036 A 
HETATM   32 CL1  UNL     1      35.186   5.293  49.009  1.00  0.00    -0.084 Cl
HETATM   33  C17 UNL     1      32.637   6.141  48.519  1.00  0.00     0.053 A 
ENDBRANCH  24  27
ENDBRANCH   4  21
TORSDOF 6
ENDMDL
MODEL 6
REMARK VINA RESULT:      -7.9      3.283      9.505
REMARK  6 active torsions:
REMARK  status: ('A' for Active; 'I' for Inactive)
REMARK    1  A    between atoms: O1_2  and  C2_3 
REMARK    2  A    between atoms: C6_9  and  O2_10 
REMARK    3  A    between atoms: O2_10  and  C7_11 
REMARK    4  A    between atoms: C10_14  and  N3_15 
REMARK       I    between atoms: N3_15  and  C11_16 
REMARK       I    between atoms: C11_16  and  N4_18 
REMARK    5  A    between atoms: N4_18  and  C12_19 
REMARK    6  A    between atoms: C21_29  and  O4_30 
ROOT
HETATM    1  C7  UNL     1      25.873   7.608  48.382  1.00  0.00     0.072 A 
HETATM    2  C8  UNL     1      24.929   6.720  47.918  1.00  0.00     0.039 A 
HETATM    3  C9  UNL     1      24.161   6.015  48.821  1.00  0.00     0.032 A 
HETATM    4  C10 UNL     1      24.320   6.182  50.188  1.00  0.00     0.036 A 
HETATM    5  C18 UNL     1      25.254   7.061  50.670  1.00  0.00     0.032 A 
HETATM    6  C19 UNL     1      26.039   7.781  49.761  1.00  0.00     0.039 A 
ENDROOT
BRANCH   1   7
HETATM    7  O2  UNL     1      26.761   8.427  47.703  1.00  0.00    -0.314 OA
BRANCH   7   8
HETATM    8  C6  UNL     1      28.055   7.861  47.396  1.00  0.00     0.202 A 
HETATM    9  N2  UNL     1      28.135   6.536  47.850  1.00  0.00    -0.240 NA
HETATM   10  C5  UNL     1      28.803   5.555  48.318  1.00  0.00     0.230 C 
HETATM   11  N1  UNL     1      30.182   5.318  48.696  1.00  0.00    -0.254 NA
HETATM   12  C4  UNL     1      31.215   6.113  48.498  1.00  0.00     0.120 C 
HETATM   13  C3  UNL     1      31.469   7.417  47.898  1.00  0.00     0.055 C 
HETATM   14  C2  UNL     1      30.546   8.291  47.531  1.00  0.00     0.087 C 
HETATM   15  C21 UNL     1      29.184   8.748  47.366  1.00  0.00     0.165 A 
HETATM   16  C20 UNL     1      28.530   8.303  46.062  1.00  0.00     0.117 A 
BRANCH  14  17
HETATM   17  O1  UNL     1      31.311   9.366  47.020  1.00  0.00    -0.357 OA
HETATM   18  C1  UNL     1      32.694   9.332  47.318  1.00  0.00     0.209 C 
ENDBRANCH  14  17
BRANCH  15  19
HETATM   19  O4  UNL     1      28.908  10.081  47.784  1.00  0.00    -0.373 OA
HETATM   20  C22 UNL     1      29.080  10.087  49.163  1.00  0.00     0.203 C 
ENDBRANCH  15  19
ENDBRANCH   7   8
ENDBRANCH   1   7
BRANCH   4  21
HETATM   21  N3  UNL     1      23.489   5.418  51.059  1.00  0.00    -0.309 N 
HETATM   22  C11 UNL     1      23.949   4.151  51.467  1.00  0.00     0.325 C 
HETATM   23  O3  UNL     1      25.049   3.816  51.022  1.00  0.00    -0.247 OA
HETATM   24  N4  UNL     1      23.248   3.275  52.323  1.00  0.00    -0.309 N 
HETATM   25  H10 UNL     1      22.330   3.690  52.623  1.00  0.00     0.170 HD
HETATM   26  H9  UNL     1      22.545   5.757  51.413  1.00  0.00     0.170 HD
BRANCH  24  27
HETATM   27  C12 UNL     1      23.618   1.989  52.791  1.00  0.00     0.037 A 
HETATM   28  C13 UNL     1      22.686   0.977  52.724  1.00  0.00     0.029 A 
HETATM   29  C14 UNL     1      22.964  -0.302  53.156  1.00  0.00     0.004 A 
HETATM   30  C15 UNL     1      24.182  -0.637  53.678  1.00  0.00     0.024 A 
HETATM   31  C16 UNL     1      25.125   0.359  53.754  1.00  0.00     0.036 A 
HETATM   32 CL1  UNL     1      26.690  -0.027  54.412  1.00  0.00    -0.084 Cl
HETATM   33  C17 UNL     1      24.817   1.628  53.312  1.00  0.00     0.053 A 
ENDBRANCH  24  27
ENDBRANCH   4  21
TORSDOF 6
ENDMDL
MODEL 7
REMARK VINA RESULT:      -7.8      6.006      8.042
REMARK  6 active torsions:
REMARK  status: ('A' for Active; 'I' for Inactive)
REMARK    1  A    between atoms: O1_2  and  C2_3 
REMARK    2  A    between atoms: C6_9  and  O2_10 
REMARK    3  A    between atoms: O2_10  and  C7_11 
REMARK    4  A    between atoms: C10_14  and  N3_15 
REMARK       I    between atoms: N3_15  and  C11_16 
REMARK       I    between atoms: C11_16  and  N4_18 
REMARK    5  A    between atoms: N4_18  and  C12_19 
REMARK    6  A    between atoms: C21_29  and  O4_30 
ROOT
HETATM    1  C7  UNL     1      19.843   1.369  51.609  1.00  0.00     0.072 A 
HETATM    2  C8  UNL     1      20.659   0.625  50.788  1.00  0.00     0.039 A 
HETATM    3  C9  UNL     1      21.992   0.962  50.672  1.00  0.00     0.032 A 
HETATM    4  C10 UNL     1      22.527   2.036  51.368  1.00  0.00     0.036 A 
HETATM    5  C18 UNL     1      21.730   2.788  52.190  1.00  0.00     0.032 A 
HETATM    6  C19 UNL     1      20.376   2.454  52.314  1.00  0.00     0.039 A 
ENDROOT
BRANCH   1   7
HETATM    7  O2  UNL     1      18.492   1.248  51.899  1.00  0.00    -0.314 OA
BRANCH   7   8
HETATM    8  C6  UNL     1      17.579   1.946  51.023  1.00  0.00     0.202 A 
HETATM    9  N2  UNL     1      17.019   3.054  51.675  1.00  0.00    -0.240 NA
HETATM   10  C5  UNL     1      16.051   3.862  51.870  1.00  0.00     0.230 C 
HETATM   11  N1  UNL     1      14.711   4.031  51.345  1.00  0.00    -0.254 NA
HETATM   12  C4  UNL     1      14.163   3.395  50.328  1.00  0.00     0.120 C 
HETATM   13  C3  UNL     1      14.549   2.370  49.367  1.00  0.00     0.055 C 
HETATM   14  C2  UNL     1      15.636   1.618  49.435  1.00  0.00     0.087 C 
HETATM   15  C21 UNL     1      16.870   1.173  50.043  1.00  0.00     0.165 A 
HETATM   16  C20 UNL     1      18.095   1.984  49.633  1.00  0.00     0.117 A 
BRANCH  14  17
HETATM   17  O1  UNL     1      15.533   0.806  48.281  1.00  0.00    -0.357 OA
HETATM   18  C1  UNL     1      15.413   1.496  47.052  1.00  0.00     0.209 C 
ENDBRANCH  14  17
BRANCH  15  19
HETATM   19  O4  UNL     1      17.054  -0.235  50.144  1.00  0.00    -0.373 OA
HETATM   20  C22 UNL     1      16.085  -0.679  51.035  1.00  0.00     0.203 C 
ENDBRANCH  15  19
ENDBRANCH   7   8
ENDBRANCH   1   7
BRANCH   4  21
HETATM   21  N3  UNL     1      23.913   2.322  51.198  1.00  0.00    -0.309 N 
HETATM   22  C11 UNL     1      24.838   1.581  51.959  1.00  0.00     0.325 C 
HETATM   23  O3  UNL     1      24.351   0.740  52.717  1.00  0.00    -0.247 OA
HETATM   24  N4  UNL     1      26.239   1.743  51.906  1.00  0.00    -0.309 N 
HETATM   25  H10 UNL     1      26.511   2.492  51.221  1.00  0.00     0.170 HD
HETATM   26  H9  UNL     1      24.280   3.062  50.527  1.00  0.00     0.170 HD
BRANCH  24  27
HETATM   27  C12 UNL     1      27.250   1.056  52.625  1.00  0.00     0.037 A 
HETATM   28  C13 UNL     1      28.051   1.781  53.479  1.00  0.00     0.029 A 
HETATM   29  C14 UNL     1      29.056   1.192  54.215  1.00  0.00     0.004 A 
HETATM   30  C15 UNL     1      29.315  -0.149  54.137  1.00  0.00     0.024 A 
HETATM   31  C16 UNL     1      28.527  -0.889  53.290  1.00  0.00     0.036 A 
HETATM   32 CL1  UNL     1      28.824  -2.600  53.162  1.00  0.00    -0.084 Cl
HETATM   33  C17 UNL     1      27.529  -0.270  52.568  1.00  0.00     0.053 A 
ENDBRANCH  24  27
ENDBRANCH   4  21
TORSDOF 6
ENDMDL
MODEL 8
REMARK VINA RESULT:      -7.7      1.916      2.805
REMARK  6 active torsions:
REMARK  status: ('A' for Active; 'I' for Inactive)
REMARK    1  A    between atoms: O1_2  and  C2_3 
REMARK    2  A    between atoms: C6_9  and  O2_10 
REMARK    3  A    between atoms: O2_10  and  C7_11 
REMARK    4  A    between atoms: C10_14  and  N3_15 
REMARK       I    between atoms: N3_15  and  C11_16 
REMARK       I    between atoms: C11_16  and  N4_18 
REMARK    5  A    between atoms: N4_18  and  C12_19 
REMARK    6  A    between atoms: C21_29  and  O4_30 
ROOT
HETATM    1  C7  UNL     1      25.528   6.303  50.070  1.00  0.00     0.072 A 
HETATM    2  C8  UNL     1      26.009   5.190  49.417  1.00  0.00     0.039 A 
HETATM    3  C9  UNL     1      27.105   5.312  48.588  1.00  0.00     0.032 A 
HETATM    4  C10 UNL     1      27.733   6.534  48.399  1.00  0.00     0.036 A 
HETATM    5  C18 UNL     1      27.269   7.653  49.040  1.00  0.00     0.032 A 
HETATM    6  C19 UNL     1      26.157   7.539  49.883  1.00  0.00     0.039 A 
ENDROOT
BRANCH   1   7
HETATM    7  O2  UNL     1      24.461   6.453  50.943  1.00  0.00    -0.314 OA
BRANCH   7   8
HETATM    8  C6  UNL     1      23.569   5.323  51.073  1.00  0.00     0.202 A 
HETATM    9  N2  UNL     1      24.249   4.217  51.604  1.00  0.00    -0.240 NA
HETATM   10  C5  UNL     1      24.428   2.957  51.698  1.00  0.00     0.230 C 
HETATM   11  N1  UNL     1      23.824   1.772  51.122  1.00  0.00    -0.254 NA
HETATM   12  C4  UNL     1      22.735   1.707  50.381  1.00  0.00     0.120 C 
HETATM   13  C3  UNL     1      21.742   2.629  49.847  1.00  0.00     0.055 C 
HETATM   14  C2  UNL     1      21.837   3.949  49.842  1.00  0.00     0.087 C 
HETATM   15  C21 UNL     1      22.498   5.203  50.125  1.00  0.00     0.165 A 
HETATM   16  C20 UNL     1      22.223   5.753  51.520  1.00  0.00     0.117 A 
BRANCH  14  17
HETATM   17  O1  UNL     1      20.631   4.352  49.221  1.00  0.00    -0.357 OA
HETATM   18  C1  UNL     1      19.469   3.653  49.623  1.00  0.00     0.209 C 
ENDBRANCH  14  17
BRANCH  15  19
HETATM   19  O4  UNL     1      22.525   6.157  49.068  1.00  0.00    -0.373 OA
HETATM   20  C22 UNL     1      22.899   5.450  47.931  1.00  0.00     0.203 C 
ENDBRANCH  15  19
ENDBRANCH   7   8
ENDBRANCH   1   7
BRANCH   4  21
HETATM   21  N3  UNL     1      28.860   6.581  47.528  1.00  0.00    -0.309 N 
HETATM   22  C11 UNL     1      30.033   5.912  47.929  1.00  0.00     0.325 C 
HETATM   23  O3  UNL     1      29.972   5.339  49.018  1.00  0.00    -0.247 OA
HETATM   24  N4  UNL     1      31.230   5.864  47.182  1.00  0.00    -0.309 N 
HETATM   25  H10 UNL     1      31.137   6.394  46.279  1.00  0.00     0.170 HD
HETATM   26  H9  UNL     1      28.858   7.093  46.595  1.00  0.00     0.170 HD
BRANCH  24  27
HETATM   27  C12 UNL     1      32.457   5.225  47.492  1.00  0.00     0.037 A 
HETATM   28  C13 UNL     1      32.643   3.929  47.067  1.00  0.00     0.029 A 
HETATM   29  C14 UNL     1      33.806   3.235  47.326  1.00  0.00     0.004 A 
HETATM   30  C15 UNL     1      34.841   3.797  48.021  1.00  0.00     0.024 A 
HETATM   31  C16 UNL     1      34.674   5.090  48.453  1.00  0.00     0.036 A 
HETATM   32 CL1  UNL     1      35.968   5.843  49.342  1.00  0.00    -0.084 Cl
HETATM   33  C17 UNL     1      33.499   5.757  48.178  1.00  0.00     0.053 A 
ENDBRANCH  24  27
ENDBRANCH   4  21
TORSDOF 6
ENDMDL
MODEL 9
REMARK VINA RESULT:      -7.7      4.254      5.131
REMARK  6 active torsions:
REMARK  status: ('A' for Active; 'I' for Inactive)
REMARK    1  A    between atoms: O1_2  and  C2_3 
REMARK    2  A    between atoms: C6_9  and  O2_10 
REMARK    3  A    between atoms: O2_10  and  C7_11 
REMARK    4  A    between atoms: C10_14  and  N3_15 
REMARK       I    between atoms: N3_15  and  C11_16 
REMARK       I    between atoms: C11_16  and  N4_18 
REMARK    5  A    between atoms: N4_18  and  C12_19 
REMARK    6  A    between atoms: C21_29  and  O4_30 
ROOT
HETATM    1  C7  UNL     1      23.547   5.534  49.800  1.00  0.00     0.072 A 
HETATM    2  C8  UNL     1      23.293   6.674  50.527  1.00  0.00     0.039 A 
HETATM    3  C9  UNL     1      24.328   7.539  50.815  1.00  0.00     0.032 A 
HETATM    4  C10 UNL     1      25.622   7.282  50.386  1.00  0.00     0.036 A 
HETATM    5  C18 UNL     1      25.895   6.151  49.661  1.00  0.00     0.032 A 
HETATM    6  C19 UNL     1      24.850   5.268  49.365  1.00  0.00     0.039 A 
ENDROOT
BRANCH   1   7
HETATM    7  O2  UNL     1      22.703   4.516  49.382  1.00  0.00    -0.314 OA
BRANCH   7   8
HETATM    8  C6  UNL     1      22.219   3.618  50.406  1.00  0.00     0.202 A 
HETATM    9  N2  UNL     1      23.200   3.414  51.388  1.00  0.00    -0.240 NA
HETATM   10  C5  UNL     1      23.772   2.676  52.257  1.00  0.00     0.230 C 
HETATM   11  N1  UNL     1      23.604   1.325  52.752  1.00  0.00    -0.254 NA
HETATM   12  C4  UNL     1      22.620   0.489  52.480  1.00  0.00     0.120 C 
HETATM   13  C3  UNL     1      21.402   0.486  51.682  1.00  0.00     0.055 C 
HETATM   14  C2  UNL     1      21.066   1.396  50.782  1.00  0.00     0.087 C 
HETATM   15  C21 UNL     1      21.277   2.606  50.018  1.00  0.00     0.165 A 
HETATM   16  C20 UNL     1      20.791   3.874  50.712  1.00  0.00     0.117 A 
BRANCH  14  17
HETATM   17  O1  UNL     1      19.817   0.930  50.309  1.00  0.00    -0.357 OA
HETATM   18  C1  UNL     1      18.994   0.295  51.269  1.00  0.00     0.209 C 
ENDBRANCH  14  17
BRANCH  15  19
HETATM   19  O4  UNL     1      21.032   2.522  48.618  1.00  0.00    -0.373 OA
HETATM   20  C22 UNL     1      22.017   1.684  48.112  1.00  0.00     0.203 C 
ENDBRANCH  15  19
ENDBRANCH   7   8
ENDBRANCH   1   7
BRANCH   4  21
HETATM   21  N3  UNL     1      26.639   8.222  50.722  1.00  0.00    -0.309 N 
HETATM   22  C11 UNL     1      27.123   9.064  49.701  1.00  0.00     0.325 C 
HETATM   23  O3  UNL     1      26.610   8.904  48.592  1.00  0.00    -0.247 OA
HETATM   24  N4  UNL     1      28.124  10.044  49.870  1.00  0.00    -0.309 N 
HETATM   25  H10 UNL     1      28.469  10.069  50.863  1.00  0.00     0.170 HD
HETATM   26  H9  UNL     1      27.047   8.319  51.700  1.00  0.00     0.170 HD
BRANCH  24  27
HETATM   27  C12 UNL     1      28.679  10.936  48.918  1.00  0.00     0.037 A 
HETATM   28  C13 UNL     1      29.754  10.507  48.171  1.00  0.00     0.029 A 
HETATM   29  C14 UNL     1      30.352  11.310  47.223  1.00  0.00     0.004 A 
HETATM   30  C15 UNL     1      29.910  12.579  46.973  1.00  0.00     0.024 A 
HETATM   31  C16 UNL     1      28.839  13.025  47.708  1.00  0.00     0.036 A 
HETATM   32 CL1  UNL     1      28.246  14.637  47.419  1.00  0.00    -0.084 Cl
HETATM   33  C17 UNL     1      28.263  12.198  48.648  1.00  0.00     0.053 A 
ENDBRANCH  24  27
ENDBRANCH   4  21
TORSDOF 6
ENDMDL
