MODEL 1
REMARK VINA RESULT:      -8.9      0.000      0.000
REMARK  6 active torsions:
REMARK  status: ('A' for Active; 'I' for Inactive)
REMARK    1  A    between atoms: C4_4  and  C5_5 
REMARK    2  A    between atoms: C5_5  and  N1_6 
REMARK    3  A    between atoms: N1_6  and  N2_7 
REMARK    4  A    between atoms: C9_11  and  C10_12 
REMARK       I    between atoms: C10_12  and  N3_14 
REMARK    5  A    between atoms: N3_14  and  C11_15 
REMARK    6  A    between atoms: C14_18  and  N4_19 
ROOT
HETATM    1  N2  UNL     1      15.937   0.208  51.972  1.00  0.00    -0.274 N 
HETATM    2  C6  UNL     1      16.079  -1.033  52.707  1.00  0.00     0.181 A 
HETATM    3  C7  UNL     1      17.560  -1.183  52.912  1.00  0.00    -0.043 A 
HETATM    4  C8  UNL     1      18.124  -2.348  53.637  1.00  0.00     0.046 C 
HETATM    5  C9  UNL     1      18.204  -0.181  52.378  1.00  0.00     0.105 A 
HETATM    6  C22 UNL     1      17.245   0.726  51.772  1.00  0.00     0.274 A 
HETATM    7  O2  UNL     1      17.382   1.798  51.156  1.00  0.00    -0.266 OA
ENDROOT
BRANCH   5   8
HETATM    8  C10 UNL     1      19.647   0.025  52.370  1.00  0.00     0.262 C 
HETATM    9  O1  UNL     1      20.335  -0.047  51.317  1.00  0.00    -0.267 OA
HETATM   10  N3  UNL     1      20.390   0.317  53.534  1.00  0.00    -0.323 N 
HETATM   11  H14 UNL     1      19.935   0.400  54.450  1.00  0.00     0.169 HD
BRANCH  10  12
HETATM   12  C11 UNL     1      21.783   0.468  53.227  1.00  0.00     0.035 A 
HETATM   13  C12 UNL     1      22.256   1.588  52.618  1.00  0.00     0.032 A 
HETATM   14  C13 UNL     1      23.571   1.759  52.315  1.00  0.00     0.031 A 
HETATM   15  C14 UNL     1      24.510   0.807  52.603  1.00  0.00     0.030 A 
HETATM   16  C20 UNL     1      24.046  -0.333  53.218  1.00  0.00     0.031 A 
HETATM   17  C21 UNL     1      22.714  -0.525  53.535  1.00  0.00     0.032 A 
BRANCH  15  18
HETATM   18  N4  UNL     1      25.900   0.908  52.319  1.00  0.00    -0.378 N 
HETATM   19  C15 UNL     1      26.714   2.095  52.161  1.00  0.00     0.153 C 
HETATM   20  C16 UNL     1      27.718   2.111  53.294  1.00  0.00     0.291 C 
HETATM   21  N5  UNL     1      28.573   0.967  53.339  1.00  0.00     0.087 N 
HETATM   22  C17 UNL     1      29.141   0.932  54.696  1.00  0.00     0.310 C 
HETATM   23  C18 UNL     1      27.900  -0.280  53.153  1.00  0.00     0.291 C 
HETATM   24  C19 UNL     1      26.791  -0.212  52.128  1.00  0.00     0.153 C 
ENDBRANCH  15  18
ENDBRANCH  10  12
ENDBRANCH   5   8
BRANCH   1  25
HETATM   25  N1  UNL     1      14.678   0.674  51.600  1.00  0.00    -0.234 NA
HETATM   26  H8  UNL     1      13.965  -0.082  51.616  1.00  0.00     0.146 HD
BRANCH  25  27
HETATM   27  C5  UNL     1      14.302   1.730  52.492  1.00  0.00     0.124 C 
BRANCH  27  28
HETATM   28  C4  UNL     1      12.810   1.795  52.729  1.00  0.00     0.068 A 
HETATM   29  C3  UNL     1      12.414   1.053  53.939  1.00  0.00    -0.009 A 
HETATM   30  C2  UNL     1      11.927   1.951  54.771  1.00  0.00    -0.064 A 
HETATM   31  C1  UNL     1      11.395   1.684  56.133  1.00  0.00     0.048 C 
HETATM   32  C24 UNL     1      11.956   3.301  54.211  1.00  0.00     0.026 A 
HETATM   33  C23 UNL     1      12.476   3.221  53.004  1.00  0.00     0.021 A 
HETATM   34 CL1  UNL     1      12.807   4.441  51.774  1.00  0.00    -0.088 Cl
ENDBRANCH  27  28
ENDBRANCH  25  27
ENDBRANCH   1  25
TORSDOF 6
ENDMDL
MODEL 2
REMARK VINA RESULT:      -8.7      4.870      7.631
REMARK  6 active torsions:
REMARK  status: ('A' for Active; 'I' for Inactive)
REMARK    1  A    between atoms: C4_4  and  C5_5 
REMARK    2  A    between atoms: C5_5  and  N1_6 
REMARK    3  A    between atoms: N1_6  and  N2_7 
REMARK    4  A    between atoms: C9_11  and  C10_12 
REMARK       I    between atoms: C10_12  and  N3_14 
REMARK    5  A    between atoms: N3_14  and  C11_15 
REMARK    6  A    between atoms: C14_18  and  N4_19 
ROOT
HETATM    1  N2  UNL     1      22.882   0.462  53.426  1.00  0.00    -0.274 N 
HETATM    2  C6  UNL     1      24.053  -0.391  53.448  1.00  0.00     0.181 A 
HETATM    3  C7  UNL     1      25.084   0.362  52.656  1.00  0.00    -0.043 A 
HETATM    4  C8  UNL     1      26.446  -0.187  52.444  1.00  0.00     0.046 C 
HETATM    5  C9  UNL     1      24.599   1.495  52.226  1.00  0.00     0.105 A 
HETATM    6  C22 UNL     1      23.224   1.618  52.674  1.00  0.00     0.274 A 
HETATM    7  O2  UNL     1      22.369   2.509  52.513  1.00  0.00    -0.266 OA
ENDROOT
BRANCH   5   8
HETATM    8  C10 UNL     1      25.296   2.496  51.426  1.00  0.00     0.262 C 
HETATM    9  O1  UNL     1      26.474   2.864  51.680  1.00  0.00    -0.267 OA
HETATM   10  N3  UNL     1      24.713   3.132  50.309  1.00  0.00    -0.323 N 
HETATM   11  H14 UNL     1      23.757   2.911  50.009  1.00  0.00     0.169 HD
BRANCH  10  12
HETATM   12  C11 UNL     1      25.627   4.066  49.719  1.00  0.00     0.035 A 
HETATM   13  C12 UNL     1      26.826   3.663  49.219  1.00  0.00     0.032 A 
HETATM   14  C13 UNL     1      27.713   4.524  48.653  1.00  0.00     0.031 A 
HETATM   15  C14 UNL     1      27.455   5.864  48.549  1.00  0.00     0.030 A 
HETATM   16  C20 UNL     1      26.244   6.287  49.051  1.00  0.00     0.031 A 
HETATM   17  C21 UNL     1      25.330   5.427  49.628  1.00  0.00     0.032 A 
BRANCH  15  18
HETATM   18  N4  UNL     1      28.326   6.828  47.973  1.00  0.00    -0.378 N 
HETATM   19  C15 UNL     1      28.010   8.126  47.416  1.00  0.00     0.153 C 
HETATM   20  C16 UNL     1      28.669   9.170  48.293  1.00  0.00     0.291 C 
HETATM   21  N5  UNL     1      30.089   9.044  48.393  1.00  0.00     0.087 N 
HETATM   22  C17 UNL     1      30.486   9.811  49.584  1.00  0.00     0.310 C 
HETATM   23  C18 UNL     1      30.549   7.708  48.604  1.00  0.00     0.291 C 
HETATM   24  C19 UNL     1      29.756   6.676  47.835  1.00  0.00     0.153 C 
ENDBRANCH  15  18
ENDBRANCH  10  12
ENDBRANCH   5   8
BRANCH   1  25
HETATM   25  N1  UNL     1      21.709   0.078  54.071  1.00  0.00    -0.234 NA
HETATM   26  H8  UNL     1      21.241   0.883  54.534  1.00  0.00     0.146 HD
BRANCH  25  27
HETATM   27  C5  UNL     1      20.833  -0.518  53.106  1.00  0.00     0.124 C 
BRANCH  27  28
HETATM   28  C4  UNL     1      19.471   0.137  53.068  1.00  0.00     0.068 A 
HETATM   29  C3  UNL     1      19.356   1.099  51.958  1.00  0.00    -0.009 A 
HETATM   30  C2  UNL     1      18.427   0.618  51.157  1.00  0.00    -0.064 A 
HETATM   31  C1  UNL     1      17.954   1.240  49.892  1.00  0.00     0.048 C 
HETATM   32  C24 UNL     1      17.872  -0.643  51.644  1.00  0.00     0.026 A 
HETATM   33  C23 UNL     1      18.481  -0.938  52.773  1.00  0.00     0.021 A 
HETATM   34 CL1  UNL     1      18.317  -2.294  53.890  1.00  0.00    -0.088 Cl
ENDBRANCH  27  28
ENDBRANCH  25  27
ENDBRANCH   1  25
TORSDOF 6
ENDMDL
MODEL 3
REMARK VINA RESULT:      -8.7      5.351      8.141
REMARK  6 active torsions:
REMARK  status: ('A' for Active; 'I' for Inactive)
REMARK    1  A    between atoms: C4_4  and  C5_5 
REMARK    2  A    between atoms: C5_5  and  N1_6 
REMARK    3  A    between atoms: N1_6  and  N2_7 
REMARK    4  A    between atoms: C9_11  and  C10_12 
REMARK       I    between atoms: C10_12  and  N3_14 
REMARK    5  A    between atoms: N3_14  and  C11_15 
REMARK    6  A    between atoms: C14_18  and  N4_19 
ROOT
HETATM    1  N2  UNL     1      20.752   2.229  51.055  1.00  0.00    -0.274 N 
HETATM    2  C6  UNL     1      20.810   1.584  49.758  1.00  0.00     0.181 A 
HETATM    3  C7  UNL     1      21.969   2.238  49.063  1.00  0.00    -0.043 A 
HETATM    4  C8  UNL     1      22.362   1.847  47.687  1.00  0.00     0.046 C 
HETATM    5  C9  UNL     1      22.519   3.140  49.830  1.00  0.00     0.105 A 
HETATM    6  C22 UNL     1      21.803   3.184  51.092  1.00  0.00     0.274 A 
HETATM    7  O2  UNL     1      21.957   3.873  52.117  1.00  0.00    -0.266 OA
ENDROOT
BRANCH   5   8
HETATM    8  C10 UNL     1      23.663   3.983  49.504  1.00  0.00     0.262 C 
HETATM    9  O1  UNL     1      23.690   4.720  48.482  1.00  0.00    -0.267 OA
HETATM   10  N3  UNL     1      24.828   4.041  50.298  1.00  0.00    -0.323 N 
HETATM   11  H14 UNL     1      24.918   3.483  51.154  1.00  0.00     0.169 HD
BRANCH  10  12
HETATM   12  C11 UNL     1      25.784   4.951  49.736  1.00  0.00     0.035 A 
HETATM   13  C12 UNL     1      26.875   4.502  49.060  1.00  0.00     0.032 A 
HETATM   14  C13 UNL     1      27.798   5.339  48.515  1.00  0.00     0.031 A 
HETATM   15  C14 UNL     1      27.689   6.700  48.615  1.00  0.00     0.030 A 
HETATM   16  C20 UNL     1      26.589   7.169  49.297  1.00  0.00     0.031 A 
HETATM   17  C21 UNL     1      25.641   6.334  49.856  1.00  0.00     0.032 A 
BRANCH  15  18
HETATM   18  N4  UNL     1      28.608   7.642  48.076  1.00  0.00    -0.378 N 
HETATM   19  C15 UNL     1      28.966   8.953  48.573  1.00  0.00     0.153 C 
HETATM   20  C16 UNL     1      30.424   8.904  48.977  1.00  0.00     0.291 C 
HETATM   21  N5  UNL     1      31.317   8.551  47.919  1.00  0.00     0.087 N 
HETATM   22  C17 UNL     1      32.569   8.123  48.563  1.00  0.00     0.310 C 
HETATM   23  C18 UNL     1      30.879   7.450  47.120  1.00  0.00     0.291 C 
HETATM   24  C19 UNL     1      29.387   7.446  46.876  1.00  0.00     0.153 C 
ENDBRANCH  15  18
ENDBRANCH  10  12
ENDBRANCH   5   8
BRANCH   1  25
HETATM   25  N1  UNL     1      19.781   1.869  51.987  1.00  0.00    -0.234 NA
HETATM   26  H8  UNL     1      19.129   1.152  51.609  1.00  0.00     0.146 HD
BRANCH  25  27
HETATM   27  C5  UNL     1      20.438   1.372  53.159  1.00  0.00     0.124 C 
BRANCH  27  28
HETATM   28  C4  UNL     1      21.126   0.045  52.929  1.00  0.00     0.068 A 
HETATM   29  C3  UNL     1      22.488   0.029  53.490  1.00  0.00    -0.009 A 
HETATM   30  C2  UNL     1      22.476  -0.883  54.442  1.00  0.00    -0.064 A 
HETATM   31  C1  UNL     1      23.627  -1.265  55.302  1.00  0.00     0.048 C 
HETATM   32  C24 UNL     1      21.168  -1.519  54.585  1.00  0.00     0.026 A 
HETATM   33  C23 UNL     1      20.362  -0.979  53.696  1.00  0.00     0.021 A 
HETATM   34 CL1  UNL     1      18.663  -1.260  53.312  1.00  0.00    -0.088 Cl
ENDBRANCH  27  28
ENDBRANCH  25  27
ENDBRANCH   1  25
TORSDOF 6
ENDMDL
MODEL 4
REMARK VINA RESULT:      -8.7      5.534      8.545
REMARK  6 active torsions:
REMARK  status: ('A' for Active; 'I' for Inactive)
REMARK    1  A    between atoms: C4_4  and  C5_5 
REMARK    2  A    between atoms: C5_5  and  N1_6 
REMARK    3  A    between atoms: N1_6  and  N2_7 
REMARK    4  A    between atoms: C9_11  and  C10_12 
REMARK       I    between atoms: C10_12  and  N3_14 
REMARK    5  A    between atoms: N3_14  and  C11_15 
REMARK    6  A    between atoms: C14_18  and  N4_19 
ROOT
HETATM    1  N2  UNL     1      21.327   2.986  51.305  1.00  0.00    -0.274 N 
HETATM    2  C6  UNL     1      20.810   4.327  51.494  1.00  0.00     0.181 A 
HETATM    3  C7  UNL     1      21.929   5.228  51.057  1.00  0.00    -0.043 A 
HETATM    4  C8  UNL     1      21.791   6.705  51.099  1.00  0.00     0.046 C 
HETATM    5  C9  UNL     1      22.960   4.529  50.667  1.00  0.00     0.105 A 
HETATM    6  C22 UNL     1      22.647   3.117  50.798  1.00  0.00     0.274 A 
HETATM    7  O2  UNL     1      23.305   2.089  50.553  1.00  0.00    -0.266 OA
ENDROOT
BRANCH   5   8
HETATM    8  C10 UNL     1      24.232   5.047  50.176  1.00  0.00     0.262 C 
HETATM    9  O1  UNL     1      24.909   5.895  50.817  1.00  0.00    -0.267 OA
HETATM   10  N3  UNL     1      24.805   4.648  48.950  1.00  0.00    -0.323 N 
HETATM   11  H14 UNL     1      24.341   3.962  48.343  1.00  0.00     0.169 HD
BRANCH  10  12
HETATM   12  C11 UNL     1      26.052   5.319  48.727  1.00  0.00     0.035 A 
HETATM   13  C12 UNL     1      27.236   4.655  48.799  1.00  0.00     0.032 A 
HETATM   14  C13 UNL     1      28.434   5.264  48.592  1.00  0.00     0.031 A 
HETATM   15  C14 UNL     1      28.527   6.597  48.296  1.00  0.00     0.030 A 
HETATM   16  C20 UNL     1      27.336   7.283  48.219  1.00  0.00     0.031 A 
HETATM   17  C21 UNL     1      26.109   6.681  48.426  1.00  0.00     0.032 A 
BRANCH  15  18
HETATM   18  N4  UNL     1      29.737   7.307  48.066  1.00  0.00    -0.378 N 
HETATM   19  C15 UNL     1      30.435   8.226  48.940  1.00  0.00     0.153 C 
HETATM   20  C16 UNL     1      31.763   7.594  49.298  1.00  0.00     0.291 C 
HETATM   21  N5  UNL     1      32.597   7.301  48.176  1.00  0.00     0.087 N 
HETATM   22  C17 UNL     1      33.591   6.323  48.646  1.00  0.00     0.310 C 
HETATM   23  C18 UNL     1      31.916   6.685  47.080  1.00  0.00     0.291 C 
HETATM   24  C19 UNL     1      30.525   7.233  46.858  1.00  0.00     0.153 C 
ENDBRANCH  15  18
ENDBRANCH  10  12
ENDBRANCH   5   8
BRANCH   1  25
HETATM   25  N1  UNL     1      20.548   1.873  51.613  1.00  0.00    -0.234 NA
HETATM   26  H8  UNL     1      20.644   1.124  50.898  1.00  0.00     0.146 HD
BRANCH  25  27
HETATM   27  C5  UNL     1      20.943   1.383  52.900  1.00  0.00     0.124 C 
BRANCH  27  28
HETATM   28  C4  UNL     1      21.484  -0.028  52.850  1.00  0.00     0.068 A 
HETATM   29  C3  UNL     1      22.827  -0.121  53.449  1.00  0.00    -0.009 A 
HETATM   30  C2  UNL     1      22.700  -0.903  54.502  1.00  0.00    -0.064 A 
HETATM   31  C1  UNL     1      23.787  -1.298  55.435  1.00  0.00     0.048 C 
HETATM   32  C24 UNL     1      21.328  -1.374  54.682  1.00  0.00     0.026 A 
HETATM   33  C23 UNL     1      20.600  -0.863  53.711  1.00  0.00     0.021 A 
HETATM   34 CL1  UNL     1      18.887  -1.005  53.314  1.00  0.00    -0.088 Cl
ENDBRANCH  27  28
ENDBRANCH  25  27
ENDBRANCH   1  25
TORSDOF 6
ENDMDL
MODEL 5
REMARK VINA RESULT:      -8.6      1.826      2.494
REMARK  6 active torsions:
REMARK  status: ('A' for Active; 'I' for Inactive)
REMARK    1  A    between atoms: C4_4  and  C5_5 
REMARK    2  A    between atoms: C5_5  and  N1_6 
REMARK    3  A    between atoms: N1_6  and  N2_7 
REMARK    4  A    between atoms: C9_11  and  C10_12 
REMARK       I    between atoms: C10_12  and  N3_14 
REMARK    5  A    between atoms: N3_14  and  C11_15 
REMARK    6  A    between atoms: C14_18  and  N4_19 
ROOT
HETATM    1  N2  UNL     1      16.413  -0.277  51.726  1.00  0.00    -0.274 N 
HETATM    2  C6  UNL     1      16.663   0.516  50.538  1.00  0.00     0.181 A 
HETATM    3  C7  UNL     1      18.118   0.878  50.626  1.00  0.00    -0.043 A 
HETATM    4  C8  UNL     1      18.772   1.701  49.578  1.00  0.00     0.046 C 
HETATM    5  C9  UNL     1      18.656   0.376  51.705  1.00  0.00     0.105 A 
HETATM    6  C22 UNL     1      17.640  -0.358  52.438  1.00  0.00     0.274 A 
HETATM    7  O2  UNL     1      17.677  -0.996  53.505  1.00  0.00    -0.266 OA
ENDROOT
BRANCH   5   8
HETATM    8  C10 UNL     1      20.042   0.513  52.134  1.00  0.00     0.262 C 
HETATM    9  O1  UNL     1      20.373   1.187  53.147  1.00  0.00    -0.267 OA
HETATM   10  N3  UNL     1      21.122  -0.091  51.456  1.00  0.00    -0.323 N 
HETATM   11  H14 UNL     1      20.972  -0.663  50.617  1.00  0.00     0.169 HD
BRANCH  10  12
HETATM   12  C11 UNL     1      22.366   0.214  52.102  1.00  0.00     0.035 A 
HETATM   13  C12 UNL     1      23.106   1.295  51.737  1.00  0.00     0.032 A 
HETATM   14  C13 UNL     1      24.288   1.611  52.330  1.00  0.00     0.031 A 
HETATM   15  C14 UNL     1      24.815   0.853  53.341  1.00  0.00     0.030 A 
HETATM   16  C20 UNL     1      24.077  -0.245  53.722  1.00  0.00     0.031 A 
HETATM   17  C21 UNL     1      22.873  -0.580  53.131  1.00  0.00     0.032 A 
BRANCH  15  18
HETATM   18  N4  UNL     1      26.041   1.114  54.012  1.00  0.00    -0.378 N 
HETATM   19  C15 UNL     1      26.617   0.438  55.155  1.00  0.00     0.153 C 
HETATM   20  C16 UNL     1      27.891  -0.235  54.691  1.00  0.00     0.291 C 
HETATM   21  N5  UNL     1      28.864   0.658  54.144  1.00  0.00     0.087 N 
HETATM   22  C17 UNL     1      29.793  -0.173  53.364  1.00  0.00     0.310 C 
HETATM   23  C18 UNL     1      28.332   1.626  53.237  1.00  0.00     0.291 C 
HETATM   24  C19 UNL     1      26.978   2.153  53.653  1.00  0.00     0.153 C 
ENDBRANCH  15  18
ENDBRANCH  10  12
ENDBRANCH   5   8
BRANCH   1  25
HETATM   25  N1  UNL     1      15.146  -0.795  51.982  1.00  0.00    -0.234 NA
HETATM   26  H8  UNL     1      15.104  -1.277  52.902  1.00  0.00     0.146 HD
BRANCH  25  27
HETATM   27  C5  UNL     1      14.199   0.280  51.942  1.00  0.00     0.124 C 
BRANCH  27  28
HETATM   28  C4  UNL     1      14.197   1.107  53.209  1.00  0.00     0.068 A 
HETATM   29  C3  UNL     1      14.301   2.548  52.923  1.00  0.00    -0.009 A 
HETATM   30  C2  UNL     1      13.174   3.084  53.347  1.00  0.00    -0.064 A 
HETATM   31  C1  UNL     1      12.808   4.522  53.276  1.00  0.00     0.048 C 
HETATM   32  C24 UNL     1      12.270   2.091  53.924  1.00  0.00     0.026 A 
HETATM   33  C23 UNL     1      12.864   0.919  53.848  1.00  0.00     0.021 A 
HETATM   34 CL1  UNL     1      12.361  -0.698  54.344  1.00  0.00    -0.088 Cl
ENDBRANCH  27  28
ENDBRANCH  25  27
ENDBRANCH   1  25
TORSDOF 6
ENDMDL
MODEL 6
REMARK VINA RESULT:      -8.6      3.544     11.496
REMARK  6 active torsions:
REMARK  status: ('A' for Active; 'I' for Inactive)
REMARK    1  A    between atoms: C4_4  and  C5_5 
REMARK    2  A    between atoms: C5_5  and  N1_6 
REMARK    3  A    between atoms: N1_6  and  N2_7 
REMARK    4  A    between atoms: C9_11  and  C10_12 
REMARK       I    between atoms: C10_12  and  N3_14 
REMARK    5  A    between atoms: N3_14  and  C11_15 
REMARK    6  A    between atoms: C14_18  and  N4_19 
ROOT
HETATM    1  N2  UNL     1      25.160   2.610  51.657  1.00  0.00    -0.274 N 
HETATM    2  C6  UNL     1      24.993   3.049  50.285  1.00  0.00     0.181 A 
HETATM    3  C7  UNL     1      23.548   2.781  49.976  1.00  0.00    -0.043 A 
HETATM    4  C8  UNL     1      22.972   3.099  48.646  1.00  0.00     0.046 C 
HETATM    5  C9  UNL     1      22.943   2.261  51.009  1.00  0.00     0.105 A 
HETATM    6  C22 UNL     1      23.898   2.127  52.095  1.00  0.00     0.274 A 
HETATM    7  O2  UNL     1      23.788   1.690  53.255  1.00  0.00    -0.266 OA
ENDROOT
BRANCH   5   8
HETATM    8  C10 UNL     1      21.542   1.865  51.093  1.00  0.00     0.262 C 
HETATM    9  O1  UNL     1      20.649   2.634  51.541  1.00  0.00    -0.267 OA
HETATM   10  N3  UNL     1      21.073   0.598  50.686  1.00  0.00    -0.323 N 
HETATM   11  H14 UNL     1      21.711  -0.109  50.306  1.00  0.00     0.169 HD
BRANCH  10  12
HETATM   12  C11 UNL     1      19.656   0.491  50.884  1.00  0.00     0.035 A 
HETATM   13  C12 UNL     1      18.776   0.941  49.950  1.00  0.00     0.032 A 
HETATM   14  C13 UNL     1      17.428   0.852  50.109  1.00  0.00     0.031 A 
HETATM   15  C14 UNL     1      16.865   0.301  51.228  1.00  0.00     0.030 A 
HETATM   16  C20 UNL     1      17.745  -0.159  52.182  1.00  0.00     0.031 A 
HETATM   17  C21 UNL     1      19.117  -0.078  52.038  1.00  0.00     0.032 A 
BRANCH  15  18
HETATM   18  N4  UNL     1      15.471   0.171  51.470  1.00  0.00    -0.378 N 
HETATM   19  C15 UNL     1      14.792  -0.333  52.645  1.00  0.00     0.153 C 
HETATM   20  C16 UNL     1      14.019   0.819  53.253  1.00  0.00     0.291 C 
HETATM   21  N5  UNL     1      13.054   1.407  52.379  1.00  0.00     0.087 N 
HETATM   22  C17 UNL     1      12.742   2.730  52.942  1.00  0.00     0.310 C 
HETATM   23  C18 UNL     1      13.525   1.637  51.050  1.00  0.00     0.291 C 
HETATM   24  C19 UNL     1      14.430   0.539  50.539  1.00  0.00     0.153 C 
ENDBRANCH  15  18
ENDBRANCH  10  12
ENDBRANCH   5   8
BRANCH   1  25
HETATM   25  N1  UNL     1      26.396   2.709  52.291  1.00  0.00    -0.234 NA
HETATM   26  H8  UNL     1      26.295   2.849  53.316  1.00  0.00     0.146 HD
BRANCH  25  27
HETATM   27  C5  UNL     1      27.140   1.514  52.024  1.00  0.00     0.124 C 
BRANCH  27  28
HETATM   28  C4  UNL     1      27.341   0.661  53.257  1.00  0.00     0.068 A 
HETATM   29  C3  UNL     1      27.198  -0.775  52.960  1.00  0.00    -0.009 A 
HETATM   30  C2  UNL     1      28.379  -1.312  53.193  1.00  0.00    -0.064 A 
HETATM   31  C1  UNL     1      28.734  -2.746  53.034  1.00  0.00     0.048 C 
HETATM   32  C24 UNL     1      29.358  -0.325  53.644  1.00  0.00     0.026 A 
HETATM   33  C23 UNL     1      28.756   0.844  53.686  1.00  0.00     0.021 A 
HETATM   34 CL1  UNL     1      29.324   2.454  54.133  1.00  0.00    -0.088 Cl
ENDBRANCH  27  28
ENDBRANCH  25  27
ENDBRANCH   1  25
TORSDOF 6
ENDMDL
MODEL 7
REMARK VINA RESULT:      -8.5      7.753     11.491
REMARK  6 active torsions:
REMARK  status: ('A' for Active; 'I' for Inactive)
REMARK    1  A    between atoms: C4_4  and  C5_5 
REMARK    2  A    between atoms: C5_5  and  N1_6 
REMARK    3  A    between atoms: N1_6  and  N2_7 
REMARK    4  A    between atoms: C9_11  and  C10_12 
REMARK       I    between atoms: C10_12  and  N3_14 
REMARK    5  A    between atoms: N3_14  and  C11_15 
REMARK    6  A    between atoms: C14_18  and  N4_19 
ROOT
HETATM    1  N2  UNL     1      25.121   2.640  51.606  1.00  0.00    -0.274 N 
HETATM    2  C6  UNL     1      24.054   3.269  50.853  1.00  0.00     0.181 A 
HETATM    3  C7  UNL     1      24.760   4.143  49.856  1.00  0.00    -0.043 A 
HETATM    4  C8  UNL     1      24.003   4.968  48.882  1.00  0.00     0.046 C 
HETATM    5  C9  UNL     1      26.055   4.050  49.995  1.00  0.00     0.105 A 
HETATM    6  C22 UNL     1      26.346   3.124  51.075  1.00  0.00     0.274 A 
HETATM    7  O2  UNL     1      27.417   2.723  51.566  1.00  0.00    -0.266 OA
ENDROOT
BRANCH   5   8
HETATM    8  C10 UNL     1      27.069   4.747  49.214  1.00  0.00     0.262 C 
HETATM    9  O1  UNL     1      27.899   4.138  48.487  1.00  0.00    -0.267 OA
HETATM   10  N3  UNL     1      27.208   6.151  49.208  1.00  0.00    -0.323 N 
HETATM   11  H14 UNL     1      26.587   6.751  49.764  1.00  0.00     0.169 HD
BRANCH  10  12
HETATM   12  C11 UNL     1      28.286   6.555  48.352  1.00  0.00     0.035 A 
HETATM   13  C12 UNL     1      28.080   7.394  47.302  1.00  0.00     0.032 A 
HETATM   14  C13 UNL     1      29.081   7.794  46.474  1.00  0.00     0.031 A 
HETATM   15  C14 UNL     1      30.373   7.374  46.644  1.00  0.00     0.030 A 
HETATM   16  C20 UNL     1      30.597   6.524  47.703  1.00  0.00     0.031 A 
HETATM   17  C21 UNL     1      29.592   6.107  48.556  1.00  0.00     0.032 A 
BRANCH  15  18
HETATM   18  N4  UNL     1      31.474   7.745  45.825  1.00  0.00    -0.378 N 
HETATM   19  C15 UNL     1      32.828   8.077  46.213  1.00  0.00     0.153 C 
HETATM   20  C16 UNL     1      33.739   7.011  45.643  1.00  0.00     0.291 C 
HETATM   21  N5  UNL     1      33.684   6.888  44.220  1.00  0.00     0.087 N 
HETATM   22  C17 UNL     1      34.252   5.570  43.899  1.00  0.00     0.310 C 
HETATM   23  C18 UNL     1      32.361   6.899  43.679  1.00  0.00     0.291 C 
HETATM   24  C19 UNL     1      31.434   7.861  44.386  1.00  0.00     0.153 C 
ENDBRANCH  15  18
ENDBRANCH  10  12
ENDBRANCH   5   8
BRANCH   1  25
HETATM   25  N1  UNL     1      24.834   1.746  52.635  1.00  0.00    -0.234 NA
HETATM   26  H8  UNL     1      23.933   1.970  53.102  1.00  0.00     0.146 HD
BRANCH  25  27
HETATM   27  C5  UNL     1      24.793   0.422  52.088  1.00  0.00     0.124 C 
BRANCH  27  28
HETATM   28  C4  UNL     1      25.632  -0.563  52.873  1.00  0.00     0.068 A 
HETATM   29  C3  UNL     1      27.054  -0.180  52.890  1.00  0.00    -0.009 A 
HETATM   30  C2  UNL     1      27.345   0.075  54.150  1.00  0.00    -0.064 A 
HETATM   31  C1  UNL     1      28.669   0.502  54.674  1.00  0.00     0.048 C 
HETATM   32  C24 UNL     1      26.196  -0.110  55.034  1.00  0.00     0.026 A 
HETATM   33  C23 UNL     1      25.177  -0.486  54.290  1.00  0.00     0.021 A 
HETATM   34 CL1  UNL     1      23.503  -0.878  54.686  1.00  0.00    -0.088 Cl
ENDBRANCH  27  28
ENDBRANCH  25  27
ENDBRANCH   1  25
TORSDOF 6
ENDMDL
MODEL 8
REMARK VINA RESULT:      -8.5      3.416     11.630
REMARK  6 active torsions:
REMARK  status: ('A' for Active; 'I' for Inactive)
REMARK    1  A    between atoms: C4_4  and  C5_5 
REMARK    2  A    between atoms: C5_5  and  N1_6 
REMARK    3  A    between atoms: N1_6  and  N2_7 
REMARK    4  A    between atoms: C9_11  and  C10_12 
REMARK       I    between atoms: C10_12  and  N3_14 
REMARK    5  A    between atoms: N3_14  and  C11_15 
REMARK    6  A    between atoms: C14_18  and  N4_19 
ROOT
HETATM    1  N2  UNL     1      24.157   0.295  52.675  1.00  0.00    -0.274 N 
HETATM    2  C6  UNL     1      23.923  -0.703  53.700  1.00  0.00     0.181 A 
HETATM    3  C7  UNL     1      22.428  -0.778  53.820  1.00  0.00    -0.043 A 
HETATM    4  C8  UNL     1      21.777  -1.703  54.781  1.00  0.00     0.046 C 
HETATM    5  C9  UNL     1      21.855   0.052  52.991  1.00  0.00     0.105 A 
HETATM    6  C22 UNL     1      22.883   0.755  52.244  1.00  0.00     0.274 A 
HETATM    7  O2  UNL     1      22.824   1.627  51.358  1.00  0.00    -0.266 OA
ENDROOT
BRANCH   5   8
HETATM    8  C10 UNL     1      20.423   0.265  52.818  1.00  0.00     0.262 C 
HETATM    9  O1  UNL     1      19.673   0.616  53.767  1.00  0.00    -0.267 OA
HETATM   10  N3  UNL     1      19.762   0.094  51.583  1.00  0.00    -0.323 N 
HETATM   11  H14 UNL     1      20.273  -0.192  50.740  1.00  0.00     0.169 HD
BRANCH  10  12
HETATM   12  C11 UNL     1      18.361   0.371  51.711  1.00  0.00     0.035 A 
HETATM   13  C12 UNL     1      17.840   1.570  51.339  1.00  0.00     0.032 A 
HETATM   14  C13 UNL     1      16.516   1.862  51.448  1.00  0.00     0.031 A 
HETATM   15  C14 UNL     1      15.615   0.960  51.945  1.00  0.00     0.030 A 
HETATM   16  C20 UNL     1      16.128  -0.259  52.326  1.00  0.00     0.031 A 
HETATM   17  C21 UNL     1      17.469  -0.574  52.222  1.00  0.00     0.032 A 
BRANCH  15  18
HETATM   18  N4  UNL     1      14.219   1.186  52.091  1.00  0.00    -0.378 N 
HETATM   19  C15 UNL     1      13.262   0.479  52.916  1.00  0.00     0.153 C 
HETATM   20  C16 UNL     1      12.759   1.451  53.963  1.00  0.00     0.291 C 
HETATM   21  N5  UNL     1      12.134   2.620  53.429  1.00  0.00     0.087 N 
HETATM   22  C17 UNL     1      12.122   3.612  54.516  1.00  0.00     0.310 C 
HETATM   23  C18 UNL     1      12.840   3.222  52.343  1.00  0.00     0.291 C 
HETATM   24  C19 UNL     1      13.470   2.215  51.408  1.00  0.00     0.153 C 
ENDBRANCH  15  18
ENDBRANCH  10  12
ENDBRANCH   5   8
BRANCH   1  25
HETATM   25  N1  UNL     1      25.453   0.633  52.292  1.00  0.00    -0.234 NA
HETATM   26  H8  UNL     1      25.714   1.587  52.613  1.00  0.00     0.146 HD
BRANCH  25  27
HETATM   27  C5  UNL     1      26.355  -0.339  52.836  1.00  0.00     0.124 C 
BRANCH  27  28
HETATM   28  C4  UNL     1      27.805  -0.017  52.550  1.00  0.00     0.068 A 
HETATM   29  C3  UNL     1      28.188   1.304  53.079  1.00  0.00    -0.009 A 
HETATM   30  C2  UNL     1      29.099   1.074  54.003  1.00  0.00    -0.064 A 
HETATM   31  C1  UNL     1      29.791   2.100  54.825  1.00  0.00     0.048 C 
HETATM   32  C24 UNL     1      29.384  -0.352  54.158  1.00  0.00     0.026 A 
HETATM   33  C23 UNL     1      28.626  -1.006  53.304  1.00  0.00     0.021 A 
HETATM   34 CL1  UNL     1      28.450  -2.725  52.952  1.00  0.00    -0.088 Cl
ENDBRANCH  27  28
ENDBRANCH  25  27
ENDBRANCH   1  25
TORSDOF 6
ENDMDL
MODEL 9
REMARK VINA RESULT:      -8.3      5.827      8.408
REMARK  6 active torsions:
REMARK  status: ('A' for Active; 'I' for Inactive)
REMARK    1  A    between atoms: C4_4  and  C5_5 
REMARK    2  A    between atoms: C5_5  and  N1_6 
REMARK    3  A    between atoms: N1_6  and  N2_7 
REMARK    4  A    between atoms: C9_11  and  C10_12 
REMARK       I    between atoms: C10_12  and  N3_14 
REMARK    5  A    between atoms: N3_14  and  C11_15 
REMARK    6  A    between atoms: C14_18  and  N4_19 
ROOT
HETATM    1  N2  UNL     1      21.195   3.888  51.921  1.00  0.00    -0.274 N 
HETATM    2  C6  UNL     1      20.510   4.732  50.962  1.00  0.00     0.181 A 
HETATM    3  C7  UNL     1      21.613   5.388  50.181  1.00  0.00    -0.043 A 
HETATM    4  C8  UNL     1      21.318   6.342  49.084  1.00  0.00     0.046 C 
HETATM    5  C9  UNL     1      22.781   4.995  50.611  1.00  0.00     0.105 A 
HETATM    6  C22 UNL     1      22.589   4.055  51.702  1.00  0.00     0.274 A 
HETATM    7  O2  UNL     1      23.392   3.425  52.414  1.00  0.00    -0.266 OA
ENDROOT
BRANCH   5   8
HETATM    8  C10 UNL     1      24.084   5.411  50.105  1.00  0.00     0.262 C 
HETATM    9  O1  UNL     1      24.774   6.303  50.669  1.00  0.00    -0.267 OA
HETATM   10  N3  UNL     1      24.674   4.857  48.950  1.00  0.00    -0.323 N 
HETATM   11  H14 UNL     1      24.203   4.124  48.409  1.00  0.00     0.169 HD
BRANCH  10  12
HETATM   12  C11 UNL     1      25.951   5.457  48.692  1.00  0.00     0.035 A 
HETATM   13  C12 UNL     1      26.057   6.752  48.289  1.00  0.00     0.032 A 
HETATM   14  C13 UNL     1      27.252   7.348  48.038  1.00  0.00     0.031 A 
HETATM   15  C14 UNL     1      28.438   6.678  48.172  1.00  0.00     0.030 A 
HETATM   16  C20 UNL     1      28.347   5.366  48.579  1.00  0.00     0.031 A 
HETATM   17  C21 UNL     1      27.142   4.743  48.841  1.00  0.00     0.032 A 
BRANCH  15  18
HETATM   18  N4  UNL     1      29.727   7.227  47.930  1.00  0.00    -0.378 N 
HETATM   19  C15 UNL     1      30.283   7.735  46.694  1.00  0.00     0.153 C 
HETATM   20  C16 UNL     1      30.520   9.219  46.878  1.00  0.00     0.291 C 
HETATM   21  N5  UNL     1      31.405   9.545  47.952  1.00  0.00     0.087 N 
HETATM   22  C17 UNL     1      31.169  10.964  48.263  1.00  0.00     0.310 C 
HETATM   23  C18 UNL     1      31.158   8.823  49.160  1.00  0.00     0.291 C 
HETATM   24  C19 UNL     1      30.762   7.383  48.924  1.00  0.00     0.153 C 
ENDBRANCH  15  18
ENDBRANCH  10  12
ENDBRANCH   5   8
BRANCH   1  25
HETATM   25  N1  UNL     1      20.476   3.115  52.830  1.00  0.00    -0.234 NA
HETATM   26  H8  UNL     1      19.897   3.702  53.464  1.00  0.00     0.146 HD
BRANCH  25  27
HETATM   27  C5  UNL     1      19.646   2.207  52.097  1.00  0.00     0.124 C 
BRANCH  27  28
HETATM   28  C4  UNL     1      20.250   0.825  51.978  1.00  0.00     0.068 A 
HETATM   29  C3  UNL     1      21.368   0.633  52.918  1.00  0.00    -0.009 A 
HETATM   30  C2  UNL     1      20.984  -0.317  53.747  1.00  0.00    -0.064 A 
HETATM   31  C1  UNL     1      21.777  -0.864  54.879  1.00  0.00     0.048 C 
HETATM   32  C24 UNL     1      19.643  -0.813  53.441  1.00  0.00     0.026 A 
HETATM   33  C23 UNL     1      19.199  -0.145  52.397  1.00  0.00     0.021 A 
HETATM   34 CL1  UNL     1      17.681  -0.220  51.501  1.00  0.00    -0.088 Cl
ENDBRANCH  27  28
ENDBRANCH  25  27
ENDBRANCH   1  25
TORSDOF 6
ENDMDL
