MODEL 1
REMARK VINA RESULT:      -9.3      0.000      0.000
REMARK  6 active torsions:
REMARK  status: ('A' for Active; 'I' for Inactive)
REMARK    1  A    between atoms: C7_7  and  N1_8 
REMARK    2  A    between atoms: C9_11  and  N3_12 
REMARK    3  A    between atoms: C10_14  and  C11_15 
REMARK    4  A    between atoms: C12_16  and  C13_17 
REMARK    5  A    between atoms: C12_16  and  N5_26 
REMARK    6  A    between atoms: C13_17  and  C14_18 
ROOT
HETATM    1  C1  UNL     1      20.217   0.769  50.397  1.00  0.00     0.018 C 
HETATM    2  C2  UNL     1      20.929   0.428  51.327  1.00  0.00    -0.078 C 
HETATM    3  C3  UNL     1      21.762   0.012  52.416  1.00  0.00     0.019 A 
HETATM    4  C4  UNL     1      21.214  -0.694  53.465  1.00  0.00     0.021 A 
HETATM    5  C5  UNL     1      22.022  -1.088  54.508  1.00  0.00     0.004 A 
HETATM    6  C6  UNL     1      23.364  -0.772  54.486  1.00  0.00     0.030 A 
HETATM    7  C7  UNL     1      23.984  -0.070  53.473  1.00  0.00     0.039 A 
HETATM    8  C21 UNL     1      23.109   0.288  52.469  1.00  0.00     0.050 A 
ENDROOT
BRANCH   7   9
HETATM    9  N1  UNL     1      25.377   0.238  53.468  1.00  0.00    -0.313 N 
HETATM   10  C8  UNL     1      26.216  -0.521  54.331  1.00  0.00     0.232 A 
HETATM   11  N2  UNL     1      27.496  -0.255  54.334  1.00  0.00    -0.058 NA
HETATM   12  C9  UNL     1      27.866   0.791  53.444  1.00  0.00     0.718 A 
HETATM   13  N4  UNL     1      27.165   1.509  52.651  1.00  0.00    -0.075 NA
HETATM   14  C10 UNL     1      25.741   1.308  52.565  1.00  0.00     0.259 A 
BRANCH  12  15
HETATM   15  N3  UNL     1      29.266   1.137  53.395  1.00  0.00    -0.231 N 
HETATM   16  H6  UNL     1      29.782   0.317  52.993  1.00  0.00     0.174 HD
HETATM   17  H7  UNL     1      30.104   1.741  53.525  1.00  0.00     0.174 HD
ENDBRANCH  12  15
BRANCH  14  18
HETATM   18  C11 UNL     1      24.985   2.551  52.856  1.00  0.00     0.047 C 
HETATM   19  C12 UNL     1      24.419   3.314  51.947  1.00  0.00     0.009 C 
BRANCH  19  20
HETATM   20  C13 UNL     1      24.220   3.417  50.502  1.00  0.00     0.096 C 
BRANCH  20  21
HETATM   21  C14 UNL     1      25.197   4.270  49.798  1.00  0.00    -0.031 A 
HETATM   22  C15 UNL     1      26.503   3.806  49.616  1.00  0.00     0.011 A 
HETATM   23  C16 UNL     1      27.489   4.507  48.985  1.00  0.00     0.024 A 
HETATM   24  C17 UNL     1      27.215   5.762  48.481  1.00  0.00     0.035 A 
HETATM   25 CL1  UNL     1      28.452   6.692  47.667  1.00  0.00    -0.084 Cl
HETATM   26  C18 UNL     1      25.934   6.266  48.636  1.00  0.00     0.048 A 
HETATM   27  C19 UNL     1      24.977   5.512  49.282  1.00  0.00     0.042 A 
HETATM   28 CL2  UNL     1      23.401   6.202  49.434  1.00  0.00    -0.084 Cl
ENDBRANCH  20  21
ENDBRANCH  19  20
BRANCH  19  29
HETATM   29  N5  UNL     1      23.711   4.501  52.371  1.00  0.00    -0.397 N 
HETATM   30  C20 UNL     1      22.262   4.439  52.294  1.00  0.00     0.146 C 
HETATM   31  H15 UNL     1      24.021   5.429  52.734  1.00  0.00     0.158 HD
ENDBRANCH  19  29
ENDBRANCH  14  18
ENDBRANCH   7   9
TORSDOF 6
ENDMDL
MODEL 2
REMARK VINA RESULT:      -8.8      1.674      2.557
REMARK  6 active torsions:
REMARK  status: ('A' for Active; 'I' for Inactive)
REMARK    1  A    between atoms: C7_7  and  N1_8 
REMARK    2  A    between atoms: C9_11  and  N3_12 
REMARK    3  A    between atoms: C10_14  and  C11_15 
REMARK    4  A    between atoms: C12_16  and  C13_17 
REMARK    5  A    between atoms: C12_16  and  N5_26 
REMARK    6  A    between atoms: C13_17  and  C14_18 
ROOT
HETATM    1  C1  UNL     1      19.506   0.954  50.241  1.00  0.00     0.018 C 
HETATM    2  C2  UNL     1      20.172   0.635  51.212  1.00  0.00    -0.078 C 
HETATM    3  C3  UNL     1      20.949   0.245  52.351  1.00  0.00     0.019 A 
HETATM    4  C4  UNL     1      20.315  -0.223  53.483  1.00  0.00     0.021 A 
HETATM    5  C5  UNL     1      21.070  -0.593  54.573  1.00  0.00     0.004 A 
HETATM    6  C6  UNL     1      22.443  -0.492  54.517  1.00  0.00     0.030 A 
HETATM    7  C7  UNL     1      23.148  -0.034  53.422  1.00  0.00     0.039 A 
HETATM    8  C21 UNL     1      22.322   0.317  52.375  1.00  0.00     0.050 A 
ENDROOT
BRANCH   7   9
HETATM    9  N1  UNL     1      24.571   0.054  53.383  1.00  0.00    -0.313 N 
HETATM   10  C8  UNL     1      25.301  -0.791  54.265  1.00  0.00     0.232 A 
HETATM   11  N2  UNL     1      26.607  -0.726  54.239  1.00  0.00    -0.058 NA
HETATM   12  C9  UNL     1      27.115   0.214  53.300  1.00  0.00     0.718 A 
HETATM   13  N4  UNL     1      26.516   1.000  52.487  1.00  0.00    -0.075 NA
HETATM   14  C10 UNL     1      25.077   1.018  52.431  1.00  0.00     0.259 A 
BRANCH  12  15
HETATM   15  N3  UNL     1      28.549   0.336  53.215  1.00  0.00    -0.231 N 
HETATM   16  H6  UNL     1      28.932   0.277  54.191  1.00  0.00     0.174 HD
HETATM   17  H7  UNL     1      29.471   0.454  52.744  1.00  0.00     0.174 HD
ENDBRANCH  12  15
BRANCH  14  18
HETATM   18  C11 UNL     1      24.528   2.374  52.680  1.00  0.00     0.047 C 
HETATM   19  C12 UNL     1      24.572   3.370  51.823  1.00  0.00     0.009 C 
BRANCH  19  20
HETATM   20  C13 UNL     1      25.044   3.704  50.480  1.00  0.00     0.096 C 
BRANCH  20  21
HETATM   21  C14 UNL     1      23.993   3.750  49.444  1.00  0.00    -0.031 A 
HETATM   22  C15 UNL     1      23.229   2.606  49.193  1.00  0.00     0.011 A 
HETATM   23  C16 UNL     1      22.238   2.532  48.259  1.00  0.00     0.024 A 
HETATM   24  C17 UNL     1      21.941   3.640  47.492  1.00  0.00     0.035 A 
HETATM   25 CL1  UNL     1      20.677   3.584  46.285  1.00  0.00    -0.084 Cl
HETATM   26  C18 UNL     1      22.671   4.798  47.704  1.00  0.00     0.048 A 
HETATM   27  C19 UNL     1      23.662   4.816  48.662  1.00  0.00     0.042 A 
HETATM   28 CL2  UNL     1      24.525   6.296  48.874  1.00  0.00    -0.084 Cl
ENDBRANCH  20  21
ENDBRANCH  19  20
BRANCH  19  29
HETATM   29  N5  UNL     1      23.998   4.642  52.197  1.00  0.00    -0.397 N 
HETATM   30  C20 UNL     1      22.574   4.638  52.482  1.00  0.00     0.146 C 
HETATM   31  H15 UNL     1      24.393   5.601  52.313  1.00  0.00     0.158 HD
ENDBRANCH  19  29
ENDBRANCH  14  18
ENDBRANCH   7   9
TORSDOF 6
ENDMDL
MODEL 3
REMARK VINA RESULT:      -8.6      3.123      5.266
REMARK  6 active torsions:
REMARK  status: ('A' for Active; 'I' for Inactive)
REMARK    1  A    between atoms: C7_7  and  N1_8 
REMARK    2  A    between atoms: C9_11  and  N3_12 
REMARK    3  A    between atoms: C10_14  and  C11_15 
REMARK    4  A    between atoms: C12_16  and  C13_17 
REMARK    5  A    between atoms: C12_16  and  N5_26 
REMARK    6  A    between atoms: C13_17  and  C14_18 
ROOT
HETATM    1  C1  UNL     1      23.000   3.438  48.227  1.00  0.00     0.018 C 
HETATM    2  C2  UNL     1      22.334   2.722  48.955  1.00  0.00    -0.078 C 
HETATM    3  C3  UNL     1      21.549   1.871  49.799  1.00  0.00     0.019 A 
HETATM    4  C4  UNL     1      20.225   1.637  49.493  1.00  0.00     0.021 A 
HETATM    5  C5  UNL     1      19.478   0.819  50.310  1.00  0.00     0.004 A 
HETATM    6  C6  UNL     1      20.064   0.247  51.418  1.00  0.00     0.030 A 
HETATM    7  C7  UNL     1      21.380   0.432  51.789  1.00  0.00     0.039 A 
HETATM    8  C21 UNL     1      22.059   1.262  50.923  1.00  0.00     0.050 A 
ENDROOT
BRANCH   7   9
HETATM    9  N1  UNL     1      21.967  -0.178  52.937  1.00  0.00    -0.313 N 
HETATM   10  C8  UNL     1      21.113  -0.949  53.775  1.00  0.00     0.232 A 
HETATM   11  N2  UNL     1      21.637  -1.520  54.829  1.00  0.00    -0.058 NA
HETATM   12  C9  UNL     1      23.029  -1.272  54.982  1.00  0.00     0.718 A 
HETATM   13  N4  UNL     1      23.846  -0.591  54.271  1.00  0.00    -0.075 NA
HETATM   14  C10 UNL     1      23.382   0.085  53.088  1.00  0.00     0.259 A 
BRANCH  12  15
HETATM   15  N3  UNL     1      23.674  -1.873  56.123  1.00  0.00    -0.231 N 
HETATM   16  H6  UNL     1      24.558  -2.328  55.786  1.00  0.00     0.174 HD
HETATM   17  H7  UNL     1      23.791  -2.137  57.124  1.00  0.00     0.174 HD
ENDBRANCH  12  15
BRANCH  14  18
HETATM   18  C11 UNL     1      23.665   1.542  53.132  1.00  0.00     0.047 C 
HETATM   19  C12 UNL     1      24.677   2.127  52.531  1.00  0.00     0.009 C 
BRANCH  19  20
HETATM   20  C13 UNL     1      25.834   1.831  51.687  1.00  0.00     0.096 C 
BRANCH  20  21
HETATM   21  C14 UNL     1      26.754   0.810  52.226  1.00  0.00    -0.031 A 
HETATM   22  C15 UNL     1      26.542  -0.536  51.911  1.00  0.00     0.011 A 
HETATM   23  C16 UNL     1      27.323  -1.563  52.354  1.00  0.00     0.024 A 
HETATM   24  C17 UNL     1      28.402  -1.294  53.172  1.00  0.00     0.035 A 
HETATM   25 CL1  UNL     1      29.426  -2.582  53.760  1.00  0.00    -0.084 Cl
HETATM   26  C18 UNL     1      28.653   0.026  53.513  1.00  0.00     0.048 A 
HETATM   27  C19 UNL     1      27.830   1.023  53.035  1.00  0.00     0.042 A 
HETATM   28 CL2  UNL     1      28.207   2.644  53.497  1.00  0.00    -0.084 Cl
ENDBRANCH  20  21
ENDBRANCH  19  20
BRANCH  19  29
HETATM   29  N5  UNL     1      24.835   3.558  52.658  1.00  0.00    -0.397 N 
HETATM   30  C20 UNL     1      23.609   4.322  52.811  1.00  0.00     0.146 C 
HETATM   31  H15 UNL     1      25.666   4.190  52.665  1.00  0.00     0.158 HD
ENDBRANCH  19  29
ENDBRANCH  14  18
ENDBRANCH   7   9
TORSDOF 6
ENDMDL
MODEL 4
REMARK VINA RESULT:      -8.5      3.000      6.070
REMARK  6 active torsions:
REMARK  status: ('A' for Active; 'I' for Inactive)
REMARK    1  A    between atoms: C7_7  and  N1_8 
REMARK    2  A    between atoms: C9_11  and  N3_12 
REMARK    3  A    between atoms: C10_14  and  C11_15 
REMARK    4  A    between atoms: C12_16  and  C13_17 
REMARK    5  A    between atoms: C12_16  and  N5_26 
REMARK    6  A    between atoms: C13_17  and  C14_18 
ROOT
HETATM    1  C1  UNL     1      21.812  -0.684  54.928  1.00  0.00     0.018 C 
HETATM    2  C2  UNL     1      21.751  -0.129  53.844  1.00  0.00    -0.078 C 
HETATM    3  C3  UNL     1      21.664   0.518  52.568  1.00  0.00     0.019 A 
HETATM    4  C4  UNL     1      21.420  -0.231  51.437  1.00  0.00     0.021 A 
HETATM    5  C5  UNL     1      21.340   0.399  50.216  1.00  0.00     0.004 A 
HETATM    6  C6  UNL     1      21.502   1.766  50.143  1.00  0.00     0.030 A 
HETATM    7  C7  UNL     1      21.747   2.582  51.229  1.00  0.00     0.039 A 
HETATM    8  C21 UNL     1      21.814   1.876  52.412  1.00  0.00     0.050 A 
ENDROOT
BRANCH   7   9
HETATM    9  N1  UNL     1      21.903   3.996  51.130  1.00  0.00    -0.313 N 
HETATM   10  C8  UNL     1      20.846   4.728  50.519  1.00  0.00     0.232 A 
HETATM   11  N2  UNL     1      20.971   6.026  50.426  1.00  0.00    -0.058 NA
HETATM   12  C9  UNL     1      22.188   6.525  50.967  1.00  0.00     0.718 A 
HETATM   13  N4  UNL     1      23.172   5.924  51.522  1.00  0.00    -0.075 NA
HETATM   14  C10 UNL     1      23.147   4.492  51.677  1.00  0.00     0.259 A 
BRANCH  12  15
HETATM   15  N3  UNL     1      22.392   7.951  50.900  1.00  0.00    -0.231 N 
HETATM   16  H6  UNL     1      22.912   8.239  51.765  1.00  0.00     0.174 HD
HETATM   17  H7  UNL     1      22.330   8.906  50.488  1.00  0.00     0.174 HD
ENDBRANCH  12  15
BRANCH  14  18
HETATM   18  C11 UNL     1      24.321   3.844  51.041  1.00  0.00     0.047 C 
HETATM   19  C12 UNL     1      25.186   3.080  51.670  1.00  0.00     0.009 C 
BRANCH  19  20
HETATM   20  C13 UNL     1      25.480   2.533  52.994  1.00  0.00     0.096 C 
BRANCH  20  21
HETATM   21  C14 UNL     1      26.260   1.280  52.993  1.00  0.00    -0.031 A 
HETATM   22  C15 UNL     1      25.619   0.076  52.685  1.00  0.00     0.011 A 
HETATM   23  C16 UNL     1      26.236  -1.140  52.657  1.00  0.00     0.024 A 
HETATM   24  C17 UNL     1      27.582  -1.227  52.948  1.00  0.00     0.035 A 
HETATM   25 CL1  UNL     1      28.408  -2.767  52.922  1.00  0.00    -0.084 Cl
HETATM   26  C18 UNL     1      28.262  -0.061  53.259  1.00  0.00     0.048 A 
HETATM   27  C19 UNL     1      27.587   1.141  53.271  1.00  0.00     0.042 A 
HETATM   28 CL2  UNL     1      28.501   2.554  53.662  1.00  0.00    -0.084 Cl
ENDBRANCH  20  21
ENDBRANCH  19  20
BRANCH  19  29
HETATM   29  N5  UNL     1      26.288   2.511  50.927  1.00  0.00    -0.397 N 
HETATM   30  C20 UNL     1      26.642   3.191  49.694  1.00  0.00     0.146 C 
HETATM   31  H15 UNL     1      26.909   1.687  51.085  1.00  0.00     0.158 HD
ENDBRANCH  19  29
ENDBRANCH  14  18
ENDBRANCH   7   9
TORSDOF 6
ENDMDL
MODEL 5
REMARK VINA RESULT:      -8.5      2.446      4.700
REMARK  6 active torsions:
REMARK  status: ('A' for Active; 'I' for Inactive)
REMARK    1  A    between atoms: C7_7  and  N1_8 
REMARK    2  A    between atoms: C9_11  and  N3_12 
REMARK    3  A    between atoms: C10_14  and  C11_15 
REMARK    4  A    between atoms: C12_16  and  C13_17 
REMARK    5  A    between atoms: C12_16  and  N5_26 
REMARK    6  A    between atoms: C13_17  and  C14_18 
ROOT
HETATM    1  C1  UNL     1      28.288  -2.267  52.779  1.00  0.00     0.018 C 
HETATM    2  C2  UNL     1      27.440  -1.403  52.934  1.00  0.00    -0.078 C 
HETATM    3  C3  UNL     1      26.449  -0.382  53.101  1.00  0.00     0.019 A 
HETATM    4  C4  UNL     1      26.828   0.944  53.115  1.00  0.00     0.021 A 
HETATM    5  C5  UNL     1      25.869   1.917  53.277  1.00  0.00     0.004 A 
HETATM    6  C6  UNL     1      24.548   1.553  53.423  1.00  0.00     0.030 A 
HETATM    7  C7  UNL     1      24.091   0.251  53.420  1.00  0.00     0.039 A 
HETATM    8  C21 UNL     1      25.111  -0.663  53.253  1.00  0.00     0.050 A 
ENDROOT
BRANCH   7   9
HETATM    9  N1  UNL     1      22.717  -0.102  53.564  1.00  0.00    -0.313 N 
HETATM   10  C8  UNL     1      22.412  -1.212  54.400  1.00  0.00     0.232 A 
HETATM   11  N2  UNL     1      21.156  -1.545  54.547  1.00  0.00    -0.058 NA
HETATM   12  C9  UNL     1      20.255  -0.717  53.822  1.00  0.00     0.718 A 
HETATM   13  N4  UNL     1      20.465   0.286  53.056  1.00  0.00    -0.075 NA
HETATM   14  C10 UNL     1      21.810   0.742  52.817  1.00  0.00     0.259 A 
BRANCH  12  15
HETATM   15  N3  UNL     1      18.852  -1.026  53.940  1.00  0.00    -0.231 N 
HETATM   16  H6  UNL     1      18.348  -0.512  53.176  1.00  0.00     0.174 HD
HETATM   17  H7  UNL     1      18.004  -1.474  54.347  1.00  0.00     0.174 HD
ENDBRANCH  12  15
BRANCH  14  18
HETATM   18  C11 UNL     1      22.142   0.756  51.370  1.00  0.00     0.047 C 
HETATM   19  C12 UNL     1      22.308   1.844  50.650  1.00  0.00     0.009 C 
BRANCH  19  20
HETATM   20  C13 UNL     1      22.282   3.302  50.757  1.00  0.00     0.096 C 
BRANCH  20  21
HETATM   21  C14 UNL     1      23.437   3.992  50.152  1.00  0.00    -0.031 A 
HETATM   22  C15 UNL     1      24.731   3.613  50.524  1.00  0.00     0.011 A 
HETATM   23  C16 UNL     1      25.871   4.182  50.035  1.00  0.00     0.024 A 
HETATM   24  C17 UNL     1      25.780   5.204  49.112  1.00  0.00     0.035 A 
HETATM   25 CL1  UNL     1      27.217   5.958  48.463  1.00  0.00    -0.084 Cl
HETATM   26  C18 UNL     1      24.519   5.616  48.712  1.00  0.00     0.048 A 
HETATM   27  C19 UNL     1      23.401   5.004  49.240  1.00  0.00     0.042 A 
HETATM   28 CL2  UNL     1      21.863   5.566  48.691  1.00  0.00    -0.084 Cl
ENDBRANCH  20  21
ENDBRANCH  19  20
BRANCH  19  29
HETATM   29  N5  UNL     1      22.630   1.713  49.248  1.00  0.00    -0.397 N 
HETATM   30  C20 UNL     1      21.505   1.501  48.353  1.00  0.00     0.146 C 
HETATM   31  H15 UNL     1      23.526   1.738  48.712  1.00  0.00     0.158 HD
ENDBRANCH  19  29
ENDBRANCH  14  18
ENDBRANCH   7   9
TORSDOF 6
ENDMDL
MODEL 6
REMARK VINA RESULT:      -8.3      6.804     10.470
REMARK  6 active torsions:
REMARK  status: ('A' for Active; 'I' for Inactive)
REMARK    1  A    between atoms: C7_7  and  N1_8 
REMARK    2  A    between atoms: C9_11  and  N3_12 
REMARK    3  A    between atoms: C10_14  and  C11_15 
REMARK    4  A    between atoms: C12_16  and  C13_17 
REMARK    5  A    between atoms: C12_16  and  N5_26 
REMARK    6  A    between atoms: C13_17  and  C14_18 
ROOT
HETATM    1  C1  UNL     1      31.924   0.322  46.706  1.00  0.00     0.018 C 
HETATM    2  C2  UNL     1      32.484   1.402  46.804  1.00  0.00    -0.078 C 
HETATM    3  C3  UNL     1      33.154   2.663  46.914  1.00  0.00     0.019 A 
HETATM    4  C4  UNL     1      34.201   2.806  47.799  1.00  0.00     0.021 A 
HETATM    5  C5  UNL     1      34.838   4.022  47.899  1.00  0.00     0.004 A 
HETATM    6  C6  UNL     1      34.421   5.075  47.113  1.00  0.00     0.030 A 
HETATM    7  C7  UNL     1      33.384   5.010  46.205  1.00  0.00     0.039 A 
HETATM    8  C21 UNL     1      32.799   3.762  46.166  1.00  0.00     0.050 A 
ENDROOT
BRANCH   7   9
HETATM    9  N1  UNL     1      32.976   6.111  45.397  1.00  0.00    -0.313 N 
HETATM   10  C8  UNL     1      33.874   6.543  44.381  1.00  0.00     0.232 A 
HETATM   11  N2  UNL     1      33.512   7.549  43.627  1.00  0.00    -0.058 NA
HETATM   12  C9  UNL     1      32.232   8.076  43.951  1.00  0.00     0.718 A 
HETATM   13  N4  UNL     1      31.384   7.737  44.847  1.00  0.00    -0.075 NA
HETATM   14  C10 UNL     1      31.675   6.644  45.738  1.00  0.00     0.259 A 
BRANCH  12  15
HETATM   15  N3  UNL     1      31.767   9.187  43.157  1.00  0.00    -0.231 N 
HETATM   16  H6  UNL     1      32.185  10.062  43.560  1.00  0.00     0.174 HD
HETATM   17  H7  UNL     1      31.243   9.659  42.391  1.00  0.00     0.174 HD
ENDBRANCH  12  15
BRANCH  14  18
HETATM   18  C11 UNL     1      31.610   7.056  47.163  1.00  0.00     0.047 C 
HETATM   19  C12 UNL     1      30.748   6.590  48.039  1.00  0.00     0.009 C 
BRANCH  19  20
HETATM   20  C13 UNL     1      29.631   5.654  48.159  1.00  0.00     0.096 C 
BRANCH  20  21
HETATM   21  C14 UNL     1      28.291   6.264  48.056  1.00  0.00    -0.031 A 
HETATM   22  C15 UNL     1      28.156   7.516  47.446  1.00  0.00     0.011 A 
HETATM   23  C16 UNL     1      26.971   8.176  47.299  1.00  0.00     0.024 A 
HETATM   24  C17 UNL     1      25.809   7.603  47.772  1.00  0.00     0.035 A 
HETATM   25 CL1  UNL     1      24.272   8.418  47.603  1.00  0.00    -0.084 Cl
HETATM   26  C18 UNL     1      25.892   6.363  48.385  1.00  0.00     0.048 A 
HETATM   27  C19 UNL     1      27.116   5.741  48.506  1.00  0.00     0.042 A 
HETATM   28 CL2  UNL     1      27.142   4.196  49.276  1.00  0.00    -0.084 Cl
ENDBRANCH  20  21
ENDBRANCH  19  20
BRANCH  19  29
HETATM   29  N5  UNL     1      30.796   7.080  49.398  1.00  0.00    -0.397 N 
HETATM   30  C20 UNL     1      31.841   8.045  49.690  1.00  0.00     0.146 C 
HETATM   31  H15 UNL     1      30.224   6.888  50.250  1.00  0.00     0.158 HD
ENDBRANCH  19  29
ENDBRANCH  14  18
ENDBRANCH   7   9
TORSDOF 6
ENDMDL
MODEL 7
REMARK VINA RESULT:      -8.1      2.761      4.776
REMARK  6 active torsions:
REMARK  status: ('A' for Active; 'I' for Inactive)
REMARK    1  A    between atoms: C7_7  and  N1_8 
REMARK    2  A    between atoms: C9_11  and  N3_12 
REMARK    3  A    between atoms: C10_14  and  C11_15 
REMARK    4  A    between atoms: C12_16  and  C13_17 
REMARK    5  A    between atoms: C12_16  and  N5_26 
REMARK    6  A    between atoms: C13_17  and  C14_18 
ROOT
HETATM    1  C1  UNL     1      27.399   1.497  52.431  1.00  0.00     0.018 C 
HETATM    2  C2  UNL     1      26.224   1.168  52.459  1.00  0.00    -0.078 C 
HETATM    3  C3  UNL     1      24.844   0.786  52.507  1.00  0.00     0.019 A 
HETATM    4  C4  UNL     1      24.421  -0.135  53.441  1.00  0.00     0.021 A 
HETATM    5  C5  UNL     1      23.094  -0.496  53.478  1.00  0.00     0.004 A 
HETATM    6  C6  UNL     1      22.209   0.068  52.584  1.00  0.00     0.030 A 
HETATM    7  C7  UNL     1      22.556   0.995  51.623  1.00  0.00     0.039 A 
HETATM    8  C21 UNL     1      23.900   1.303  51.650  1.00  0.00     0.050 A 
ENDROOT
BRANCH   7   9
HETATM    9  N1  UNL     1      21.621   1.572  50.714  1.00  0.00    -0.313 N 
HETATM   10  C8  UNL     1      21.657   1.118  49.366  1.00  0.00     0.232 A 
HETATM   11  N2  UNL     1      20.802   1.633  48.520  1.00  0.00    -0.058 NA
HETATM   12  C9  UNL     1      19.939   2.604  49.098  1.00  0.00     0.718 A 
HETATM   13  N4  UNL     1      19.859   3.055  50.293  1.00  0.00    -0.075 NA
HETATM   14  C10 UNL     1      20.752   2.563  51.310  1.00  0.00     0.259 A 
BRANCH  12  15
HETATM   15  N3  UNL     1      18.968   3.213  48.222  1.00  0.00    -0.231 N 
HETATM   16  H6  UNL     1      18.132   3.469  48.803  1.00  0.00     0.174 HD
HETATM   17  H7  UNL     1      18.585   3.565  47.320  1.00  0.00     0.174 HD
ENDBRANCH  12  15
BRANCH  14  18
HETATM   18  C11 UNL     1      21.527   3.658  51.946  1.00  0.00     0.047 C 
HETATM   19  C12 UNL     1      22.154   4.610  51.291  1.00  0.00     0.009 C 
BRANCH  19  20
HETATM   20  C13 UNL     1      22.424   5.079  49.932  1.00  0.00     0.096 C 
BRANCH  20  21
HETATM   21  C14 UNL     1      23.853   5.156  49.572  1.00  0.00    -0.031 A 
HETATM   22  C15 UNL     1      24.631   3.994  49.609  1.00  0.00     0.011 A 
HETATM   23  C16 UNL     1      25.960   3.946  49.301  1.00  0.00     0.024 A 
HETATM   24  C17 UNL     1      26.613   5.102  48.926  1.00  0.00     0.035 A 
HETATM   25 CL1  UNL     1      28.314   5.082  48.525  1.00  0.00    -0.084 Cl
HETATM   26  C18 UNL     1      25.885   6.280  48.875  1.00  0.00     0.048 A 
HETATM   27  C19 UNL     1      24.544   6.268  49.196  1.00  0.00     0.042 A 
HETATM   28 CL2  UNL     1      23.700   7.772  49.104  1.00  0.00    -0.084 Cl
ENDBRANCH  20  21
ENDBRANCH  19  20
BRANCH  19  29
HETATM   29  N5  UNL     1      22.873   5.617  52.038  1.00  0.00    -0.397 N 
HETATM   30  C20 UNL     1      23.564   5.154  53.228  1.00  0.00     0.146 C 
HETATM   31  H15 UNL     1      23.012   6.643  51.908  1.00  0.00     0.158 HD
ENDBRANCH  19  29
ENDBRANCH  14  18
ENDBRANCH   7   9
TORSDOF 6
ENDMDL
MODEL 8
REMARK VINA RESULT:      -8.1      3.080      5.398
REMARK  6 active torsions:
REMARK  status: ('A' for Active; 'I' for Inactive)
REMARK    1  A    between atoms: C7_7  and  N1_8 
REMARK    2  A    between atoms: C9_11  and  N3_12 
REMARK    3  A    between atoms: C10_14  and  C11_15 
REMARK    4  A    between atoms: C12_16  and  C13_17 
REMARK    5  A    between atoms: C12_16  and  N5_26 
REMARK    6  A    between atoms: C13_17  and  C14_18 
ROOT
HETATM    1  C1  UNL     1      22.680  -1.287  54.967  1.00  0.00     0.018 C 
HETATM    2  C2  UNL     1      21.867  -0.902  54.143  1.00  0.00    -0.078 C 
HETATM    3  C3  UNL     1      20.906  -0.441  53.186  1.00  0.00     0.019 A 
HETATM    4  C4  UNL     1      19.563  -0.673  53.399  1.00  0.00     0.021 A 
HETATM    5  C5  UNL     1      18.647  -0.227  52.474  1.00  0.00     0.004 A 
HETATM    6  C6  UNL     1      19.085   0.444  51.352  1.00  0.00     0.030 A 
HETATM    7  C7  UNL     1      20.408   0.714  51.070  1.00  0.00     0.039 A 
HETATM    8  C21 UNL     1      21.261   0.236  52.042  1.00  0.00     0.050 A 
ENDROOT
BRANCH   7   9
HETATM    9  N1  UNL     1      20.836   1.418  49.906  1.00  0.00    -0.313 N 
HETATM   10  C8  UNL     1      21.482   0.663  48.887  1.00  0.00     0.232 A 
HETATM   11  N2  UNL     1      21.876   1.292  47.811  1.00  0.00    -0.058 NA
HETATM   12  C9  UNL     1      21.590   2.685  47.825  1.00  0.00     0.718 A 
HETATM   13  N4  UNL     1      21.020   3.419  48.705  1.00  0.00    -0.075 NA
HETATM   14  C10 UNL     1      20.547   2.835  49.933  1.00  0.00     0.259 A 
BRANCH  12  15
HETATM   15  N3  UNL     1      21.995   3.443  46.667  1.00  0.00    -0.231 N 
HETATM   16  H6  UNL     1      22.591   4.240  47.001  1.00  0.00     0.174 HD
HETATM   17  H7  UNL     1      22.053   3.682  45.655  1.00  0.00     0.174 HD
ENDBRANCH  12  15
BRANCH  14  18
HETATM   18  C11 UNL     1      21.140   3.492  51.125  1.00  0.00     0.047 C 
HETATM   19  C12 UNL     1      22.416   3.780  51.265  1.00  0.00     0.009 C 
BRANCH  19  20
HETATM   20  C13 UNL     1      23.696   3.677  50.565  1.00  0.00     0.096 C 
BRANCH  20  21
HETATM   21  C14 UNL     1      24.622   2.662  51.103  1.00  0.00    -0.031 A 
HETATM   22  C15 UNL     1      24.126   1.667  51.953  1.00  0.00     0.011 A 
HETATM   23  C16 UNL     1      24.888   0.683  52.512  1.00  0.00     0.024 A 
HETATM   24  C17 UNL     1      26.241   0.635  52.245  1.00  0.00     0.035 A 
HETATM   25 CL1  UNL     1      27.249  -0.611  52.943  1.00  0.00    -0.084 Cl
HETATM   26  C18 UNL     1      26.779   1.600  51.409  1.00  0.00     0.048 A 
HETATM   27  C19 UNL     1      25.961   2.571  50.871  1.00  0.00     0.042 A 
HETATM   28 CL2  UNL     1      26.700   3.736  49.833  1.00  0.00    -0.084 Cl
ENDBRANCH  20  21
ENDBRANCH  19  20
BRANCH  19  29
HETATM   29  N5  UNL     1      22.860   4.421  52.481  1.00  0.00    -0.397 N 
HETATM   30  C20 UNL     1      23.498   5.716  52.321  1.00  0.00     0.146 C 
HETATM   31  H15 UNL     1      22.823   4.151  53.488  1.00  0.00     0.158 HD
ENDBRANCH  19  29
ENDBRANCH  14  18
ENDBRANCH   7   9
TORSDOF 6
ENDMDL
MODEL 9
REMARK VINA RESULT:      -8.0      2.885      5.358
REMARK  6 active torsions:
REMARK  status: ('A' for Active; 'I' for Inactive)
REMARK    1  A    between atoms: C7_7  and  N1_8 
REMARK    2  A    between atoms: C9_11  and  N3_12 
REMARK    3  A    between atoms: C10_14  and  C11_15 
REMARK    4  A    between atoms: C12_16  and  C13_17 
REMARK    5  A    between atoms: C12_16  and  N5_26 
REMARK    6  A    between atoms: C13_17  and  C14_18 
ROOT
HETATM    1  C1  UNL     1      24.915   4.439  49.477  1.00  0.00     0.018 C 
HETATM    2  C2  UNL     1      24.876   3.479  50.229  1.00  0.00    -0.078 C 
HETATM    3  C3  UNL     1      24.836   2.360  51.123  1.00  0.00     0.019 A 
HETATM    4  C4  UNL     1      26.014   1.814  51.587  1.00  0.00     0.021 A 
HETATM    5  C5  UNL     1      25.966   0.738  52.445  1.00  0.00     0.004 A 
HETATM    6  C6  UNL     1      24.744   0.226  52.826  1.00  0.00     0.030 A 
HETATM    7  C7  UNL     1      23.525   0.717  52.406  1.00  0.00     0.039 A 
HETATM    8  C21 UNL     1      23.659   1.791  51.551  1.00  0.00     0.050 A 
ENDROOT
BRANCH   7   9
HETATM    9  N1  UNL     1      22.273   0.175  52.821  1.00  0.00    -0.313 N 
HETATM   10  C8  UNL     1      22.305  -0.904  53.747  1.00  0.00     0.232 A 
HETATM   11  N2  UNL     1      21.164  -1.409  54.142  1.00  0.00    -0.058 NA
HETATM   12  C9  UNL     1      20.028  -0.780  53.563  1.00  0.00     0.718 A 
HETATM   13  N4  UNL     1      19.934   0.185  52.728  1.00  0.00    -0.075 NA
HETATM   14  C10 UNL     1      21.124   0.818  52.221  1.00  0.00     0.259 A 
BRANCH  12  15
HETATM   15  N3  UNL     1      18.736  -1.285  53.956  1.00  0.00    -0.231 N 
HETATM   16  H6  UNL     1      18.707  -1.305  55.004  1.00  0.00     0.174 HD
HETATM   17  H7  UNL     1      17.774  -1.658  53.814  1.00  0.00     0.174 HD
ENDBRANCH  12  15
BRANCH  14  18
HETATM   18  C11 UNL     1      21.187   0.776  50.738  1.00  0.00     0.047 C 
HETATM   19  C12 UNL     1      20.638   1.665  49.940  1.00  0.00     0.009 C 
BRANCH  19  20
HETATM   20  C13 UNL     1      19.848   2.896  49.968  1.00  0.00     0.096 C 
BRANCH  20  21
HETATM   21  C14 UNL     1      20.635   4.139  50.077  1.00  0.00    -0.031 A 
HETATM   22  C15 UNL     1      21.220   4.473  51.303  1.00  0.00     0.011 A 
HETATM   23  C16 UNL     1      21.963   5.596  51.521  1.00  0.00     0.024 A 
HETATM   24  C17 UNL     1      22.171   6.486  50.487  1.00  0.00     0.035 A 
HETATM   25 CL1  UNL     1      23.117   7.936  50.728  1.00  0.00    -0.084 Cl
HETATM   26  C18 UNL     1      21.611   6.199  49.252  1.00  0.00     0.048 A 
HETATM   27  C19 UNL     1      20.870   5.048  49.090  1.00  0.00     0.042 A 
HETATM   28 CL2  UNL     1      20.208   4.754  47.522  1.00  0.00    -0.084 Cl
ENDBRANCH  20  21
ENDBRANCH  19  20
BRANCH  19  29
HETATM   29  N5  UNL     1      20.776   1.503  48.511  1.00  0.00    -0.397 N 
HETATM   30  C20 UNL     1      22.124   1.621  47.984  1.00  0.00     0.146 C 
HETATM   31  H15 UNL     1      20.096   1.314  47.742  1.00  0.00     0.158 HD
ENDBRANCH  19  29
ENDBRANCH  14  18
ENDBRANCH   7   9
TORSDOF 6
ENDMDL
