MODEL 1
REMARK VINA RESULT:      -9.9      0.000      0.000
REMARK  7 active torsions:
REMARK  status: ('A' for Active; 'I' for Inactive)
REMARK    1  A    between atoms: C1_2  and  C2_3 
REMARK       I    between atoms: C1_2  and  N2_13 
REMARK    2  A    between atoms: C3_4  and  C4_5 
REMARK    3  A    between atoms: C4_5  and  C5_6 
REMARK    4  A    between atoms: C5_6  and  N1_7 
REMARK    5  A    between atoms: N2_13  and  C11_14 
REMARK    6  A    between atoms: C14_17  and  N3_18 
REMARK    7  A    between atoms: N3_18  and  C15_19 
ROOT
HETATM    1  C11 UNL     1      25.997   3.784  49.708  1.00  0.00     0.131 A 
HETATM    2  C12 UNL     1      25.979   3.197  50.955  1.00  0.00     0.068 A 
HETATM    3  C13 UNL     1      24.858   2.627  51.482  1.00  0.00     0.044 A 
HETATM    4  C14 UNL     1      24.945   2.066  52.738  1.00  0.00     0.142 A 
HETATM    5  N4  UNL     1      23.810   1.518  53.211  1.00  0.00    -0.224 NA
HETATM    6  C22 UNL     1      22.664   1.533  52.469  1.00  0.00     0.236 A 
HETATM    7  N5  UNL     1      22.601   2.083  51.248  1.00  0.00    -0.240 NA
HETATM    8  C23 UNL     1      23.716   2.647  50.732  1.00  0.00     0.089 A 
HETATM    9  C24 UNL     1      23.697   3.226  49.479  1.00  0.00     0.151 A 
HETATM   10  N6  UNL     1      24.834   3.774  49.011  1.00  0.00    -0.241 NA
ENDROOT
BRANCH   1  11
HETATM   11  N2  UNL     1      27.184   4.369  49.192  1.00  0.00    -0.301 N 
HETATM   12  C1  UNL     1      27.589   5.562  48.526  1.00  0.00     0.302 C 
HETATM   13  O1  UNL     1      26.835   6.514  48.202  1.00  0.00    -0.258 OA
HETATM   14  H15 UNL     1      27.864   3.618  49.431  1.00  0.00     0.171 HD
BRANCH  12  15
HETATM   15  C2  UNL     1      28.987   5.664  48.208  1.00  0.00    -0.005 C 
HETATM   16  C3  UNL     1      30.163   5.769  47.932  1.00  0.00    -0.095 C 
BRANCH  16  17
HETATM   17  C4  UNL     1      31.572   5.914  47.593  1.00  0.00     0.124 C 
BRANCH  17  18
HETATM   18  C5  UNL     1      32.394   4.793  48.195  1.00  0.00     0.284 C 
BRANCH  18  19
HETATM   19  N1  UNL     1      33.237   4.148  47.230  1.00  0.00     0.089 N 
HETATM   20  C6  UNL     1      34.079   3.123  47.759  1.00  0.00     0.272 C 
HETATM   21  C7  UNL     1      33.257   1.954  48.242  1.00  0.00     0.030 C 
HETATM   22  C8  UNL     1      32.599   1.335  47.026  1.00  0.00     0.003 C 
HETATM   23  C9  UNL     1      31.742   2.371  46.377  1.00  0.00     0.030 C 
HETATM   24  C10 UNL     1      32.454   3.674  46.132  1.00  0.00     0.272 C 
ENDBRANCH  18  19
ENDBRANCH  17  18
ENDBRANCH  16  17
ENDBRANCH  12  15
ENDBRANCH   1  11
BRANCH   4  25
HETATM   25  N3  UNL     1      26.108   2.022  53.553  1.00  0.00    -0.340 N 
HETATM   26  H17 UNL     1      26.409   2.686  54.272  1.00  0.00     0.167 HD
BRANCH  25  27
HETATM   27  C15 UNL     1      27.047   0.958  53.437  1.00  0.00     0.033 C 
HETATM   28  C16 UNL     1      26.641  -0.252  53.091  1.00  0.00     0.032 C 
HETATM   29  C17 UNL     1      27.331  -1.530  52.887  1.00  0.00     0.040 C 
HETATM   30  C18 UNL     1      28.622  -1.641  53.150  1.00  0.00     0.097 C 
HETATM   31  F1  UNL     1      29.048  -2.922  52.886  1.00  0.00    -0.211 F 
HETATM   32  C19 UNL     1      29.758  -0.855  53.630  1.00  0.00     0.097 C 
HETATM   33  C20 UNL     1      29.523   0.580  53.797  1.00  0.00    -0.018 C 
HETATM   34  C21 UNL     1      28.429   1.316  53.720  1.00  0.00     0.026 C 
ENDBRANCH  25  27
ENDBRANCH   4  25
TORSDOF 7
ENDMDL
MODEL 2
REMARK VINA RESULT:      -9.2      3.297      4.192
REMARK  7 active torsions:
REMARK  status: ('A' for Active; 'I' for Inactive)
REMARK    1  A    between atoms: C1_2  and  C2_3 
REMARK       I    between atoms: C1_2  and  N2_13 
REMARK    2  A    between atoms: C3_4  and  C4_5 
REMARK    3  A    between atoms: C4_5  and  C5_6 
REMARK    4  A    between atoms: C5_6  and  N1_7 
REMARK    5  A    between atoms: N2_13  and  C11_14 
REMARK    6  A    between atoms: C14_17  and  N3_18 
REMARK    7  A    between atoms: N3_18  and  C15_19 
ROOT
HETATM    1  C11 UNL     1      24.069   2.952  50.217  1.00  0.00     0.131 A 
HETATM    2  C12 UNL     1      24.426   2.314  51.385  1.00  0.00     0.068 A 
HETATM    3  C13 UNL     1      23.669   1.326  51.942  1.00  0.00     0.044 A 
HETATM    4  C14 UNL     1      24.115   0.750  53.113  1.00  0.00     0.142 A 
HETATM    5  N4  UNL     1      23.330  -0.219  53.620  1.00  0.00    -0.224 NA
HETATM    6  C22 UNL     1      22.174  -0.584  52.993  1.00  0.00     0.236 A 
HETATM    7  N5  UNL     1      21.759  -0.012  51.853  1.00  0.00    -0.240 NA
HETATM    8  C23 UNL     1      22.515   0.966  51.306  1.00  0.00     0.089 A 
HETATM    9  C24 UNL     1      22.125   1.585  50.135  1.00  0.00     0.151 A 
HETATM   10  N6  UNL     1      22.912   2.553  49.632  1.00  0.00    -0.241 NA
ENDROOT
BRANCH   1  11
HETATM   11  N2  UNL     1      24.882   3.978  49.665  1.00  0.00    -0.301 N 
HETATM   12  C1  UNL     1      26.264   4.280  49.506  1.00  0.00     0.302 C 
HETATM   13  O1  UNL     1      27.222   3.565  49.896  1.00  0.00    -0.258 OA
HETATM   14  H15 UNL     1      24.137   4.618  49.317  1.00  0.00     0.171 HD
BRANCH  12  15
HETATM   15  C2  UNL     1      26.568   5.517  48.838  1.00  0.00    -0.005 C 
HETATM   16  C3  UNL     1      26.842   6.560  48.285  1.00  0.00    -0.095 C 
BRANCH  16  17
HETATM   17  C4  UNL     1      27.189   7.814  47.631  1.00  0.00     0.124 C 
BRANCH  17  18
HETATM   18  C5  UNL     1      28.685   8.052  47.671  1.00  0.00     0.284 C 
BRANCH  18  19
HETATM   19  N1  UNL     1      29.152   8.404  48.981  1.00  0.00     0.089 N 
HETATM   20  C6  UNL     1      30.572   8.418  49.128  1.00  0.00     0.272 C 
HETATM   21  C7  UNL     1      31.182   9.525  48.304  1.00  0.00     0.030 C 
HETATM   22  C8  UNL     1      30.711  10.837  48.898  1.00  0.00     0.003 C 
HETATM   23  C9  UNL     1      29.219  10.872  48.836  1.00  0.00     0.030 C 
HETATM   24  C10 UNL     1      28.565   9.638  49.398  1.00  0.00     0.272 C 
ENDBRANCH  18  19
ENDBRANCH  17  18
ENDBRANCH  16  17
ENDBRANCH  12  15
ENDBRANCH   1  11
BRANCH   4  25
HETATM   25  N3  UNL     1      25.307   1.089  53.808  1.00  0.00    -0.340 N 
HETATM   26  H17 UNL     1      25.485   1.898  54.410  1.00  0.00     0.167 HD
BRANCH  25  27
HETATM   27  C15 UNL     1      26.466   0.267  53.726  1.00  0.00     0.033 C 
HETATM   28  C16 UNL     1      27.593   0.648  54.305  1.00  0.00     0.032 C 
HETATM   29  C17 UNL     1      28.928   0.052  54.407  1.00  0.00     0.040 C 
HETATM   30  C18 UNL     1      29.212  -1.065  53.760  1.00  0.00     0.097 C 
HETATM   31  F1  UNL     1      30.514  -1.433  54.003  1.00  0.00    -0.211 F 
HETATM   32  C19 UNL     1      28.602  -2.049  52.865  1.00  0.00     0.097 C 
HETATM   33  C20 UNL     1      27.164  -1.907  52.636  1.00  0.00    -0.018 C 
HETATM   34  C21 UNL     1      26.298  -0.972  52.983  1.00  0.00     0.026 C 
ENDBRANCH  25  27
ENDBRANCH   4  25
TORSDOF 7
ENDMDL
MODEL 3
REMARK VINA RESULT:      -9.0      2.124      3.087
REMARK  7 active torsions:
REMARK  status: ('A' for Active; 'I' for Inactive)
REMARK    1  A    between atoms: C1_2  and  C2_3 
REMARK       I    between atoms: C1_2  and  N2_13 
REMARK    2  A    between atoms: C3_4  and  C4_5 
REMARK    3  A    between atoms: C4_5  and  C5_6 
REMARK    4  A    between atoms: C5_6  and  N1_7 
REMARK    5  A    between atoms: N2_13  and  C11_14 
REMARK    6  A    between atoms: C14_17  and  N3_18 
REMARK    7  A    between atoms: N3_18  and  C15_19 
ROOT
HETATM    1  C11 UNL     1      25.705   6.067  49.821  1.00  0.00     0.131 A 
HETATM    2  C12 UNL     1      25.113   4.884  50.209  1.00  0.00     0.068 A 
HETATM    3  C13 UNL     1      23.878   4.835  50.783  1.00  0.00     0.044 A 
HETATM    4  C14 UNL     1      23.374   3.601  51.135  1.00  0.00     0.142 A 
HETATM    5  N4  UNL     1      22.151   3.610  51.699  1.00  0.00    -0.224 NA
HETATM    6  C22 UNL     1      21.480   4.782  51.895  1.00  0.00     0.236 A 
HETATM    7  N5  UNL     1      21.987   5.973  51.544  1.00  0.00    -0.240 NA
HETATM    8  C23 UNL     1      23.212   6.014  50.975  1.00  0.00     0.089 A 
HETATM    9  C24 UNL     1      23.774   7.217  50.600  1.00  0.00     0.151 A 
HETATM   10  N6  UNL     1      24.997   7.204  50.038  1.00  0.00    -0.241 NA
ENDROOT
BRANCH   1  11
HETATM   11  N2  UNL     1      26.994   6.080  49.227  1.00  0.00    -0.301 N 
HETATM   12  C1  UNL     1      27.937   5.156  48.692  1.00  0.00     0.302 C 
HETATM   13  O1  UNL     1      27.787   3.909  48.626  1.00  0.00    -0.258 OA
HETATM   14  H15 UNL     1      27.183   7.104  49.249  1.00  0.00     0.171 HD
BRANCH  12  15
HETATM   15  C2  UNL     1      29.159   5.720  48.186  1.00  0.00    -0.005 C 
HETATM   16  C3  UNL     1      30.198   6.178  47.761  1.00  0.00    -0.095 C 
BRANCH  16  17
HETATM   17  C4  UNL     1      31.455   6.709  47.251  1.00  0.00     0.124 C 
BRANCH  17  18
HETATM   18  C5  UNL     1      32.600   5.758  47.534  1.00  0.00     0.284 C 
BRANCH  18  19
HETATM   19  N1  UNL     1      32.432   4.486  46.892  1.00  0.00     0.089 N 
HETATM   20  C6  UNL     1      32.900   4.428  45.544  1.00  0.00     0.272 C 
HETATM   21  C7  UNL     1      34.401   4.573  45.494  1.00  0.00     0.030 C 
HETATM   22  C8  UNL     1      34.992   3.353  46.170  1.00  0.00     0.003 C 
HETATM   23  C9  UNL     1      34.497   3.309  47.578  1.00  0.00     0.030 C 
HETATM   24  C10 UNL     1      33.002   3.450  47.695  1.00  0.00     0.272 C 
ENDBRANCH  18  19
ENDBRANCH  17  18
ENDBRANCH  16  17
ENDBRANCH  12  15
ENDBRANCH   1  11
BRANCH   4  25
HETATM   25  N3  UNL     1      24.027   2.352  50.955  1.00  0.00    -0.340 N 
HETATM   26  H17 UNL     1      24.168   1.826  50.087  1.00  0.00     0.167 HD
BRANCH  25  27
HETATM   27  C15 UNL     1      24.596   1.653  52.057  1.00  0.00     0.033 C 
HETATM   28  C16 UNL     1      25.787   1.997  52.518  1.00  0.00     0.032 C 
HETATM   29  C17 UNL     1      26.633   1.496  53.606  1.00  0.00     0.040 C 
HETATM   30  C18 UNL     1      26.270   0.428  54.296  1.00  0.00     0.097 C 
HETATM   31  F1  UNL     1      27.211   0.147  55.258  1.00  0.00    -0.211 F 
HETATM   32  C19 UNL     1      25.197  -0.562  54.380  1.00  0.00     0.097 C 
HETATM   33  C20 UNL     1      24.025  -0.315  53.540  1.00  0.00    -0.018 C 
HETATM   34  C21 UNL     1      23.779   0.579  52.600  1.00  0.00     0.026 C 
ENDBRANCH  25  27
ENDBRANCH   4  25
TORSDOF 7
ENDMDL
MODEL 4
REMARK VINA RESULT:      -8.9      1.635      2.355
REMARK  7 active torsions:
REMARK  status: ('A' for Active; 'I' for Inactive)
REMARK    1  A    between atoms: C1_2  and  C2_3 
REMARK       I    between atoms: C1_2  and  N2_13 
REMARK    2  A    between atoms: C3_4  and  C4_5 
REMARK    3  A    between atoms: C4_5  and  C5_6 
REMARK    4  A    between atoms: C5_6  and  N1_7 
REMARK    5  A    between atoms: N2_13  and  C11_14 
REMARK    6  A    between atoms: C14_17  and  N3_18 
REMARK    7  A    between atoms: N3_18  and  C15_19 
ROOT
HETATM    1  C11 UNL     1      24.567   3.251  49.891  1.00  0.00     0.131 A 
HETATM    2  C12 UNL     1      24.742   2.620  51.103  1.00  0.00     0.068 A 
HETATM    3  C13 UNL     1      23.833   1.740  51.611  1.00  0.00     0.044 A 
HETATM    4  C14 UNL     1      24.103   1.162  52.833  1.00  0.00     0.142 A 
HETATM    5  N4  UNL     1      23.172   0.302  53.288  1.00  0.00    -0.224 NA
HETATM    6  C22 UNL     1      22.045   0.042  52.563  1.00  0.00     0.236 A 
HETATM    7  N5  UNL     1      21.802   0.615  51.375  1.00  0.00    -0.240 NA
HETATM    8  C23 UNL     1      22.708   1.485  50.878  1.00  0.00     0.089 A 
HETATM    9  C24 UNL     1      22.499   2.100  49.660  1.00  0.00     0.151 A 
HETATM   10  N6  UNL     1      23.431   2.959  49.209  1.00  0.00    -0.241 NA
ENDROOT
BRANCH   1  11
HETATM   11  N2  UNL     1      25.536   4.163  49.393  1.00  0.00    -0.301 N 
HETATM   12  C1  UNL     1      25.760   5.568  49.346  1.00  0.00     0.302 C 
HETATM   13  O1  UNL     1      25.003   6.449  49.826  1.00  0.00    -0.258 OA
HETATM   14  H15 UNL     1      26.207   3.486  48.973  1.00  0.00     0.171 HD
BRANCH  12  15
HETATM   15  C2  UNL     1      26.965   5.994  48.687  1.00  0.00    -0.005 C 
HETATM   16  C3  UNL     1      27.991   6.354  48.150  1.00  0.00    -0.095 C 
BRANCH  16  17
HETATM   17  C4  UNL     1      29.233   6.788  47.524  1.00  0.00     0.124 C 
BRANCH  17  18
HETATM   18  C5  UNL     1      30.435   6.267  48.284  1.00  0.00     0.284 C 
BRANCH  18  19
HETATM   19  N1  UNL     1      31.421   5.682  47.423  1.00  0.00     0.089 N 
HETATM   20  C6  UNL     1      32.036   6.591  46.509  1.00  0.00     0.272 C 
HETATM   21  C7  UNL     1      32.873   7.606  47.248  1.00  0.00     0.030 C 
HETATM   22  C8  UNL     1      34.022   6.856  47.891  1.00  0.00     0.003 C 
HETATM   23  C9  UNL     1      33.455   5.836  48.823  1.00  0.00     0.030 C 
HETATM   24  C10 UNL     1      32.392   4.973  48.197  1.00  0.00     0.272 C 
ENDBRANCH  18  19
ENDBRANCH  17  18
ENDBRANCH  16  17
ENDBRANCH  12  15
ENDBRANCH   1  11
BRANCH   4  25
HETATM   25  N3  UNL     1      25.256   1.395  53.629  1.00  0.00    -0.340 N 
HETATM   26  H17 UNL     1      25.409   2.125  54.332  1.00  0.00     0.167 HD
BRANCH  25  27
HETATM   27  C15 UNL     1      26.408   0.566  53.517  1.00  0.00     0.033 C 
HETATM   28  C16 UNL     1      26.298  -0.662  53.037  1.00  0.00     0.032 C 
HETATM   29  C17 UNL     1      27.259  -1.743  52.797  1.00  0.00     0.040 C 
HETATM   30  C18 UNL     1      28.521  -1.609  53.171  1.00  0.00     0.097 C 
HETATM   31  F1  UNL     1      29.231  -2.741  52.846  1.00  0.00    -0.211 F 
HETATM   32  C19 UNL     1      29.422  -0.656  53.818  1.00  0.00     0.097 C 
HETATM   33  C20 UNL     1      28.873   0.675  54.077  1.00  0.00    -0.018 C 
HETATM   34  C21 UNL     1      27.655   1.172  53.957  1.00  0.00     0.026 C 
ENDBRANCH  25  27
ENDBRANCH   4  25
TORSDOF 7
ENDMDL
MODEL 5
REMARK VINA RESULT:      -8.7      3.587      9.434
REMARK  7 active torsions:
REMARK  status: ('A' for Active; 'I' for Inactive)
REMARK    1  A    between atoms: C1_2  and  C2_3 
REMARK       I    between atoms: C1_2  and  N2_13 
REMARK    2  A    between atoms: C3_4  and  C4_5 
REMARK    3  A    between atoms: C4_5  and  C5_6 
REMARK    4  A    between atoms: C5_6  and  N1_7 
REMARK    5  A    between atoms: N2_13  and  C11_14 
REMARK    6  A    between atoms: C14_17  and  N3_18 
REMARK    7  A    between atoms: N3_18  and  C15_19 
ROOT
HETATM    1  C11 UNL     1      29.432   8.161  48.596  1.00  0.00     0.131 A 
HETATM    2  C12 UNL     1      30.547   8.150  47.785  1.00  0.00     0.068 A 
HETATM    3  C13 UNL     1      31.310   9.260  47.574  1.00  0.00     0.044 A 
HETATM    4  C14 UNL     1      32.406   9.144  46.744  1.00  0.00     0.142 A 
HETATM    5  N4  UNL     1      33.124  10.269  46.569  1.00  0.00    -0.224 NA
HETATM    6  C22 UNL     1      32.766  11.432  47.187  1.00  0.00     0.236 A 
HETATM    7  N5  UNL     1      31.696  11.523  47.991  1.00  0.00    -0.240 NA
HETATM    8  C23 UNL     1      30.944  10.419  48.197  1.00  0.00     0.089 A 
HETATM    9  C24 UNL     1      29.833  10.467  49.015  1.00  0.00     0.151 A 
HETATM   10  N6  UNL     1      29.117   9.341  49.187  1.00  0.00    -0.241 NA
ENDROOT
BRANCH   1  11
HETATM   11  N2  UNL     1      28.659   6.986  48.794  1.00  0.00    -0.301 N 
HETATM   12  C1  UNL     1      27.370   6.482  48.457  1.00  0.00     0.302 C 
HETATM   13  O1  UNL     1      26.494   7.092  47.793  1.00  0.00    -0.258 OA
HETATM   14  H15 UNL     1      29.339   6.425  49.348  1.00  0.00     0.171 HD
BRANCH  12  15
HETATM   15  C2  UNL     1      27.067   5.157  48.928  1.00  0.00    -0.005 C 
HETATM   16  C3  UNL     1      26.792   4.043  49.317  1.00  0.00    -0.095 C 
BRANCH  16  17
HETATM   17  C4  UNL     1      26.441   2.707  49.781  1.00  0.00     0.124 C 
BRANCH  17  18
HETATM   18  C5  UNL     1      25.383   2.768  50.863  1.00  0.00     0.284 C 
BRANCH  18  19
HETATM   19  N1  UNL     1      25.920   2.539  52.173  1.00  0.00     0.089 N 
HETATM   20  C6  UNL     1      24.946   2.265  53.181  1.00  0.00     0.272 C 
HETATM   21  C7  UNL     1      24.265   0.945  52.920  1.00  0.00     0.030 C 
HETATM   22  C8  UNL     1      25.311  -0.139  53.079  1.00  0.00     0.003 C 
HETATM   23  C9  UNL     1      26.403   0.114  52.091  1.00  0.00     0.030 C 
HETATM   24  C10 UNL     1      26.926   1.525  52.121  1.00  0.00     0.272 C 
ENDBRANCH  18  19
ENDBRANCH  17  18
ENDBRANCH  16  17
ENDBRANCH  12  15
ENDBRANCH   1  11
BRANCH   4  25
HETATM   25  N3  UNL     1      32.825   7.962  46.077  1.00  0.00    -0.340 N 
HETATM   26  H17 UNL     1      32.699   7.706  45.094  1.00  0.00     0.167 HD
BRANCH  25  27
HETATM   27  C15 UNL     1      33.521   6.932  46.772  1.00  0.00     0.033 C 
HETATM   28  C16 UNL     1      33.262   5.662  46.509  1.00  0.00     0.032 C 
HETATM   29  C17 UNL     1      33.786   4.395  47.030  1.00  0.00     0.040 C 
HETATM   30  C18 UNL     1      34.648   4.391  48.033  1.00  0.00     0.097 C 
HETATM   31  F1  UNL     1      34.997   3.099  48.349  1.00  0.00    -0.211 F 
HETATM   32  C19 UNL     1      35.361   5.305  48.925  1.00  0.00     0.097 C 
HETATM   33  C20 UNL     1      35.240   6.731  48.618  1.00  0.00    -0.018 C 
HETATM   34  C21 UNL     1      34.497   7.391  47.748  1.00  0.00     0.026 C 
ENDBRANCH  25  27
ENDBRANCH   4  25
TORSDOF 7
ENDMDL
MODEL 6
REMARK VINA RESULT:      -8.6      2.816      8.039
REMARK  7 active torsions:
REMARK  status: ('A' for Active; 'I' for Inactive)
REMARK    1  A    between atoms: C1_2  and  C2_3 
REMARK       I    between atoms: C1_2  and  N2_13 
REMARK    2  A    between atoms: C3_4  and  C4_5 
REMARK    3  A    between atoms: C4_5  and  C5_6 
REMARK    4  A    between atoms: C5_6  and  N1_7 
REMARK    5  A    between atoms: N2_13  and  C11_14 
REMARK    6  A    between atoms: C14_17  and  N3_18 
REMARK    7  A    between atoms: N3_18  and  C15_19 
ROOT
HETATM    1  C11 UNL     1      26.488   5.903  48.671  1.00  0.00     0.131 A 
HETATM    2  C12 UNL     1      27.861   6.008  48.720  1.00  0.00     0.068 A 
HETATM    3  C13 UNL     1      28.547   6.985  48.061  1.00  0.00     0.044 A 
HETATM    4  C14 UNL     1      29.921   7.003  48.175  1.00  0.00     0.142 A 
HETATM    5  N4  UNL     1      30.548   7.987  47.503  1.00  0.00    -0.224 NA
HETATM    6  C22 UNL     1      29.840   8.893  46.767  1.00  0.00     0.236 A 
HETATM    7  N5  UNL     1      28.503   8.858  46.670  1.00  0.00    -0.240 NA
HETATM    8  C23 UNL     1      27.830   7.888  47.327  1.00  0.00     0.089 A 
HETATM    9  C24 UNL     1      26.454   7.813  47.253  1.00  0.00     0.151 A 
HETATM   10  N6  UNL     1      25.831   6.827  47.926  1.00  0.00    -0.241 NA
ENDROOT
BRANCH   1  11
HETATM   11  N2  UNL     1      25.807   4.872  49.371  1.00  0.00    -0.301 N 
HETATM   12  C1  UNL     1      24.543   4.216  49.348  1.00  0.00     0.302 C 
HETATM   13  O1  UNL     1      23.599   4.467  48.556  1.00  0.00    -0.258 OA
HETATM   14  H15 UNL     1      26.546   4.614  50.057  1.00  0.00     0.171 HD
BRANCH  12  15
HETATM   15  C2  UNL     1      24.351   3.180  50.327  1.00  0.00    -0.005 C 
HETATM   16  C3  UNL     1      24.201   2.317  51.165  1.00  0.00    -0.095 C 
BRANCH  16  17
HETATM   17  C4  UNL     1      24.033   1.291  52.185  1.00  0.00     0.124 C 
BRANCH  17  18
HETATM   18  C5  UNL     1      25.267   1.186  53.058  1.00  0.00     0.284 C 
BRANCH  18  19
HETATM   19  N1  UNL     1      26.476   1.081  52.293  1.00  0.00     0.089 N 
HETATM   20  C6  UNL     1      27.633   1.634  52.921  1.00  0.00     0.272 C 
HETATM   21  C7  UNL     1      28.005   0.839  54.148  1.00  0.00     0.030 C 
HETATM   22  C8  UNL     1      28.431  -0.538  53.678  1.00  0.00     0.003 C 
HETATM   23  C9  UNL     1      27.285  -1.162  52.953  1.00  0.00     0.030 C 
HETATM   24  C10 UNL     1      26.688  -0.274  51.893  1.00  0.00     0.272 C 
ENDBRANCH  18  19
ENDBRANCH  17  18
ENDBRANCH  16  17
ENDBRANCH  12  15
ENDBRANCH   1  11
BRANCH   4  25
HETATM   25  N3  UNL     1      30.707   6.088  48.926  1.00  0.00    -0.340 N 
HETATM   26  H17 UNL     1      30.601   5.813  49.907  1.00  0.00     0.167 HD
BRANCH  25  27
HETATM   27  C15 UNL     1      31.810   5.410  48.336  1.00  0.00     0.033 C 
HETATM   28  C16 UNL     1      31.604   4.462  47.437  1.00  0.00     0.032 C 
HETATM   29  C17 UNL     1      32.495   3.594  46.660  1.00  0.00     0.040 C 
HETATM   30  C18 UNL     1      33.800   3.617  46.872  1.00  0.00     0.097 C 
HETATM   31  F1  UNL     1      34.429   2.727  46.034  1.00  0.00    -0.211 F 
HETATM   32  C19 UNL     1      34.807   4.275  47.703  1.00  0.00     0.097 C 
HETATM   33  C20 UNL     1      34.332   5.380  48.537  1.00  0.00    -0.018 C 
HETATM   34  C21 UNL     1      33.122   5.841  48.795  1.00  0.00     0.026 C 
ENDBRANCH  25  27
ENDBRANCH   4  25
TORSDOF 7
ENDMDL
MODEL 7
REMARK VINA RESULT:      -8.5      3.161      5.636
REMARK  7 active torsions:
REMARK  status: ('A' for Active; 'I' for Inactive)
REMARK    1  A    between atoms: C1_2  and  C2_3 
REMARK       I    between atoms: C1_2  and  N2_13 
REMARK    2  A    between atoms: C3_4  and  C4_5 
REMARK    3  A    between atoms: C4_5  and  C5_6 
REMARK    4  A    between atoms: C5_6  and  N1_7 
REMARK    5  A    between atoms: N2_13  and  C11_14 
REMARK    6  A    between atoms: C14_17  and  N3_18 
REMARK    7  A    between atoms: N3_18  and  C15_19 
ROOT
HETATM    1  C11 UNL     1      26.871   2.387  51.874  1.00  0.00     0.131 A 
HETATM    2  C12 UNL     1      25.637   1.786  52.012  1.00  0.00     0.068 A 
HETATM    3  C13 UNL     1      25.373   0.868  52.984  1.00  0.00     0.044 A 
HETATM    4  C14 UNL     1      24.106   0.326  53.036  1.00  0.00     0.142 A 
HETATM    5  N4  UNL     1      23.899  -0.576  54.014  1.00  0.00    -0.224 NA
HETATM    6  C22 UNL     1      24.898  -0.910  54.882  1.00  0.00     0.236 A 
HETATM    7  N5  UNL     1      26.124  -0.370  54.814  1.00  0.00    -0.240 NA
HETATM    8  C23 UNL     1      26.379   0.540  53.848  1.00  0.00     0.089 A 
HETATM    9  C24 UNL     1      27.627   1.120  53.740  1.00  0.00     0.151 A 
HETATM   10  N6  UNL     1      27.830   2.021  52.761  1.00  0.00    -0.241 NA
ENDROOT
BRANCH   1  11
HETATM   11  N2  UNL     1      27.111   3.339  50.849  1.00  0.00    -0.301 N 
HETATM   12  C1  UNL     1      26.463   3.850  49.688  1.00  0.00     0.302 C 
HETATM   13  O1  UNL     1      25.337   3.492  49.258  1.00  0.00    -0.258 OA
HETATM   14  H15 UNL     1      28.047   3.682  51.150  1.00  0.00     0.171 HD
BRANCH  12  15
HETATM   15  C2  UNL     1      27.178   4.864  48.960  1.00  0.00    -0.005 C 
HETATM   16  C3  UNL     1      27.763   5.730  48.347  1.00  0.00    -0.095 C 
BRANCH  16  17
HETATM   17  C4  UNL     1      28.448   6.782  47.608  1.00  0.00     0.124 C 
BRANCH  17  18
HETATM   18  C5  UNL     1      29.949   6.577  47.639  1.00  0.00     0.284 C 
BRANCH  18  19
HETATM   19  N1  UNL     1      30.515   6.840  48.931  1.00  0.00     0.089 N 
HETATM   20  C6  UNL     1      31.589   5.975  49.303  1.00  0.00     0.272 C 
HETATM   21  C7  UNL     1      32.789   6.204  48.417  1.00  0.00     0.030 C 
HETATM   22  C8  UNL     1      33.294   7.604  48.700  1.00  0.00     0.003 C 
HETATM   23  C9  UNL     1      32.198   8.571  48.391  1.00  0.00     0.030 C 
HETATM   24  C10 UNL     1      30.884   8.217  49.036  1.00  0.00     0.272 C 
ENDBRANCH  18  19
ENDBRANCH  17  18
ENDBRANCH  16  17
ENDBRANCH  12  15
ENDBRANCH   1  11
BRANCH   4  25
HETATM   25  N3  UNL     1      23.030   0.636  52.162  1.00  0.00    -0.340 N 
HETATM   26  H17 UNL     1      23.053   1.165  51.285  1.00  0.00     0.167 HD
BRANCH  25  27
HETATM   27  C15 UNL     1      21.704   0.203  52.445  1.00  0.00     0.033 C 
HETATM   28  C16 UNL     1      21.484  -0.680  53.405  1.00  0.00     0.032 C 
HETATM   29  C17 UNL     1      20.273  -1.316  53.935  1.00  0.00     0.040 C 
HETATM   30  C18 UNL     1      19.101  -1.099  53.364  1.00  0.00     0.097 C 
HETATM   31  F1  UNL     1      18.118  -1.795  54.028  1.00  0.00    -0.211 F 
HETATM   32  C19 UNL     1      18.493  -0.363  52.256  1.00  0.00     0.097 C 
HETATM   33  C20 UNL     1      19.368   0.569  51.544  1.00  0.00    -0.018 C 
HETATM   34  C21 UNL     1      20.666   0.800  51.618  1.00  0.00     0.026 C 
ENDBRANCH  25  27
ENDBRANCH   4  25
TORSDOF 7
ENDMDL
MODEL 8
REMARK VINA RESULT:      -8.4      3.277      5.040
REMARK  7 active torsions:
REMARK  status: ('A' for Active; 'I' for Inactive)
REMARK    1  A    between atoms: C1_2  and  C2_3 
REMARK       I    between atoms: C1_2  and  N2_13 
REMARK    2  A    between atoms: C3_4  and  C4_5 
REMARK    3  A    between atoms: C4_5  and  C5_6 
REMARK    4  A    between atoms: C5_6  and  N1_7 
REMARK    5  A    between atoms: N2_13  and  C11_14 
REMARK    6  A    between atoms: C14_17  and  N3_18 
REMARK    7  A    between atoms: N3_18  and  C15_19 
ROOT
HETATM    1  C11 UNL     1      24.920   4.470  49.463  1.00  0.00     0.131 A 
HETATM    2  C12 UNL     1      25.147   3.824  50.660  1.00  0.00     0.068 A 
HETATM    3  C13 UNL     1      24.252   2.952  51.204  1.00  0.00     0.044 A 
HETATM    4  C14 UNL     1      24.574   2.358  52.406  1.00  0.00     0.142 A 
HETATM    5  N4  UNL     1      23.654   1.506  52.899  1.00  0.00    -0.224 NA
HETATM    6  C22 UNL     1      22.490   1.268  52.229  1.00  0.00     0.236 A 
HETATM    7  N5  UNL     1      22.196   1.856  51.059  1.00  0.00    -0.240 NA
HETATM    8  C23 UNL     1      23.089   2.719  50.525  1.00  0.00     0.089 A 
HETATM    9  C24 UNL     1      22.827   3.349  49.325  1.00  0.00     0.151 A 
HETATM   10  N6  UNL     1      23.748   4.199  48.836  1.00  0.00    -0.241 NA
ENDROOT
BRANCH   1  11
HETATM   11  N2  UNL     1      25.875   5.373  48.926  1.00  0.00    -0.301 N 
HETATM   12  C1  UNL     1      27.253   5.385  48.565  1.00  0.00     0.302 C 
HETATM   13  O1  UNL     1      28.048   4.417  48.669  1.00  0.00    -0.258 OA
HETATM   14  H15 UNL     1      25.271   6.214  48.813  1.00  0.00     0.171 HD
BRANCH  12  15
HETATM   15  C2  UNL     1      27.756   6.625  48.036  1.00  0.00    -0.005 C 
HETATM   16  C3  UNL     1      28.199   7.660  47.589  1.00  0.00    -0.095 C 
BRANCH  16  17
HETATM   17  C4  UNL     1      28.751   8.897  47.051  1.00  0.00     0.124 C 
BRANCH  17  18
HETATM   18  C5  UNL     1      27.703   9.991  47.022  1.00  0.00     0.284 C 
BRANCH  18  19
HETATM   19  N1  UNL     1      27.369  10.469  48.333  1.00  0.00     0.089 N 
HETATM   20  C6  UNL     1      28.426  11.149  49.011  1.00  0.00     0.272 C 
HETATM   21  C7  UNL     1      28.759  12.445  48.314  1.00  0.00     0.030 C 
HETATM   22  C8  UNL     1      27.553  13.352  48.453  1.00  0.00     0.003 C 
HETATM   23  C9  UNL     1      26.382  12.678  47.817  1.00  0.00     0.030 C 
HETATM   24  C10 UNL     1      26.180  11.259  48.280  1.00  0.00     0.272 C 
ENDBRANCH  18  19
ENDBRANCH  17  18
ENDBRANCH  16  17
ENDBRANCH  12  15
ENDBRANCH   1  11
BRANCH   4  25
HETATM   25  N3  UNL     1      25.768   2.568  53.146  1.00  0.00    -0.340 N 
HETATM   26  H17 UNL     1      26.046   3.392  53.687  1.00  0.00     0.167 HD
BRANCH  25  27
HETATM   27  C15 UNL     1      26.779   1.568  53.211  1.00  0.00     0.033 C 
HETATM   28  C16 UNL     1      26.516   0.332  52.821  1.00  0.00     0.032 C 
HETATM   29  C17 UNL     1      27.310  -0.900  52.761  1.00  0.00     0.040 C 
HETATM   30  C18 UNL     1      28.541  -0.924  53.243  1.00  0.00     0.097 C 
HETATM   31  F1  UNL     1      29.087  -2.175  53.078  1.00  0.00    -0.211 F 
HETATM   32  C19 UNL     1      29.525  -0.062  53.897  1.00  0.00     0.097 C 
HETATM   33  C20 UNL     1      29.175   1.355  53.997  1.00  0.00    -0.018 C 
HETATM   34  C21 UNL     1      28.066   2.017  53.721  1.00  0.00     0.026 C 
ENDBRANCH  25  27
ENDBRANCH   4  25
TORSDOF 7
ENDMDL
MODEL 9
REMARK VINA RESULT:      -8.4      3.372      9.287
REMARK  7 active torsions:
REMARK  status: ('A' for Active; 'I' for Inactive)
REMARK    1  A    between atoms: C1_2  and  C2_3 
REMARK       I    between atoms: C1_2  and  N2_13 
REMARK    2  A    between atoms: C3_4  and  C4_5 
REMARK    3  A    between atoms: C4_5  and  C5_6 
REMARK    4  A    between atoms: C5_6  and  N1_7 
REMARK    5  A    between atoms: N2_13  and  C11_14 
REMARK    6  A    between atoms: C14_17  and  N3_18 
REMARK    7  A    between atoms: N3_18  and  C15_19 
ROOT
HETATM    1  C11 UNL     1      26.859   6.394  48.544  1.00  0.00     0.131 A 
HETATM    2  C12 UNL     1      28.237   6.414  48.552  1.00  0.00     0.068 A 
HETATM    3  C13 UNL     1      28.964   7.244  47.752  1.00  0.00     0.044 A 
HETATM    4  C14 UNL     1      30.339   7.187  47.837  1.00  0.00     0.142 A 
HETATM    5  N4  UNL     1      31.007   8.027  47.025  1.00  0.00    -0.224 NA
HETATM    6  C22 UNL     1      30.338   8.869  46.184  1.00  0.00     0.236 A 
HETATM    7  N5  UNL     1      28.999   8.910  46.118  1.00  0.00    -0.240 NA
HETATM    8  C23 UNL     1      28.285   8.084  46.914  1.00  0.00     0.089 A 
HETATM    9  C24 UNL     1      26.905   8.090  46.878  1.00  0.00     0.151 A 
HETATM   10  N6  UNL     1      26.241   7.249  47.691  1.00  0.00    -0.241 NA
ENDROOT
BRANCH   1  11
HETATM   11  N2  UNL     1      26.134   5.514  49.391  1.00  0.00    -0.301 N 
HETATM   12  C1  UNL     1      26.164   4.149  49.796  1.00  0.00     0.302 C 
HETATM   13  O1  UNL     1      26.994   3.287  49.410  1.00  0.00    -0.258 OA
HETATM   14  H15 UNL     1      25.415   6.177  49.751  1.00  0.00     0.171 HD
BRANCH  12  15
HETATM   15  C2  UNL     1      25.146   3.744  50.727  1.00  0.00    -0.005 C 
HETATM   16  C3  UNL     1      24.299   3.384  51.516  1.00  0.00    -0.095 C 
BRANCH  16  17
HETATM   17  C4  UNL     1      23.290   2.934  52.466  1.00  0.00     0.124 C 
BRANCH  17  18
HETATM   18  C5  UNL     1      23.679   1.605  53.080  1.00  0.00     0.284 C 
BRANCH  18  19
HETATM   19  N1  UNL     1      22.893   0.514  52.578  1.00  0.00     0.089 N 
HETATM   20  C6  UNL     1      23.260  -0.771  53.080  1.00  0.00     0.272 C 
HETATM   21  C7  UNL     1      22.969  -0.870  54.557  1.00  0.00     0.030 C 
HETATM   22  C8  UNL     1      21.465  -0.797  54.723  1.00  0.00     0.003 C 
HETATM   23  C9  UNL     1      20.992   0.504  54.162  1.00  0.00     0.030 C 
HETATM   24  C10 UNL     1      21.502   0.780  52.772  1.00  0.00     0.272 C 
ENDBRANCH  18  19
ENDBRANCH  17  18
ENDBRANCH  16  17
ENDBRANCH  12  15
ENDBRANCH   1  11
BRANCH   4  25
HETATM   25  N3  UNL     1      31.086   6.333  48.692  1.00  0.00    -0.340 N 
HETATM   26  H17 UNL     1      31.068   6.282  49.715  1.00  0.00     0.167 HD
BRANCH  25  27
HETATM   27  C15 UNL     1      32.010   5.388  48.164  1.00  0.00     0.033 C 
HETATM   28  C16 UNL     1      33.301   5.499  48.433  1.00  0.00     0.032 C 
HETATM   29  C17 UNL     1      34.482   4.715  48.058  1.00  0.00     0.040 C 
HETATM   30  C18 UNL     1      34.372   3.707  47.211  1.00  0.00     0.097 C 
HETATM   31  F1  UNL     1      35.602   3.124  47.010  1.00  0.00    -0.211 F 
HETATM   32  C19 UNL     1      33.377   2.996  46.409  1.00  0.00     0.097 C 
HETATM   33  C20 UNL     1      31.981   3.374  46.633  1.00  0.00    -0.018 C 
HETATM   34  C21 UNL     1      31.425   4.340  47.341  1.00  0.00     0.026 C 
ENDBRANCH  25  27
ENDBRANCH   4  25
TORSDOF 7
ENDMDL
