MODEL 1
REMARK VINA RESULT:      -7.9      0.000      0.000
REMARK  4 active torsions:
REMARK  status: ('A' for Active; 'I' for Inactive)
REMARK    1  A    between atoms: O1_2  and  C2_3 
REMARK    2  A    between atoms: C6_9  and  N3_10 
REMARK    3  A    between atoms: N3_10  and  C7_11 
REMARK    4  A    between atoms: C15_21  and  O2_22 
ROOT
HETATM    1  C2  UNL     1      26.573   0.149  54.189  1.00  0.00     0.103 A 
HETATM    2  C3  UNL     1      25.431  -0.584  53.875  1.00  0.00     0.072 A 
HETATM    3  C4  UNL     1      24.311   0.072  53.370  1.00  0.00     0.075 A 
HETATM    4  N1  UNL     1      23.206  -0.661  53.069  1.00  0.00    -0.241 NA
HETATM    5  C5  UNL     1      22.103  -0.057  52.578  1.00  0.00     0.236 A 
HETATM    6  N2  UNL     1      22.126   1.284  52.396  1.00  0.00    -0.224 NA
HETATM    7  C6  UNL     1      23.228   1.995  52.699  1.00  0.00     0.142 A 
HETATM    8  C13 UNL     1      24.364   1.438  53.195  1.00  0.00     0.042 A 
HETATM    9  C14 UNL     1      25.475   2.193  53.496  1.00  0.00     0.057 A 
HETATM   10  C15 UNL     1      26.573   1.523  53.994  1.00  0.00     0.102 A 
ENDROOT
BRANCH   7  11
HETATM   11  N3  UNL     1      23.115   3.391  52.459  1.00  0.00    -0.339 N 
HETATM   12  H6  UNL     1      22.671   4.155  53.011  1.00  0.00     0.167 HD
BRANCH  11  13
HETATM   13  C7  UNL     1      23.667   3.986  51.288  1.00  0.00     0.049 C 
HETATM   14  C8  UNL     1      23.947   5.272  51.149  1.00  0.00     0.047 C 
HETATM   15  C9  UNL     1      25.001   5.641  50.451  1.00  0.00     0.152 C 
HETATM   16  F1  UNL     1      25.576   6.838  50.679  1.00  0.00    -0.203 F 
HETATM   17  C10 UNL     1      25.487   4.680  49.437  1.00  0.00     0.084 C 
HETATM   18 CL1  UNL     1      27.089   4.933  48.775  1.00  0.00    -0.080 Cl
HETATM   19  C11 UNL     1      24.686   3.688  49.089  1.00  0.00     0.003 C 
HETATM   20  C12 UNL     1      23.982   3.181  50.088  1.00  0.00     0.044 C 
ENDBRANCH  11  13
ENDBRANCH   7  11
BRANCH  10  21
HETATM   21  O2  UNL     1      27.729   2.221  54.319  1.00  0.00    -0.353 OA
HETATM   22  C16 UNL     1      28.663   2.563  53.302  1.00  0.00     0.210 C 
ENDBRANCH  10  21
BRANCH   1  23
HETATM   23  O1  UNL     1      27.712  -0.480  54.697  1.00  0.00    -0.353 OA
HETATM   24  C1  UNL     1      28.602  -1.040  53.730  1.00  0.00     0.210 C 
ENDBRANCH   1  23
TORSDOF 4
ENDMDL
MODEL 2
REMARK VINA RESULT:      -7.8      3.386      4.770
REMARK  4 active torsions:
REMARK  status: ('A' for Active; 'I' for Inactive)
REMARK    1  A    between atoms: O1_2  and  C2_3 
REMARK    2  A    between atoms: C6_9  and  N3_10 
REMARK    3  A    between atoms: N3_10  and  C7_11 
REMARK    4  A    between atoms: C15_21  and  O2_22 
ROOT
HETATM    1  C2  UNL     1      27.574   0.287  53.979  1.00  0.00     0.103 A 
HETATM    2  C3  UNL     1      27.868   1.107  52.893  1.00  0.00     0.072 A 
HETATM    3  C4  UNL     1      26.853   1.859  52.305  1.00  0.00     0.075 A 
HETATM    4  N1  UNL     1      27.159   2.654  51.246  1.00  0.00    -0.241 NA
HETATM    5  C5  UNL     1      26.200   3.395  50.653  1.00  0.00     0.236 A 
HETATM    6  N2  UNL     1      24.938   3.326  51.135  1.00  0.00    -0.224 NA
HETATM    7  C6  UNL     1      24.650   2.534  52.185  1.00  0.00     0.142 A 
HETATM    8  C13 UNL     1      25.577   1.769  52.819  1.00  0.00     0.042 A 
HETATM    9  C14 UNL     1      25.251   0.967  53.890  1.00  0.00     0.057 A 
HETATM   10  C15 UNL     1      26.272   0.233  54.457  1.00  0.00     0.102 A 
ENDROOT
BRANCH   7  11
HETATM   11  N3  UNL     1      23.288   2.557  52.588  1.00  0.00    -0.339 N 
HETATM   12  H6  UNL     1      22.750   3.231  53.172  1.00  0.00     0.167 HD
BRANCH  11  13
HETATM   13  C7  UNL     1      22.383   1.531  52.190  1.00  0.00     0.049 C 
HETATM   14  C8  UNL     1      21.736   0.726  53.018  1.00  0.00     0.047 C 
HETATM   15  C9  UNL     1      20.509   0.341  52.732  1.00  0.00     0.152 C 
HETATM   16  F1  UNL     1      19.678  -0.050  53.717  1.00  0.00    -0.203 F 
HETATM   17  C10 UNL     1      20.129   0.369  51.302  1.00  0.00     0.084 C 
HETATM   18 CL1  UNL     1      18.425   0.260  50.911  1.00  0.00    -0.080 Cl
HETATM   19  C11 UNL     1      21.093   0.474  50.406  1.00  0.00     0.003 C 
HETATM   20  C12 UNL     1      22.085   1.273  50.764  1.00  0.00     0.044 C 
ENDBRANCH  11  13
ENDBRANCH   7  11
BRANCH  10  21
HETATM   21  O2  UNL     1      26.017  -0.597  55.541  1.00  0.00    -0.353 OA
HETATM   22  C16 UNL     1      24.736  -1.199  55.689  1.00  0.00     0.210 C 
ENDBRANCH  10  21
BRANCH   1  23
HETATM   23  O1  UNL     1      28.569  -0.478  54.591  1.00  0.00    -0.353 OA
HETATM   24  C1  UNL     1      29.662  -0.866  53.757  1.00  0.00     0.210 C 
ENDBRANCH   1  23
TORSDOF 4
ENDMDL
MODEL 3
REMARK VINA RESULT:      -7.7      1.628      2.209
REMARK  4 active torsions:
REMARK  status: ('A' for Active; 'I' for Inactive)
REMARK    1  A    between atoms: O1_2  and  C2_3 
REMARK    2  A    between atoms: C6_9  and  N3_10 
REMARK    3  A    between atoms: N3_10  and  C7_11 
REMARK    4  A    between atoms: C15_21  and  O2_22 
ROOT
HETATM    1  C2  UNL     1      25.236   0.103  53.877  1.00  0.00     0.103 A 
HETATM    2  C3  UNL     1      24.071  -0.007  53.123  1.00  0.00     0.072 A 
HETATM    3  C4  UNL     1      23.676   1.053  52.309  1.00  0.00     0.075 A 
HETATM    4  N1  UNL     1      22.535   0.927  51.580  1.00  0.00    -0.241 NA
HETATM    5  C5  UNL     1      22.124   1.934  50.782  1.00  0.00     0.236 A 
HETATM    6  N2  UNL     1      22.870   3.062  50.727  1.00  0.00    -0.224 NA
HETATM    7  C6  UNL     1      23.997   3.171  51.454  1.00  0.00     0.142 A 
HETATM    8  C13 UNL     1      24.456   2.189  52.273  1.00  0.00     0.042 A 
HETATM    9  C14 UNL     1      25.613   2.331  53.006  1.00  0.00     0.057 A 
HETATM   10  C15 UNL     1      25.985   1.269  53.804  1.00  0.00     0.102 A 
ENDROOT
BRANCH   7  11
HETATM   11  N3  UNL     1      24.682   4.407  51.302  1.00  0.00    -0.339 N 
HETATM   12  H6  UNL     1      24.774   5.230  51.934  1.00  0.00     0.167 HD
BRANCH  11  13
HETATM   13  C7  UNL     1      25.416   4.702  50.118  1.00  0.00     0.049 C 
HETATM   14  C8  UNL     1      25.095   5.640  49.239  1.00  0.00     0.047 C 
HETATM   15  C9  UNL     1      26.045   6.320  48.631  1.00  0.00     0.152 C 
HETATM   16  F1  UNL     1      25.784   7.544  48.133  1.00  0.00    -0.203 F 
HETATM   17  C10 UNL     1      27.368   5.664  48.541  1.00  0.00     0.084 C 
HETATM   18 CL1  UNL     1      28.744   6.661  48.116  1.00  0.00    -0.080 Cl
HETATM   19  C11 UNL     1      27.435   4.368  48.786  1.00  0.00     0.003 C 
HETATM   20  C12 UNL     1      26.642   3.956  49.761  1.00  0.00     0.044 C 
ENDBRANCH  11  13
ENDBRANCH   7  11
BRANCH  10  21
HETATM   21  O2  UNL     1      27.140   1.343  54.570  1.00  0.00    -0.353 OA
HETATM   22  C16 UNL     1      28.416   1.285  53.941  1.00  0.00     0.210 C 
ENDBRANCH  10  21
BRANCH   1  23
HETATM   23  O1  UNL     1      25.658  -0.942  54.702  1.00  0.00    -0.353 OA
HETATM   24  C1  UNL     1      24.827  -1.226  55.827  1.00  0.00     0.210 C 
ENDBRANCH   1  23
TORSDOF 4
ENDMDL
MODEL 4
REMARK VINA RESULT:      -7.5      3.978      5.755
REMARK  4 active torsions:
REMARK  status: ('A' for Active; 'I' for Inactive)
REMARK    1  A    between atoms: O1_2  and  C2_3 
REMARK    2  A    between atoms: C6_9  and  N3_10 
REMARK    3  A    between atoms: N3_10  and  C7_11 
REMARK    4  A    between atoms: C15_21  and  O2_22 
ROOT
HETATM    1  C2  UNL     1      26.372   1.179  53.932  1.00  0.00     0.103 A 
HETATM    2  C3  UNL     1      25.826   2.443  53.722  1.00  0.00     0.072 A 
HETATM    3  C4  UNL     1      24.588   2.561  53.092  1.00  0.00     0.075 A 
HETATM    4  N1  UNL     1      24.072   3.804  52.896  1.00  0.00    -0.241 NA
HETATM    5  C5  UNL     1      22.876   3.954  52.289  1.00  0.00     0.236 A 
HETATM    6  N2  UNL     1      22.212   2.847  51.884  1.00  0.00    -0.224 NA
HETATM    7  C6  UNL     1      22.737   1.624  52.085  1.00  0.00     0.142 A 
HETATM    8  C13 UNL     1      23.935   1.416  52.691  1.00  0.00     0.042 A 
HETATM    9  C14 UNL     1      24.446   0.152  52.882  1.00  0.00     0.057 A 
HETATM   10  C15 UNL     1      25.672   0.058  53.508  1.00  0.00     0.102 A 
ENDROOT
BRANCH   7  11
HETATM   11  N3  UNL     1      21.935   0.551  51.612  1.00  0.00    -0.339 N 
HETATM   12  H6  UNL     1      22.079  -0.131  50.837  1.00  0.00     0.167 HD
BRANCH  11  13
HETATM   13  C7  UNL     1      20.683   0.243  52.217  1.00  0.00     0.049 C 
HETATM   14  C8  UNL     1      19.500   0.416  51.646  1.00  0.00     0.047 C 
HETATM   15  C9  UNL     1      18.531  -0.446  51.875  1.00  0.00     0.152 C 
HETATM   16  F1  UNL     1      17.528  -0.584  50.986  1.00  0.00    -0.203 F 
HETATM   17  C10 UNL     1      18.623  -1.220  53.133  1.00  0.00     0.084 C 
HETATM   18 CL1  UNL     1      17.605  -2.636  53.293  1.00  0.00    -0.080 Cl
HETATM   19  C11 UNL     1      19.465  -0.798  54.059  1.00  0.00     0.003 C 
HETATM   20  C12 UNL     1      20.601  -0.315  53.584  1.00  0.00     0.044 C 
ENDBRANCH  11  13
ENDBRANCH   7  11
BRANCH  10  21
HETATM   21  O2  UNL     1      26.247  -1.185  53.734  1.00  0.00    -0.353 OA
HETATM   22  C16 UNL     1      26.877  -1.881  52.665  1.00  0.00     0.210 C 
ENDBRANCH  10  21
BRANCH   1  23
HETATM   23  O1  UNL     1      27.609   1.027  54.561  1.00  0.00    -0.353 OA
HETATM   24  C1  UNL     1      28.759   1.242  53.741  1.00  0.00     0.210 C 
ENDBRANCH   1  23
TORSDOF 4
ENDMDL
MODEL 5
REMARK VINA RESULT:      -7.4      4.118      6.777
REMARK  4 active torsions:
REMARK  status: ('A' for Active; 'I' for Inactive)
REMARK    1  A    between atoms: O1_2  and  C2_3 
REMARK    2  A    between atoms: C6_9  and  N3_10 
REMARK    3  A    between atoms: N3_10  and  C7_11 
REMARK    4  A    between atoms: C15_21  and  O2_22 
ROOT
HETATM    1  C2  UNL     1      26.527   6.677  48.850  1.00  0.00     0.103 A 
HETATM    2  C3  UNL     1      25.398   6.590  49.660  1.00  0.00     0.072 A 
HETATM    3  C4  UNL     1      25.092   5.383  50.286  1.00  0.00     0.075 A 
HETATM    4  N1  UNL     1      23.986   5.317  51.073  1.00  0.00    -0.241 NA
HETATM    5  C5  UNL     1      23.661   4.164  51.693  1.00  0.00     0.236 A 
HETATM    6  N2  UNL     1      24.457   3.085  51.512  1.00  0.00    -0.224 NA
HETATM    7  C6  UNL     1      25.549   3.166  50.729  1.00  0.00     0.142 A 
HETATM    8  C13 UNL     1      25.922   4.301  50.083  1.00  0.00     0.042 A 
HETATM    9  C14 UNL     1      27.045   4.352  49.288  1.00  0.00     0.057 A 
HETATM   10  C15 UNL     1      27.328   5.557  48.679  1.00  0.00     0.102 A 
ENDROOT
BRANCH   7  11
HETATM   11  N3  UNL     1      26.294   1.960  50.627  1.00  0.00    -0.339 N 
HETATM   12  H6  UNL     1      26.598   1.403  49.801  1.00  0.00     0.167 HD
BRANCH  11  13
HETATM   13  C7  UNL     1      26.773   1.288  51.788  1.00  0.00     0.049 C 
HETATM   14  C8  UNL     1      26.458   0.049  52.132  1.00  0.00     0.047 C 
HETATM   15  C9  UNL     1      27.359  -0.719  52.710  1.00  0.00     0.152 C 
HETATM   16  F1  UNL     1      27.251  -2.060  52.634  1.00  0.00    -0.203 F 
HETATM   17  C10 UNL     1      28.455  -0.025  53.421  1.00  0.00     0.084 C 
HETATM   18 CL1  UNL     1      29.870  -0.965  53.851  1.00  0.00    -0.080 Cl
HETATM   19  C11 UNL     1      28.304   1.259  53.690  1.00  0.00     0.003 C 
HETATM   20  C12 UNL     1      27.695   1.947  52.738  1.00  0.00     0.044 C 
ENDBRANCH  11  13
ENDBRANCH   7  11
BRANCH  10  21
HETATM   21  O2  UNL     1      28.445   5.682  47.863  1.00  0.00    -0.353 OA
HETATM   22  C16 UNL     1      29.736   5.831  48.443  1.00  0.00     0.210 C 
ENDBRANCH  10  21
BRANCH   1  23
HETATM   23  O1  UNL     1      26.860   7.873  48.210  1.00  0.00    -0.353 OA
HETATM   24  C1  UNL     1      27.413   8.895  49.040  1.00  0.00     0.210 C 
ENDBRANCH   1  23
TORSDOF 4
ENDMDL
MODEL 6
REMARK VINA RESULT:      -7.3      3.967      6.790
REMARK  4 active torsions:
REMARK  status: ('A' for Active; 'I' for Inactive)
REMARK    1  A    between atoms: O1_2  and  C2_3 
REMARK    2  A    between atoms: C6_9  and  N3_10 
REMARK    3  A    between atoms: N3_10  and  C7_11 
REMARK    4  A    between atoms: C15_21  and  O2_22 
ROOT
HETATM    1  C2  UNL     1      22.104   4.833  51.278  1.00  0.00     0.103 A 
HETATM    2  C3  UNL     1      23.367   4.969  50.709  1.00  0.00     0.072 A 
HETATM    3  C4  UNL     1      24.320   3.971  50.904  1.00  0.00     0.075 A 
HETATM    4  N1  UNL     1      25.548   4.122  50.340  1.00  0.00    -0.241 NA
HETATM    5  C5  UNL     1      26.494   3.175  50.509  1.00  0.00     0.236 A 
HETATM    6  N2  UNL     1      26.191   2.082  51.247  1.00  0.00    -0.224 NA
HETATM    7  C6  UNL     1      24.971   1.947  51.799  1.00  0.00     0.142 A 
HETATM    8  C13 UNL     1      23.983   2.869  51.660  1.00  0.00     0.042 A 
HETATM    9  C14 UNL     1      22.744   2.703  52.237  1.00  0.00     0.057 A 
HETATM   10  C15 UNL     1      21.816   3.703  52.030  1.00  0.00     0.102 A 
ENDROOT
BRANCH   7  11
HETATM   11  N3  UNL     1      24.788   0.753  52.547  1.00  0.00    -0.339 N 
HETATM   12  H6  UNL     1      23.940   0.179  52.737  1.00  0.00     0.167 HD
BRANCH  11  13
HETATM   13  C7  UNL     1      25.881   0.122  53.207  1.00  0.00     0.049 C 
HETATM   14  C8  UNL     1      26.238  -1.143  53.045  1.00  0.00     0.047 C 
HETATM   15  C9  UNL     1      27.513  -1.472  53.072  1.00  0.00     0.152 C 
HETATM   16  F1  UNL     1      27.933  -2.594  52.456  1.00  0.00    -0.203 F 
HETATM   17  C10 UNL     1      28.414  -0.552  53.800  1.00  0.00     0.084 C 
HETATM   18 CL1  UNL     1      30.137  -0.716  53.531  1.00  0.00    -0.080 Cl
HETATM   19  C11 UNL     1      27.868   0.338  54.610  1.00  0.00     0.003 C 
HETATM   20  C12 UNL     1      26.735   0.857  54.165  1.00  0.00     0.044 C 
ENDBRANCH  11  13
ENDBRANCH   7  11
BRANCH  10  21
HETATM   21  O2  UNL     1      20.546   3.602  52.583  1.00  0.00    -0.353 OA
HETATM   22  C16 UNL     1      19.567   2.773  51.967  1.00  0.00     0.210 C 
ENDBRANCH  10  21
BRANCH   1  23
HETATM   23  O1  UNL     1      21.127   5.815  51.101  1.00  0.00    -0.353 OA
HETATM   24  C1  UNL     1      21.605   7.124  50.784  1.00  0.00     0.210 C 
ENDBRANCH   1  23
TORSDOF 4
ENDMDL
MODEL 7
REMARK VINA RESULT:      -7.2      2.649      3.630
REMARK  4 active torsions:
REMARK  status: ('A' for Active; 'I' for Inactive)
REMARK    1  A    between atoms: O1_2  and  C2_3 
REMARK    2  A    between atoms: C6_9  and  N3_10 
REMARK    3  A    between atoms: N3_10  and  C7_11 
REMARK    4  A    between atoms: C15_21  and  O2_22 
ROOT
HETATM    1  C2  UNL     1      27.255   0.044  53.828  1.00  0.00     0.103 A 
HETATM    2  C3  UNL     1      27.658   0.997  52.896  1.00  0.00     0.072 A 
HETATM    3  C4  UNL     1      26.697   1.684  52.157  1.00  0.00     0.075 A 
HETATM    4  N1  UNL     1      27.110   2.611  51.252  1.00  0.00    -0.241 NA
HETATM    5  C5  UNL     1      26.207   3.295  50.519  1.00  0.00     0.236 A 
HETATM    6  N2  UNL     1      24.892   3.035  50.707  1.00  0.00    -0.224 NA
HETATM    7  C6  UNL     1      24.499   2.115  51.607  1.00  0.00     0.142 A 
HETATM    8  C13 UNL     1      25.366   1.399  52.370  1.00  0.00     0.042 A 
HETATM    9  C14 UNL     1      24.933   0.463  53.282  1.00  0.00     0.057 A 
HETATM   10  C15 UNL     1      25.901  -0.205  54.004  1.00  0.00     0.102 A 
ENDROOT
BRANCH   7  11
HETATM   11  N3  UNL     1      23.092   1.943  51.702  1.00  0.00    -0.339 N 
HETATM   12  H6  UNL     1      22.486   1.611  52.482  1.00  0.00     0.167 HD
BRANCH  11  13
HETATM   13  C7  UNL     1      22.236   2.243  50.604  1.00  0.00     0.049 C 
HETATM   14  C8  UNL     1      21.624   3.402  50.412  1.00  0.00     0.047 C 
HETATM   15  C9  UNL     1      21.465   3.863  49.188  1.00  0.00     0.152 C 
HETATM   16  F1  UNL     1      21.304   5.184  48.982  1.00  0.00    -0.203 F 
HETATM   17  C10 UNL     1      21.475   2.859  48.101  1.00  0.00     0.084 C 
HETATM   18 CL1  UNL     1      21.671   3.439  46.460  1.00  0.00    -0.080 Cl
HETATM   19  C11 UNL     1      21.336   1.588  48.431  1.00  0.00     0.003 C 
HETATM   20  C12 UNL     1      21.950   1.245  49.551  1.00  0.00     0.044 C 
ENDBRANCH  11  13
ENDBRANCH   7  11
BRANCH  10  21
HETATM   21  O2  UNL     1      25.537  -1.162  54.941  1.00  0.00    -0.353 OA
HETATM   22  C16 UNL     1      24.193  -1.228  55.405  1.00  0.00     0.210 C 
ENDBRANCH  10  21
BRANCH   1  23
HETATM   23  O1  UNL     1      28.193  -0.662  54.584  1.00  0.00    -0.353 OA
HETATM   24  C1  UNL     1      29.503  -0.760  54.024  1.00  0.00     0.210 C 
ENDBRANCH   1  23
TORSDOF 4
ENDMDL
MODEL 8
REMARK VINA RESULT:      -7.1      2.517      2.823
REMARK  4 active torsions:
REMARK  status: ('A' for Active; 'I' for Inactive)
REMARK    1  A    between atoms: O1_2  and  C2_3 
REMARK    2  A    between atoms: C6_9  and  N3_10 
REMARK    3  A    between atoms: N3_10  and  C7_11 
REMARK    4  A    between atoms: C15_21  and  O2_22 
ROOT
HETATM    1  C2  UNL     1      27.091  -0.318  53.495  1.00  0.00     0.103 A 
HETATM    2  C3  UNL     1      25.812  -0.858  53.596  1.00  0.00     0.072 A 
HETATM    3  C4  UNL     1      24.716  -0.116  53.162  1.00  0.00     0.075 A 
HETATM    4  N1  UNL     1      23.475  -0.661  53.268  1.00  0.00    -0.241 NA
HETATM    5  C5  UNL     1      22.392   0.031  52.857  1.00  0.00     0.236 A 
HETATM    6  N2  UNL     1      22.572   1.269  52.341  1.00  0.00    -0.224 NA
HETATM    7  C6  UNL     1      23.807   1.794  52.242  1.00  0.00     0.142 A 
HETATM    8  C13 UNL     1      24.930   1.142  52.640  1.00  0.00     0.042 A 
HETATM    9  C14 UNL     1      26.180   1.706  52.527  1.00  0.00     0.057 A 
HETATM   10  C15 UNL     1      27.251   0.953  52.962  1.00  0.00     0.102 A 
ENDROOT
BRANCH   7  11
HETATM   11  N3  UNL     1      23.851   3.100  51.683  1.00  0.00    -0.339 N 
HETATM   12  H6  UNL     1      24.309   3.977  52.009  1.00  0.00     0.167 HD
BRANCH  11  13
HETATM   13  C7  UNL     1      23.194   3.399  50.455  1.00  0.00     0.049 C 
HETATM   14  C8  UNL     1      23.521   2.895  49.275  1.00  0.00     0.047 C 
HETATM   15  C9  UNL     1      22.579   2.624  48.396  1.00  0.00     0.152 C 
HETATM   16  F1  UNL     1      22.798   1.706  47.434  1.00  0.00    -0.203 F 
HETATM   17  C10 UNL     1      21.312   3.375  48.537  1.00  0.00     0.084 C 
HETATM   18 CL1  UNL     1      19.912   2.781  47.669  1.00  0.00    -0.080 Cl
HETATM   19  C11 UNL     1      21.310   4.448  49.308  1.00  0.00     0.003 C 
HETATM   20  C12 UNL     1      22.050   4.335  50.399  1.00  0.00     0.044 C 
ENDBRANCH  11  13
ENDBRANCH   7  11
BRANCH  10  21
HETATM   21  O2  UNL     1      28.542   1.460  52.878  1.00  0.00    -0.353 OA
HETATM   22  C16 UNL     1      28.960   2.491  53.764  1.00  0.00     0.210 C 
ENDBRANCH  10  21
BRANCH   1  23
HETATM   23  O1  UNL     1      28.210  -1.037  53.922  1.00  0.00    -0.353 OA
HETATM   24  C1  UNL     1      28.655  -2.078  53.052  1.00  0.00     0.210 C 
ENDBRANCH   1  23
TORSDOF 4
ENDMDL
MODEL 9
REMARK VINA RESULT:      -7.1      3.756      5.921
REMARK  4 active torsions:
REMARK  status: ('A' for Active; 'I' for Inactive)
REMARK    1  A    between atoms: O1_2  and  C2_3 
REMARK    2  A    between atoms: C6_9  and  N3_10 
REMARK    3  A    between atoms: N3_10  and  C7_11 
REMARK    4  A    between atoms: C15_21  and  O2_22 
ROOT
HETATM    1  C2  UNL     1      20.548   0.747  51.799  1.00  0.00     0.103 A 
HETATM    2  C3  UNL     1      20.670   1.919  51.058  1.00  0.00     0.072 A 
HETATM    3  C4  UNL     1      21.749   2.770  51.289  1.00  0.00     0.075 A 
HETATM    4  N1  UNL     1      21.850   3.910  50.555  1.00  0.00    -0.241 NA
HETATM    5  C5  UNL     1      22.882   4.756  50.753  1.00  0.00     0.236 A 
HETATM    6  N2  UNL     1      23.804   4.443  51.693  1.00  0.00    -0.224 NA
HETATM    7  C6  UNL     1      23.690   3.311  52.412  1.00  0.00     0.142 A 
HETATM    8  C13 UNL     1      22.672   2.425  52.252  1.00  0.00     0.042 A 
HETATM    9  C14 UNL     1      22.582   1.275  53.004  1.00  0.00     0.057 A 
HETATM   10  C15 UNL     1      21.506   0.447  52.757  1.00  0.00     0.102 A 
ENDROOT
BRANCH   7  11
HETATM   11  N3  UNL     1      24.726   3.106  53.363  1.00  0.00    -0.339 N 
HETATM   12  H6  UNL     1      24.913   3.548  54.288  1.00  0.00     0.167 HD
BRANCH  11  13
HETATM   13  C7  UNL     1      25.759   2.153  53.134  1.00  0.00     0.049 C 
HETATM   14  C8  UNL     1      26.611   1.722  54.051  1.00  0.00     0.047 C 
HETATM   15  C9  UNL     1      27.017   0.469  54.030  1.00  0.00     0.152 C 
HETATM   16  F1  UNL     1      27.465  -0.114  55.159  1.00  0.00    -0.203 F 
HETATM   17  C10 UNL     1      26.946  -0.222  52.724  1.00  0.00     0.084 C 
HETATM   18 CL1  UNL     1      27.085  -1.969  52.718  1.00  0.00    -0.080 Cl
HETATM   19  C11 UNL     1      26.783   0.515  51.640  1.00  0.00     0.003 C 
HETATM   20  C12 UNL     1      25.972   1.548  51.801  1.00  0.00     0.044 C 
ENDBRANCH  11  13
ENDBRANCH   7  11
BRANCH  10  21
HETATM   21  O2  UNL     1      21.352  -0.730  53.478  1.00  0.00    -0.353 OA
HETATM   22  C16 UNL     1      21.617  -0.748  54.876  1.00  0.00     0.210 C 
ENDBRANCH  10  21
BRANCH   1  23
HETATM   23  O1  UNL     1      19.479  -0.126  51.591  1.00  0.00    -0.353 OA
HETATM   24  C1  UNL     1      18.363   0.409  50.878  1.00  0.00     0.210 C 
ENDBRANCH   1  23
TORSDOF 4
ENDMDL
