MODEL 1
REMARK VINA RESULT:      -8.5      0.000      0.000
REMARK  7 active torsions:
REMARK  status: ('A' for Active; 'I' for Inactive)
REMARK    1  A    between atoms: N1_2  and  C3_4 
REMARK    2  A    between atoms: C3_4  and  C4_5 
REMARK    3  A    between atoms: C4_5  and  C5_6 
REMARK    4  A    between atoms: C5_6  and  C6_7 
REMARK       I    between atoms: C6_7  and  N2_9 
REMARK    5  A    between atoms: N2_9  and  C7_10 
REMARK    6  A    between atoms: C13_17  and  N4_18 
REMARK    7  A    between atoms: N4_18  and  C14_19 
ROOT
HETATM    1  C7  UNL     1      25.055   3.098  50.237  1.00  0.00     0.035 A 
HETATM    2  C8  UNL     1      23.776   2.952  49.692  1.00  0.00     0.030 A 
HETATM    3  C9  UNL     1      22.841   2.095  50.281  1.00  0.00     0.014 A 
HETATM    4  C10 UNL     1      23.223   1.415  51.398  1.00  0.00    -0.021 A 
HETATM    5  C11 UNL     1      22.326   0.561  52.001  1.00  0.00     0.031 A 
HETATM    6  C12 UNL     1      22.755  -0.107  53.124  1.00  0.00     0.120 A 
HETATM    7  N3  UNL     1      24.000   0.044  53.642  1.00  0.00    -0.242 NA
HETATM    8  C13 UNL     1      24.890   0.868  53.075  1.00  0.00     0.139 A 
HETATM    9  C20 UNL     1      24.475   1.541  51.953  1.00  0.00     0.022 A 
HETATM   10  C21 UNL     1      25.390   2.388  51.368  1.00  0.00     0.045 A 
ENDROOT
BRANCH   1  11
HETATM   11  N2  UNL     1      25.815   4.012  49.462  1.00  0.00    -0.327 N 
HETATM   12  C6  UNL     1      25.897   5.423  49.590  1.00  0.00     0.222 C 
HETATM   13  O1  UNL     1      25.281   6.079  50.440  1.00  0.00    -0.273 OA
HETATM   14  H13 UNL     1      26.299   3.386  48.779  1.00  0.00     0.169 HD
BRANCH  12  15
HETATM   15  C5  UNL     1      26.810   5.972  48.569  1.00  0.00     0.105 C 
BRANCH  15  16
HETATM   16  C4  UNL     1      28.115   5.183  48.510  1.00  0.00     0.039 C 
BRANCH  16  17
HETATM   17  C3  UNL     1      29.184   6.148  48.014  1.00  0.00     0.271 C 
BRANCH  17  18
HETATM   18  N1  UNL     1      30.466   5.802  48.542  1.00  0.00     0.080 N 
HETATM   19  C1  UNL     1      31.291   5.003  47.680  1.00  0.00     0.309 C 
HETATM   20  C2  UNL     1      31.159   6.993  48.988  1.00  0.00     0.309 C 
ENDBRANCH  17  18
ENDBRANCH  16  17
ENDBRANCH  15  16
ENDBRANCH  12  15
ENDBRANCH   1  11
BRANCH   8  21
HETATM   21  N4  UNL     1      26.179   0.977  53.665  1.00  0.00    -0.339 N 
HETATM   22  H18 UNL     1      26.563   1.736  54.259  1.00  0.00     0.167 HD
BRANCH  21  23
HETATM   23  C14 UNL     1      27.097  -0.087  53.430  1.00  0.00     0.051 A 
HETATM   24  C15 UNL     1      26.575  -1.270  52.924  1.00  0.00     0.031 A 
HETATM   25  C16 UNL     1      27.324  -2.408  52.635  1.00  0.00     0.002 A 
HETATM   26  C17 UNL     1      28.677  -2.312  52.884  1.00  0.00     0.002 A 
HETATM   27  C18 UNL     1      29.267  -1.161  53.389  1.00  0.00     0.021 A 
HETATM   28  C19 UNL     1      28.456  -0.061  53.654  1.00  0.00     0.037 A 
HETATM   29 BR1  UNL     1      29.198   1.554  54.340  1.00  0.00    -0.049 Br
ENDBRANCH  21  23
ENDBRANCH   8  21
TORSDOF 7
ENDMDL
MODEL 2
REMARK VINA RESULT:      -8.2      1.877      2.527
REMARK  7 active torsions:
REMARK  status: ('A' for Active; 'I' for Inactive)
REMARK    1  A    between atoms: N1_2  and  C3_4 
REMARK    2  A    between atoms: C3_4  and  C4_5 
REMARK    3  A    between atoms: C4_5  and  C5_6 
REMARK    4  A    between atoms: C5_6  and  C6_7 
REMARK       I    between atoms: C6_7  and  N2_9 
REMARK    5  A    between atoms: N2_9  and  C7_10 
REMARK    6  A    between atoms: C13_17  and  N4_18 
REMARK    7  A    between atoms: N4_18  and  C14_19 
ROOT
HETATM    1  C7  UNL     1      25.549   4.999  50.038  1.00  0.00     0.035 A 
HETATM    2  C8  UNL     1      24.312   5.586  50.323  1.00  0.00     0.030 A 
HETATM    3  C9  UNL     1      23.353   4.904  51.078  1.00  0.00     0.014 A 
HETATM    4  C10 UNL     1      23.670   3.656  51.523  1.00  0.00    -0.021 A 
HETATM    5  C11 UNL     1      22.747   2.955  52.267  1.00  0.00     0.031 A 
HETATM    6  C12 UNL     1      23.108   1.699  52.692  1.00  0.00     0.120 A 
HETATM    7  N3  UNL     1      24.311   1.141  52.409  1.00  0.00    -0.242 NA
HETATM    8  C13 UNL     1      25.226   1.801  51.687  1.00  0.00     0.139 A 
HETATM    9  C20 UNL     1      24.879   3.056  51.256  1.00  0.00     0.022 A 
HETATM   10  C21 UNL     1      25.819   3.735  50.512  1.00  0.00     0.045 A 
ENDROOT
BRANCH   1  11
HETATM   11  N2  UNL     1      26.340   5.881  49.258  1.00  0.00    -0.327 N 
HETATM   12  C6  UNL     1      27.557   5.608  48.579  1.00  0.00     0.222 C 
HETATM   13  O1  UNL     1      28.118   4.505  48.578  1.00  0.00    -0.273 OA
HETATM   14  H13 UNL     1      25.803   6.777  49.307  1.00  0.00     0.169 HD
BRANCH  12  15
HETATM   15  C5  UNL     1      28.036   6.823  47.891  1.00  0.00     0.105 C 
BRANCH  15  16
HETATM   16  C4  UNL     1      29.542   6.769  47.656  1.00  0.00     0.039 C 
BRANCH  16  17
HETATM   17  C3  UNL     1      30.170   7.748  48.640  1.00  0.00     0.271 C 
BRANCH  17  18
HETATM   18  N1  UNL     1      31.337   7.186  49.243  1.00  0.00     0.080 N 
HETATM   19  C1  UNL     1      31.549   5.789  48.988  1.00  0.00     0.309 C 
HETATM   20  C2  UNL     1      32.503   7.972  48.900  1.00  0.00     0.309 C 
ENDBRANCH  17  18
ENDBRANCH  16  17
ENDBRANCH  15  16
ENDBRANCH  12  15
ENDBRANCH   1  11
BRANCH   8  21
HETATM   21  N4  UNL     1      26.466   1.157  51.421  1.00  0.00    -0.339 N 
HETATM   22  H18 UNL     1      26.817   0.759  50.530  1.00  0.00     0.167 HD
BRANCH  21  23
HETATM   23  C14 UNL     1      27.379   1.024  52.507  1.00  0.00     0.051 A 
HETATM   24  C15 UNL     1      27.989   2.185  52.963  1.00  0.00     0.031 A 
HETATM   25  C16 UNL     1      28.905   2.240  54.012  1.00  0.00     0.002 A 
HETATM   26  C17 UNL     1      29.199   1.034  54.613  1.00  0.00     0.002 A 
HETATM   27  C18 UNL     1      28.626  -0.165  54.208  1.00  0.00     0.021 A 
HETATM   28  C19 UNL     1      27.718  -0.144  53.153  1.00  0.00     0.037 A 
HETATM   29 BR1  UNL     1      26.888  -1.749  52.550  1.00  0.00    -0.049 Br
ENDBRANCH  21  23
ENDBRANCH   8  21
TORSDOF 7
ENDMDL
MODEL 3
REMARK VINA RESULT:      -8.1      3.224      4.332
REMARK  7 active torsions:
REMARK  status: ('A' for Active; 'I' for Inactive)
REMARK    1  A    between atoms: N1_2  and  C3_4 
REMARK    2  A    between atoms: C3_4  and  C4_5 
REMARK    3  A    between atoms: C4_5  and  C5_6 
REMARK    4  A    between atoms: C5_6  and  C6_7 
REMARK       I    between atoms: C6_7  and  N2_9 
REMARK    5  A    between atoms: N2_9  and  C7_10 
REMARK    6  A    between atoms: C13_17  and  N4_18 
REMARK    7  A    between atoms: N4_18  and  C14_19 
ROOT
HETATM    1  C7  UNL     1      22.118   1.129  51.977  1.00  0.00     0.035 A 
HETATM    2  C8  UNL     1      21.089   0.610  52.767  1.00  0.00     0.030 A 
HETATM    3  C9  UNL     1      21.374  -0.179  53.886  1.00  0.00     0.014 A 
HETATM    4  C10 UNL     1      22.684  -0.419  54.172  1.00  0.00    -0.021 A 
HETATM    5  C11 UNL     1      23.000  -1.195  55.265  1.00  0.00     0.031 A 
HETATM    6  C12 UNL     1      24.334  -1.413  55.514  1.00  0.00     0.120 A 
HETATM    7  N3  UNL     1      25.324  -0.904  54.739  1.00  0.00    -0.242 NA
HETATM    8  C13 UNL     1      25.044  -0.147  53.670  1.00  0.00     0.139 A 
HETATM    9  C20 UNL     1      23.715   0.080  53.409  1.00  0.00     0.022 A 
HETATM   10  C21 UNL     1      23.426   0.857  52.310  1.00  0.00     0.045 A 
ENDROOT
BRANCH   1  11
HETATM   11  N2  UNL     1      21.578   1.887  50.905  1.00  0.00    -0.327 N 
HETATM   12  C6  UNL     1      21.041   3.200  50.935  1.00  0.00     0.222 C 
HETATM   13  O1  UNL     1      20.969   3.897  51.956  1.00  0.00    -0.273 OA
HETATM   14  H13 UNL     1      21.677   1.237  50.092  1.00  0.00     0.169 HD
BRANCH  12  15
HETATM   15  C5  UNL     1      20.590   3.594  49.586  1.00  0.00     0.105 C 
BRANCH  15  16
HETATM   16  C4  UNL     1      21.337   4.828  49.090  1.00  0.00     0.039 C 
BRANCH  16  17
HETATM   17  C3  UNL     1      22.499   4.323  48.245  1.00  0.00     0.271 C 
BRANCH  17  18
HETATM   18  N1  UNL     1      23.751   4.685  48.831  1.00  0.00     0.080 N 
HETATM   19  C1  UNL     1      23.704   5.790  49.747  1.00  0.00     0.309 C 
HETATM   20  C2  UNL     1      24.374   3.524  49.430  1.00  0.00     0.309 C 
ENDBRANCH  17  18
ENDBRANCH  16  17
ENDBRANCH  15  16
ENDBRANCH  12  15
ENDBRANCH   1  11
BRANCH   8  21
HETATM   21  N4  UNL     1      26.127   0.352  52.896  1.00  0.00    -0.339 N 
HETATM   22  H18 UNL     1      26.130   1.117  52.194  1.00  0.00     0.167 HD
BRANCH  21  23
HETATM   23  C14 UNL     1      27.400  -0.259  53.083  1.00  0.00     0.051 A 
HETATM   24  C15 UNL     1      27.470  -1.635  52.910  1.00  0.00     0.031 A 
HETATM   25  C16 UNL     1      28.629  -2.395  53.053  1.00  0.00     0.002 A 
HETATM   26  C17 UNL     1      29.766  -1.692  53.391  1.00  0.00     0.002 A 
HETATM   27  C18 UNL     1      29.769  -0.316  53.579  1.00  0.00     0.021 A 
HETATM   28  C19 UNL     1      28.574   0.379  53.419  1.00  0.00     0.037 A 
HETATM   29 BR1  UNL     1      28.505   2.268  53.653  1.00  0.00    -0.049 Br
ENDBRANCH  21  23
ENDBRANCH   8  21
TORSDOF 7
ENDMDL
MODEL 4
REMARK VINA RESULT:      -8.1      3.467      7.872
REMARK  7 active torsions:
REMARK  status: ('A' for Active; 'I' for Inactive)
REMARK    1  A    between atoms: N1_2  and  C3_4 
REMARK    2  A    between atoms: C3_4  and  C4_5 
REMARK    3  A    between atoms: C4_5  and  C5_6 
REMARK    4  A    between atoms: C5_6  and  C6_7 
REMARK       I    between atoms: C6_7  and  N2_9 
REMARK    5  A    between atoms: N2_9  and  C7_10 
REMARK    6  A    between atoms: C13_17  and  N4_18 
REMARK    7  A    between atoms: N4_18  and  C14_19 
ROOT
HETATM    1  C7  UNL     1      22.318   0.757  51.774  1.00  0.00     0.035 A 
HETATM    2  C8  UNL     1      21.993   1.482  50.623  1.00  0.00     0.030 A 
HETATM    3  C9  UNL     1      22.936   2.313  50.010  1.00  0.00     0.014 A 
HETATM    4  C10 UNL     1      24.174   2.387  50.574  1.00  0.00    -0.021 A 
HETATM    5  C11 UNL     1      25.126   3.198  49.997  1.00  0.00     0.031 A 
HETATM    6  C12 UNL     1      26.360   3.244  50.600  1.00  0.00     0.120 A 
HETATM    7  N3  UNL     1      26.663   2.535  51.716  1.00  0.00    -0.242 NA
HETATM    8  C13 UNL     1      25.755   1.739  52.298  1.00  0.00     0.139 A 
HETATM    9  C20 UNL     1      24.519   1.684  51.705  1.00  0.00     0.022 A 
HETATM   10  C21 UNL     1      23.584   0.867  52.303  1.00  0.00     0.045 A 
ENDROOT
BRANCH   1  11
HETATM   11  N2  UNL     1      21.200  -0.002  52.206  1.00  0.00    -0.327 N 
HETATM   12  C6  UNL     1      20.493   0.089  53.434  1.00  0.00     0.222 C 
HETATM   13  O1  UNL     1      20.775   0.885  54.339  1.00  0.00    -0.273 OA
HETATM   14  H13 UNL     1      21.028  -0.640  51.396  1.00  0.00     0.169 HD
BRANCH  12  15
HETATM   15  C5  UNL     1      19.396  -0.897  53.460  1.00  0.00     0.105 C 
BRANCH  15  16
HETATM   16  C4  UNL     1      18.312  -0.548  52.444  1.00  0.00     0.039 C 
BRANCH  16  17
HETATM   17  C3  UNL     1      17.141  -1.483  52.719  1.00  0.00     0.271 C 
BRANCH  17  18
HETATM   18  N1  UNL     1      15.921  -0.931  52.219  1.00  0.00     0.080 N 
HETATM   19  C1  UNL     1      16.013  -0.299  50.934  1.00  0.00     0.309 C 
HETATM   20  C2  UNL     1      14.874  -1.930  52.248  1.00  0.00     0.309 C 
ENDBRANCH  17  18
ENDBRANCH  16  17
ENDBRANCH  15  16
ENDBRANCH  12  15
ENDBRANCH   1  11
BRANCH   8  21
HETATM   21  N4  UNL     1      26.135   1.028  53.468  1.00  0.00    -0.339 N 
HETATM   22  H18 UNL     1      25.836   1.178  54.450  1.00  0.00     0.167 HD
BRANCH  21  23
HETATM   23  C14 UNL     1      27.054  -0.049  53.309  1.00  0.00     0.051 A 
HETATM   24  C15 UNL     1      26.550  -1.236  52.791  1.00  0.00     0.031 A 
HETATM   25  C16 UNL     1      27.303  -2.387  52.569  1.00  0.00     0.002 A 
HETATM   26  C17 UNL     1      28.639  -2.301  52.900  1.00  0.00     0.002 A 
HETATM   27  C18 UNL     1      29.209  -1.147  53.422  1.00  0.00     0.021 A 
HETATM   28  C19 UNL     1      28.397  -0.034  53.616  1.00  0.00     0.037 A 
HETATM   29 BR1  UNL     1      29.113   1.585  54.320  1.00  0.00    -0.049 Br
ENDBRANCH  21  23
ENDBRANCH   8  21
TORSDOF 7
ENDMDL
MODEL 5
REMARK VINA RESULT:      -7.8      4.274      6.202
REMARK  7 active torsions:
REMARK  status: ('A' for Active; 'I' for Inactive)
REMARK    1  A    between atoms: N1_2  and  C3_4 
REMARK    2  A    between atoms: C3_4  and  C4_5 
REMARK    3  A    between atoms: C4_5  and  C5_6 
REMARK    4  A    between atoms: C5_6  and  C6_7 
REMARK       I    between atoms: C6_7  and  N2_9 
REMARK    5  A    between atoms: N2_9  and  C7_10 
REMARK    6  A    between atoms: C13_17  and  N4_18 
REMARK    7  A    between atoms: N4_18  and  C14_19 
ROOT
HETATM    1  C7  UNL     1      22.272   1.347  51.866  1.00  0.00     0.035 A 
HETATM    2  C8  UNL     1      21.198   0.831  52.597  1.00  0.00     0.030 A 
HETATM    3  C9  UNL     1      21.417   0.000  53.701  1.00  0.00     0.014 A 
HETATM    4  C10 UNL     1      22.707  -0.282  54.033  1.00  0.00    -0.021 A 
HETATM    5  C11 UNL     1      22.958  -1.099  55.113  1.00  0.00     0.031 A 
HETATM    6  C12 UNL     1      24.274  -1.360  55.410  1.00  0.00     0.120 A 
HETATM    7  N3  UNL     1      25.308  -0.853  54.692  1.00  0.00    -0.242 NA
HETATM    8  C13 UNL     1      25.091  -0.056  53.636  1.00  0.00     0.139 A 
HETATM    9  C20 UNL     1      23.781   0.213  53.329  1.00  0.00     0.022 A 
HETATM   10  C21 UNL     1      23.557   1.030  52.244  1.00  0.00     0.045 A 
ENDROOT
BRANCH   1  11
HETATM   11  N2  UNL     1      21.795   2.150  50.798  1.00  0.00    -0.327 N 
HETATM   12  C6  UNL     1      21.457   1.754  49.478  1.00  0.00     0.222 C 
HETATM   13  O1  UNL     1      21.537   0.590  49.061  1.00  0.00    -0.273 OA
HETATM   14  H13 UNL     1      21.755   3.103  51.227  1.00  0.00     0.169 HD
BRANCH  12  15
HETATM   15  C5  UNL     1      21.006   2.922  48.698  1.00  0.00     0.105 C 
BRANCH  15  16
HETATM   16  C4  UNL     1      19.809   3.601  49.358  1.00  0.00     0.039 C 
BRANCH  16  17
HETATM   17  C3  UNL     1      18.619   2.671  49.163  1.00  0.00     0.271 C 
BRANCH  17  18
HETATM   18  N1  UNL     1      18.107   2.230  50.422  1.00  0.00     0.080 N 
HETATM   19  C1  UNL     1      18.322   3.128  51.522  1.00  0.00     0.309 C 
HETATM   20  C2  UNL     1      16.710   1.872  50.293  1.00  0.00     0.309 C 
ENDBRANCH  17  18
ENDBRANCH  16  17
ENDBRANCH  15  16
ENDBRANCH  12  15
ENDBRANCH   1  11
BRANCH   8  21
HETATM   21  N4  UNL     1      26.218   0.438  52.924  1.00  0.00    -0.339 N 
HETATM   22  H18 UNL     1      26.277   1.245  52.274  1.00  0.00     0.167 HD
BRANCH  21  23
HETATM   23  C14 UNL     1      27.455  -0.246  53.101  1.00  0.00     0.051 A 
HETATM   24  C15 UNL     1      27.458  -1.614  52.864  1.00  0.00     0.031 A 
HETATM   25  C16 UNL     1      28.575  -2.438  52.989  1.00  0.00     0.002 A 
HETATM   26  C17 UNL     1      29.740  -1.811  53.378  1.00  0.00     0.002 A 
HETATM   27  C18 UNL     1      29.809  -0.447  53.632  1.00  0.00     0.021 A 
HETATM   28  C19 UNL     1      28.653   0.314  53.486  1.00  0.00     0.037 A 
HETATM   29 BR1  UNL     1      28.675   2.192  53.809  1.00  0.00    -0.049 Br
ENDBRANCH  21  23
ENDBRANCH   8  21
TORSDOF 7
ENDMDL
MODEL 6
REMARK VINA RESULT:      -7.6      3.406      4.553
REMARK  7 active torsions:
REMARK  status: ('A' for Active; 'I' for Inactive)
REMARK    1  A    between atoms: N1_2  and  C3_4 
REMARK    2  A    between atoms: C3_4  and  C4_5 
REMARK    3  A    between atoms: C4_5  and  C5_6 
REMARK    4  A    between atoms: C5_6  and  C6_7 
REMARK       I    between atoms: C6_7  and  N2_9 
REMARK    5  A    between atoms: N2_9  and  C7_10 
REMARK    6  A    between atoms: C13_17  and  N4_18 
REMARK    7  A    between atoms: N4_18  and  C14_19 
ROOT
HETATM    1  C7  UNL     1      22.128   1.445  52.027  1.00  0.00     0.035 A 
HETATM    2  C8  UNL     1      21.110   1.179  52.947  1.00  0.00     0.030 A 
HETATM    3  C9  UNL     1      21.345   0.362  54.058  1.00  0.00     0.014 A 
HETATM    4  C10 UNL     1      22.595  -0.159  54.206  1.00  0.00    -0.021 A 
HETATM    5  C11 UNL     1      22.859  -0.969  55.288  1.00  0.00     0.031 A 
HETATM    6  C12 UNL     1      24.132  -1.475  55.396  1.00  0.00     0.120 A 
HETATM    7  N3  UNL     1      25.112  -1.209  54.496  1.00  0.00    -0.242 NA
HETATM    8  C13 UNL     1      24.881  -0.424  53.435  1.00  0.00     0.139 A 
HETATM    9  C20 UNL     1      23.613   0.088  53.315  1.00  0.00     0.022 A 
HETATM   10  C21 UNL     1      23.374   0.894  52.224  1.00  0.00     0.045 A 
ENDROOT
BRANCH   1  11
HETATM   11  N2  UNL     1      21.645   2.288  50.993  1.00  0.00    -0.327 N 
HETATM   12  C6  UNL     1      21.480   1.990  49.615  1.00  0.00     0.222 C 
HETATM   13  O1  UNL     1      21.751   0.894  49.106  1.00  0.00    -0.273 OA
HETATM   14  H13 UNL     1      21.441   3.180  51.500  1.00  0.00     0.169 HD
BRANCH  12  15
HETATM   15  C5  UNL     1      20.948   3.167  48.902  1.00  0.00     0.105 C 
BRANCH  15  16
HETATM   16  C4  UNL     1      22.066   3.970  48.245  1.00  0.00     0.039 C 
BRANCH  16  17
HETATM   17  C3  UNL     1      22.276   5.208  49.107  1.00  0.00     0.271 C 
BRANCH  17  18
HETATM   18  N1  UNL     1      23.461   5.084  49.896  1.00  0.00     0.080 N 
HETATM   19  C1  UNL     1      24.497   4.271  49.327  1.00  0.00     0.309 C 
HETATM   20  C2  UNL     1      23.954   6.395  50.263  1.00  0.00     0.309 C 
ENDBRANCH  17  18
ENDBRANCH  16  17
ENDBRANCH  15  16
ENDBRANCH  12  15
ENDBRANCH   1  11
BRANCH   8  21
HETATM   21  N4  UNL     1      25.949  -0.188  52.526  1.00  0.00    -0.339 N 
HETATM   22  H18 UNL     1      25.980  -0.345  51.501  1.00  0.00     0.167 HD
BRANCH  21  23
HETATM   23  C14 UNL     1      27.160   0.335  53.063  1.00  0.00     0.051 A 
HETATM   24  C15 UNL     1      27.182   1.692  53.362  1.00  0.00     0.031 A 
HETATM   25  C16 UNL     1      28.278   2.369  53.892  1.00  0.00     0.002 A 
HETATM   26  C17 UNL     1      29.402   1.603  54.120  1.00  0.00     0.002 A 
HETATM   27  C18 UNL     1      29.450   0.242  53.846  1.00  0.00     0.021 A 
HETATM   28  C19 UNL     1      28.316  -0.369  53.318  1.00  0.00     0.037 A 
HETATM   29 BR1  UNL     1      28.307  -2.233  52.924  1.00  0.00    -0.049 Br
ENDBRANCH  21  23
ENDBRANCH   8  21
TORSDOF 7
ENDMDL
MODEL 7
REMARK VINA RESULT:      -7.6      2.549      3.307
REMARK  7 active torsions:
REMARK  status: ('A' for Active; 'I' for Inactive)
REMARK    1  A    between atoms: N1_2  and  C3_4 
REMARK    2  A    between atoms: C3_4  and  C4_5 
REMARK    3  A    between atoms: C4_5  and  C5_6 
REMARK    4  A    between atoms: C5_6  and  C6_7 
REMARK       I    between atoms: C6_7  and  N2_9 
REMARK    5  A    between atoms: N2_9  and  C7_10 
REMARK    6  A    between atoms: C13_17  and  N4_18 
REMARK    7  A    between atoms: N4_18  and  C14_19 
ROOT
HETATM    1  C7  UNL     1      23.338   3.101  50.908  1.00  0.00     0.035 A 
HETATM    2  C8  UNL     1      22.083   3.092  51.522  1.00  0.00     0.030 A 
HETATM    3  C9  UNL     1      21.764   2.129  52.486  1.00  0.00     0.014 A 
HETATM    4  C10 UNL     1      22.719   1.210  52.799  1.00  0.00    -0.021 A 
HETATM    5  C11 UNL     1      22.436   0.246  53.742  1.00  0.00     0.031 A 
HETATM    6  C12 UNL     1      23.427  -0.663  54.025  1.00  0.00     0.120 A 
HETATM    7  N3  UNL     1      24.642  -0.644  53.422  1.00  0.00    -0.242 NA
HETATM    8  C13 UNL     1      24.942   0.282  52.501  1.00  0.00     0.139 A 
HETATM    9  C20 UNL     1      23.961   1.197  52.209  1.00  0.00     0.022 A 
HETATM   10  C21 UNL     1      24.267   2.148  51.261  1.00  0.00     0.045 A 
ENDROOT
BRANCH   1  11
HETATM   11  N2  UNL     1      23.416   4.162  49.969  1.00  0.00    -0.327 N 
HETATM   12  C6  UNL     1      23.085   4.146  48.589  1.00  0.00     0.222 C 
HETATM   13  O1  UNL     1      22.661   3.149  47.989  1.00  0.00    -0.273 OA
HETATM   14  H13 UNL     1      23.775   4.955  50.548  1.00  0.00     0.169 HD
BRANCH  12  15
HETATM   15  C5  UNL     1      23.322   5.476  47.996  1.00  0.00     0.105 C 
BRANCH  15  16
HETATM   16  C4  UNL     1      24.545   6.148  48.612  1.00  0.00     0.039 C 
BRANCH  16  17
HETATM   17  C3  UNL     1      24.412   7.639  48.327  1.00  0.00     0.271 C 
BRANCH  17  18
HETATM   18  N1  UNL     1      25.555   8.126  47.622  1.00  0.00     0.080 N 
HETATM   19  C1  UNL     1      26.771   7.395  47.842  1.00  0.00     0.309 C 
HETATM   20  C2  UNL     1      25.255   8.249  46.211  1.00  0.00     0.309 C 
ENDBRANCH  17  18
ENDBRANCH  16  17
ENDBRANCH  15  16
ENDBRANCH  12  15
ENDBRANCH   1  11
BRANCH   8  21
HETATM   21  N4  UNL     1      26.231   0.244  51.902  1.00  0.00    -0.339 N 
HETATM   22  H18 UNL     1      26.491  -0.001  50.928  1.00  0.00     0.167 HD
BRANCH  21  23
HETATM   23  C14 UNL     1      27.343   0.584  52.724  1.00  0.00     0.051 A 
HETATM   24  C15 UNL     1      27.532   1.932  53.004  1.00  0.00     0.031 A 
HETATM   25  C16 UNL     1      28.564   2.442  53.789  1.00  0.00     0.002 A 
HETATM   26  C17 UNL     1      29.439   1.510  54.305  1.00  0.00     0.002 A 
HETATM   27  C18 UNL     1      29.311   0.147  54.066  1.00  0.00     0.021 A 
HETATM   28  C19 UNL     1      28.254  -0.291  53.274  1.00  0.00     0.037 A 
HETATM   29 BR1  UNL     1      28.012  -2.146  52.911  1.00  0.00    -0.049 Br
ENDBRANCH  21  23
ENDBRANCH   8  21
TORSDOF 7
ENDMDL
MODEL 8
REMARK VINA RESULT:      -7.6      2.788      4.967
REMARK  7 active torsions:
REMARK  status: ('A' for Active; 'I' for Inactive)
REMARK    1  A    between atoms: N1_2  and  C3_4 
REMARK    2  A    between atoms: C3_4  and  C4_5 
REMARK    3  A    between atoms: C4_5  and  C5_6 
REMARK    4  A    between atoms: C5_6  and  C6_7 
REMARK       I    between atoms: C6_7  and  N2_9 
REMARK    5  A    between atoms: N2_9  and  C7_10 
REMARK    6  A    between atoms: C13_17  and  N4_18 
REMARK    7  A    between atoms: N4_18  and  C14_19 
ROOT
HETATM    1  C7  UNL     1      26.091   2.519  51.314  1.00  0.00     0.035 A 
HETATM    2  C8  UNL     1      26.993   1.553  51.770  1.00  0.00     0.030 A 
HETATM    3  C9  UNL     1      26.563   0.497  52.579  1.00  0.00     0.014 A 
HETATM    4  C10 UNL     1      25.240   0.447  52.901  1.00  0.00    -0.021 A 
HETATM    5  C11 UNL     1      24.784  -0.579  53.699  1.00  0.00     0.031 A 
HETATM    6  C12 UNL     1      23.443  -0.589  54.000  1.00  0.00     0.120 A 
HETATM    7  N3  UNL     1      22.578   0.354  53.552  1.00  0.00    -0.242 NA
HETATM    8  C13 UNL     1      22.996   1.362  52.775  1.00  0.00     0.139 A 
HETATM    9  C20 UNL     1      24.333   1.384  52.465  1.00  0.00     0.022 A 
HETATM   10  C21 UNL     1      24.765   2.421  51.669  1.00  0.00     0.045 A 
ENDROOT
BRANCH   1  11
HETATM   11  N2  UNL     1      26.766   3.483  50.521  1.00  0.00    -0.327 N 
HETATM   12  C6  UNL     1      26.244   4.287  49.475  1.00  0.00     0.222 C 
HETATM   13  O1  UNL     1      25.066   4.251  49.094  1.00  0.00    -0.273 OA
HETATM   14  H13 UNL     1      27.739   3.453  50.902  1.00  0.00     0.169 HD
BRANCH  12  15
HETATM   15  C5  UNL     1      27.305   5.152  48.923  1.00  0.00     0.105 C 
BRANCH  15  16
HETATM   16  C4  UNL     1      26.739   6.483  48.438  1.00  0.00     0.039 C 
BRANCH  16  17
HETATM   17  C3  UNL     1      27.916   7.445  48.337  1.00  0.00     0.271 C 
BRANCH  17  18
HETATM   18  N1  UNL     1      27.630   8.672  49.012  1.00  0.00     0.080 N 
HETATM   19  C1  UNL     1      26.666   8.581  50.072  1.00  0.00     0.309 C 
HETATM   20  C2  UNL     1      28.859   9.291  49.461  1.00  0.00     0.309 C 
ENDBRANCH  17  18
ENDBRANCH  16  17
ENDBRANCH  15  16
ENDBRANCH  12  15
ENDBRANCH   1  11
BRANCH   8  21
HETATM   21  N4  UNL     1      22.039   2.321  52.342  1.00  0.00    -0.339 N 
HETATM   22  H18 UNL     1      21.513   3.017  52.903  1.00  0.00     0.167 HD
BRANCH  21  23
HETATM   23  C14 UNL     1      21.737   2.359  50.951  1.00  0.00     0.051 A 
HETATM   24  C15 UNL     1      21.571   1.139  50.308  1.00  0.00     0.031 A 
HETATM   25  C16 UNL     1      21.273   0.989  48.955  1.00  0.00     0.002 A 
HETATM   26  C17 UNL     1      21.142   2.160  48.239  1.00  0.00     0.002 A 
HETATM   27  C18 UNL     1      21.294   3.414  48.817  1.00  0.00     0.021 A 
HETATM   28  C19 UNL     1      21.591   3.488  50.174  1.00  0.00     0.037 A 
HETATM   29 BR1  UNL     1      21.805   5.174  51.035  1.00  0.00    -0.049 Br
ENDBRANCH  21  23
ENDBRANCH   8  21
TORSDOF 7
ENDMDL
MODEL 9
REMARK VINA RESULT:      -7.6      2.592      3.336
REMARK  7 active torsions:
REMARK  status: ('A' for Active; 'I' for Inactive)
REMARK    1  A    between atoms: N1_2  and  C3_4 
REMARK    2  A    between atoms: C3_4  and  C4_5 
REMARK    3  A    between atoms: C4_5  and  C5_6 
REMARK    4  A    between atoms: C5_6  and  C6_7 
REMARK       I    between atoms: C6_7  and  N2_9 
REMARK    5  A    between atoms: N2_9  and  C7_10 
REMARK    6  A    between atoms: C13_17  and  N4_18 
REMARK    7  A    between atoms: N4_18  and  C14_19 
ROOT
HETATM    1  C7  UNL     1      25.546   4.967  50.031  1.00  0.00     0.035 A 
HETATM    2  C8  UNL     1      24.306   5.551  50.306  1.00  0.00     0.030 A 
HETATM    3  C9  UNL     1      23.343   4.867  51.055  1.00  0.00     0.014 A 
HETATM    4  C10 UNL     1      23.660   3.621  51.504  1.00  0.00    -0.021 A 
HETATM    5  C11 UNL     1      22.734   2.919  52.242  1.00  0.00     0.031 A 
HETATM    6  C12 UNL     1      23.095   1.664  52.671  1.00  0.00     0.120 A 
HETATM    7  N3  UNL     1      24.302   1.108  52.397  1.00  0.00    -0.242 NA
HETATM    8  C13 UNL     1      25.221   1.770  51.681  1.00  0.00     0.139 A 
HETATM    9  C20 UNL     1      24.873   3.024  51.246  1.00  0.00     0.022 A 
HETATM   10  C21 UNL     1      25.816   3.704  50.508  1.00  0.00     0.045 A 
ENDROOT
BRANCH   1  11
HETATM   11  N2  UNL     1      26.341   5.850  49.255  1.00  0.00    -0.327 N 
HETATM   12  C6  UNL     1      27.557   5.577  48.575  1.00  0.00     0.222 C 
HETATM   13  O1  UNL     1      28.115   4.471  48.569  1.00  0.00    -0.273 OA
HETATM   14  H13 UNL     1      25.807   6.747  49.309  1.00  0.00     0.169 HD
BRANCH  12  15
HETATM   15  C5  UNL     1      28.040   6.793  47.893  1.00  0.00     0.105 C 
BRANCH  15  16
HETATM   16  C4  UNL     1      26.951   7.859  47.823  1.00  0.00     0.039 C 
BRANCH  16  17
HETATM   17  C3  UNL     1      27.394   8.864  46.767  1.00  0.00     0.271 C 
BRANCH  17  18
HETATM   18  N1  UNL     1      26.737  10.119  46.951  1.00  0.00     0.080 N 
HETATM   19  C1  UNL     1      25.344  10.040  47.288  1.00  0.00     0.309 C 
HETATM   20  C2  UNL     1      27.469  10.930  47.901  1.00  0.00     0.309 C 
ENDBRANCH  17  18
ENDBRANCH  16  17
ENDBRANCH  15  16
ENDBRANCH  12  15
ENDBRANCH   1  11
BRANCH   8  21
HETATM   21  N4  UNL     1      26.464   1.129  51.425  1.00  0.00    -0.339 N 
HETATM   22  H18 UNL     1      26.822   0.731  50.536  1.00  0.00     0.167 HD
BRANCH  21  23
HETATM   23  C14 UNL     1      27.369   0.999  52.517  1.00  0.00     0.051 A 
HETATM   24  C15 UNL     1      27.975   2.162  52.975  1.00  0.00     0.031 A 
HETATM   25  C16 UNL     1      28.883   2.220  54.030  1.00  0.00     0.002 A 
HETATM   26  C17 UNL     1      29.175   1.016  54.636  1.00  0.00     0.002 A 
HETATM   27  C18 UNL     1      28.605  -0.184  54.230  1.00  0.00     0.021 A 
HETATM   28  C19 UNL     1      27.705  -0.167  53.169  1.00  0.00     0.037 A 
HETATM   29 BR1  UNL     1      26.880  -1.774  52.564  1.00  0.00    -0.049 Br
ENDBRANCH  21  23
ENDBRANCH   8  21
TORSDOF 7
ENDMDL
