MODEL 1
REMARK VINA RESULT:      -7.4      0.000      0.000
REMARK  8 active torsions:
REMARK  status: ('A' for Active; 'I' for Inactive)
REMARK    1  A    between atoms: C2_2  and  C3_3 
REMARK    2  A    between atoms: C2_2  and  C9_10 
REMARK    3  A    between atoms: C3_3  and  N1_4 
REMARK    4  A    between atoms: C9_10  and  C10_12 
REMARK    5  A    between atoms: C13_15  and  O2_16 
REMARK    6  A    between atoms: O2_16  and  C14_17 
REMARK    7  A    between atoms: C14_17  and  C15_18 
REMARK    8  A    between atoms: C16_19  and  C17_20 
ROOT
HETATM    1  C10 UNL     1      24.523   2.378  51.209  1.00  0.00     0.015 A 
HETATM    2  C11 UNL     1      24.215   2.547  52.559  1.00  0.00     0.018 A 
HETATM    3  C12 UNL     1      25.221   2.627  53.528  1.00  0.00     0.038 A 
HETATM    4  C13 UNL     1      26.537   2.539  53.158  1.00  0.00     0.069 A 
HETATM    5  C21 UNL     1      26.888   2.373  51.845  1.00  0.00     0.038 A 
HETATM    6  C22 UNL     1      25.864   2.300  50.938  1.00  0.00     0.018 A 
ENDROOT
BRANCH   1   7
HETATM    7  C9  UNL     1      23.399   2.314  50.320  1.00  0.00     0.189 C 
HETATM    8  O1  UNL     1      23.640   2.704  49.162  1.00  0.00    -0.287 OA
BRANCH   7   9
HETATM    9  C2  UNL     1      22.052   1.869  50.575  1.00  0.00     0.001 C 
HETATM   10  C1  UNL     1      21.090   2.735  50.386  1.00  0.00     0.024 C 
BRANCH   9  11
HETATM   11  C3  UNL     1      21.389   0.633  50.974  1.00  0.00     0.158 C 
BRANCH  11  12
HETATM   12  N1  UNL     1      21.418   0.348  52.336  1.00  0.00    -0.408 N 
HETATM   13  C4  UNL     1      20.318   0.388  53.178  1.00  0.00     0.117 C 
HETATM   14  C5  UNL     1      19.956  -0.999  53.668  1.00  0.00     0.019 C 
HETATM   15  C6  UNL     1      21.103  -1.607  54.460  1.00  0.00     0.003 C 
HETATM   16  C7  UNL     1      22.396  -0.883  54.219  1.00  0.00     0.019 C 
HETATM   17  C8  UNL     1      22.492  -0.526  52.761  1.00  0.00     0.117 C 
ENDBRANCH  11  12
ENDBRANCH   9  11
ENDBRANCH   7   9
ENDBRANCH   1   7
BRANCH   4  18
HETATM   18  O2  UNL     1      27.537   2.619  54.113  1.00  0.00    -0.347 OA
BRANCH  18  19
HETATM   19  C14 UNL     1      28.843   2.170  53.840  1.00  0.00     0.203 C 
BRANCH  19  20
HETATM   20  C15 UNL     1      29.150   0.997  54.674  1.00  0.00    -0.000 C 
HETATM   21  C16 UNL     1      29.113  -0.304  54.442  1.00  0.00    -0.001 C 
BRANCH  21  22
HETATM   22  C17 UNL     1      28.705  -0.823  53.144  1.00  0.00     0.011 C 
HETATM   23  C18 UNL     1      27.422  -1.043  52.944  1.00  0.00    -0.036 A 
HETATM   24  C19 UNL     1      26.125  -0.939  53.639  1.00  0.00     0.012 A 
HETATM   25  C20 UNL     1      26.142  -1.409  52.341  1.00  0.00     0.012 A 
ENDBRANCH  21  22
ENDBRANCH  19  20
ENDBRANCH  18  19
ENDBRANCH   4  18
TORSDOF 8
ENDMDL
MODEL 2
REMARK VINA RESULT:      -7.2      2.708      6.261
REMARK  8 active torsions:
REMARK  status: ('A' for Active; 'I' for Inactive)
REMARK    1  A    between atoms: C2_2  and  C3_3 
REMARK    2  A    between atoms: C2_2  and  C9_10 
REMARK    3  A    between atoms: C3_3  and  N1_4 
REMARK    4  A    between atoms: C9_10  and  C10_12 
REMARK    5  A    between atoms: C13_15  and  O2_16 
REMARK    6  A    between atoms: O2_16  and  C14_17 
REMARK    7  A    between atoms: C14_17  and  C15_18 
REMARK    8  A    between atoms: C16_19  and  C17_20 
ROOT
HETATM    1  C10 UNL     1      23.561   1.563  52.716  1.00  0.00     0.015 A 
HETATM    2  C11 UNL     1      22.451   1.773  51.898  1.00  0.00     0.018 A 
HETATM    3  C12 UNL     1      22.071   3.062  51.507  1.00  0.00     0.038 A 
HETATM    4  C13 UNL     1      22.794   4.146  51.930  1.00  0.00     0.069 A 
HETATM    5  C21 UNL     1      23.892   3.989  52.734  1.00  0.00     0.038 A 
HETATM    6  C22 UNL     1      24.219   2.706  53.086  1.00  0.00     0.018 A 
ENDROOT
BRANCH   1   7
HETATM    7  C9  UNL     1      23.843   0.193  53.039  1.00  0.00     0.189 C 
HETATM    8  O1  UNL     1      22.857  -0.563  52.959  1.00  0.00    -0.287 OA
BRANCH   7   9
HETATM    9  C2  UNL     1      25.086  -0.418  53.435  1.00  0.00     0.001 C 
HETATM   10  C1  UNL     1      25.285  -0.593  54.716  1.00  0.00     0.024 C 
BRANCH   9  11
HETATM   11  C3  UNL     1      26.263  -0.978  52.779  1.00  0.00     0.158 C 
BRANCH  11  12
HETATM   12  N1  UNL     1      27.386  -0.157  52.758  1.00  0.00    -0.408 N 
HETATM   13  C4  UNL     1      27.376   1.192  52.438  1.00  0.00     0.117 C 
HETATM   14  C5  UNL     1      27.713   2.041  53.645  1.00  0.00     0.019 C 
HETATM   15  C6  UNL     1      29.105   1.715  54.162  1.00  0.00     0.003 C 
HETATM   16  C7  UNL     1      29.609   0.407  53.625  1.00  0.00     0.019 C 
HETATM   17  C8  UNL     1      28.478  -0.583  53.608  1.00  0.00     0.117 C 
ENDBRANCH  11  12
ENDBRANCH   9  11
ENDBRANCH   7   9
ENDBRANCH   1   7
BRANCH   4  18
HETATM   18  O2  UNL     1      22.424   5.425  51.545  1.00  0.00    -0.347 OA
BRANCH  18  19
HETATM   19  C14 UNL     1      23.383   6.366  51.126  1.00  0.00     0.203 C 
BRANCH  19  20
HETATM   20  C15 UNL     1      23.404   6.433  49.656  1.00  0.00    -0.000 C 
HETATM   21  C16 UNL     1      24.349   6.208  48.760  1.00  0.00    -0.001 C 
BRANCH  21  22
HETATM   22  C17 UNL     1      25.687   5.805  49.167  1.00  0.00     0.011 C 
HETATM   23  C18 UNL     1      25.901   4.526  49.400  1.00  0.00    -0.036 A 
HETATM   24  C19 UNL     1      25.194   3.232  49.393  1.00  0.00     0.012 A 
HETATM   25  C20 UNL     1      26.530   3.251  49.740  1.00  0.00     0.012 A 
ENDBRANCH  21  22
ENDBRANCH  19  20
ENDBRANCH  18  19
ENDBRANCH   4  18
TORSDOF 8
ENDMDL
MODEL 3
REMARK VINA RESULT:      -7.0      2.114      6.310
REMARK  8 active torsions:
REMARK  status: ('A' for Active; 'I' for Inactive)
REMARK    1  A    between atoms: C2_2  and  C3_3 
REMARK    2  A    between atoms: C2_2  and  C9_10 
REMARK    3  A    between atoms: C3_3  and  N1_4 
REMARK    4  A    between atoms: C9_10  and  C10_12 
REMARK    5  A    between atoms: C13_15  and  O2_16 
REMARK    6  A    between atoms: O2_16  and  C14_17 
REMARK    7  A    between atoms: C14_17  and  C15_18 
REMARK    8  A    between atoms: C16_19  and  C17_20 
ROOT
HETATM    1  C10 UNL     1      23.065   2.348  51.633  1.00  0.00     0.015 A 
HETATM    2  C11 UNL     1      21.953   3.046  52.104  1.00  0.00     0.018 A 
HETATM    3  C12 UNL     1      20.654   2.665  51.750  1.00  0.00     0.038 A 
HETATM    4  C13 UNL     1      20.457   1.588  50.927  1.00  0.00     0.069 A 
HETATM    5  C21 UNL     1      21.518   0.871  50.440  1.00  0.00     0.038 A 
HETATM    6  C22 UNL     1      22.767   1.287  50.818  1.00  0.00     0.018 A 
ENDROOT
BRANCH   1   7
HETATM    7  C9  UNL     1      24.339   2.840  52.074  1.00  0.00     0.189 C 
HETATM    8  O1  UNL     1      24.353   3.235  53.255  1.00  0.00    -0.287 OA
BRANCH   7   9
HETATM    9  C2  UNL     1      25.582   2.940  51.353  1.00  0.00     0.001 C 
HETATM   10  C1  UNL     1      25.568   3.604  50.226  1.00  0.00     0.024 C 
BRANCH   9  11
HETATM   11  C3  UNL     1      26.967   2.522  51.540  1.00  0.00     0.158 C 
BRANCH  11  12
HETATM   12  N1  UNL     1      27.149   1.368  52.295  1.00  0.00    -0.408 N 
HETATM   13  C4  UNL     1      27.427   1.345  53.654  1.00  0.00     0.117 C 
HETATM   14  C5  UNL     1      26.268   0.766  54.438  1.00  0.00     0.019 C 
HETATM   15  C6  UNL     1      25.993  -0.668  54.014  1.00  0.00     0.003 C 
HETATM   16  C7  UNL     1      26.640  -0.997  52.699  1.00  0.00     0.019 C 
HETATM   17  C8  UNL     1      26.500   0.182  51.777  1.00  0.00     0.117 C 
ENDBRANCH  11  12
ENDBRANCH   9  11
ENDBRANCH   7   9
ENDBRANCH   1   7
BRANCH   4  18
HETATM   18  O2  UNL     1      19.173   1.204  50.575  1.00  0.00    -0.347 OA
BRANCH  18  19
HETATM   19  C14 UNL     1      18.185   0.980  51.553  1.00  0.00     0.203 C 
BRANCH  19  20
HETATM   20  C15 UNL     1      18.294  -0.397  52.062  1.00  0.00    -0.000 C 
HETATM   21  C16 UNL     1      18.962  -0.933  53.068  1.00  0.00    -0.001 C 
BRANCH  21  22
HETATM   22  C17 UNL     1      19.800  -0.114  53.932  1.00  0.00     0.011 C 
HETATM   23  C18 UNL     1      21.090  -0.377  53.968  1.00  0.00    -0.036 A 
HETATM   24  C19 UNL     1      22.083  -1.298  53.384  1.00  0.00     0.012 A 
HETATM   25  C20 UNL     1      22.517  -0.343  54.282  1.00  0.00     0.012 A 
ENDBRANCH  21  22
ENDBRANCH  19  20
ENDBRANCH  18  19
ENDBRANCH   4  18
TORSDOF 8
ENDMDL
MODEL 4
REMARK VINA RESULT:      -6.9      3.249      6.109
REMARK  8 active torsions:
REMARK  status: ('A' for Active; 'I' for Inactive)
REMARK    1  A    between atoms: C2_2  and  C3_3 
REMARK    2  A    between atoms: C2_2  and  C9_10 
REMARK    3  A    between atoms: C3_3  and  N1_4 
REMARK    4  A    between atoms: C9_10  and  C10_12 
REMARK    5  A    between atoms: C13_15  and  O2_16 
REMARK    6  A    between atoms: O2_16  and  C14_17 
REMARK    7  A    between atoms: C14_17  and  C15_18 
REMARK    8  A    between atoms: C16_19  and  C17_20 
ROOT
HETATM    1  C10 UNL     1      23.187   1.604  52.325  1.00  0.00     0.015 A 
HETATM    2  C11 UNL     1      23.659   2.799  52.867  1.00  0.00     0.018 A 
HETATM    3  C12 UNL     1      23.966   3.894  52.052  1.00  0.00     0.038 A 
HETATM    4  C13 UNL     1      23.804   3.805  50.695  1.00  0.00     0.069 A 
HETATM    5  C21 UNL     1      23.342   2.651  50.117  1.00  0.00     0.038 A 
HETATM    6  C22 UNL     1      23.058   1.610  50.961  1.00  0.00     0.018 A 
ENDROOT
BRANCH   1   7
HETATM    7  C9  UNL     1      22.907   0.561  53.271  1.00  0.00     0.189 C 
HETATM    8  O1  UNL     1      21.725   0.527  53.658  1.00  0.00    -0.287 OA
BRANCH   7   9
HETATM    9  C2  UNL     1      23.790  -0.434  53.824  1.00  0.00     0.001 C 
HETATM   10  C1  UNL     1      23.486  -0.913  55.003  1.00  0.00     0.024 C 
BRANCH   9  11
HETATM   11  C3  UNL     1      24.992  -1.150  53.412  1.00  0.00     0.158 C 
BRANCH  11  12
HETATM   12  N1  UNL     1      26.123  -0.363  53.220  1.00  0.00    -0.408 N 
HETATM   13  C4  UNL     1      26.757  -0.170  52.002  1.00  0.00     0.117 C 
HETATM   14  C5  UNL     1      26.610   1.262  51.532  1.00  0.00     0.019 C 
HETATM   15  C6  UNL     1      27.245   2.223  52.524  1.00  0.00     0.003 C 
HETATM   16  C7  UNL     1      27.484   1.575  53.857  1.00  0.00     0.019 C 
HETATM   17  C8  UNL     1      26.311   0.695  54.190  1.00  0.00     0.117 C 
ENDBRANCH  11  12
ENDBRANCH   9  11
ENDBRANCH   7   9
ENDBRANCH   1   7
BRANCH   4  18
HETATM   18  O2  UNL     1      24.104   4.886  49.883  1.00  0.00    -0.347 OA
BRANCH  18  19
HETATM   19  C14 UNL     1      25.374   5.493  49.919  1.00  0.00     0.203 C 
BRANCH  19  20
HETATM   20  C15 UNL     1      26.389   4.551  49.418  1.00  0.00    -0.000 C 
HETATM   21  C16 UNL     1      27.495   4.714  48.712  1.00  0.00    -0.001 C 
BRANCH  21  22
HETATM   22  C17 UNL     1      27.916   6.037  48.275  1.00  0.00     0.011 C 
HETATM   23  C18 UNL     1      29.184   6.205  47.955  1.00  0.00    -0.036 A 
HETATM   24  C19 UNL     1      30.449   5.453  47.876  1.00  0.00     0.012 A 
HETATM   25  C20 UNL     1      30.453   6.788  47.525  1.00  0.00     0.012 A 
ENDBRANCH  21  22
ENDBRANCH  19  20
ENDBRANCH  18  19
ENDBRANCH   4  18
TORSDOF 8
ENDMDL
MODEL 5
REMARK VINA RESULT:      -6.8      1.411      2.070
REMARK  8 active torsions:
REMARK  status: ('A' for Active; 'I' for Inactive)
REMARK    1  A    between atoms: C2_2  and  C3_3 
REMARK    2  A    between atoms: C2_2  and  C9_10 
REMARK    3  A    between atoms: C3_3  and  N1_4 
REMARK    4  A    between atoms: C9_10  and  C10_12 
REMARK    5  A    between atoms: C13_15  and  O2_16 
REMARK    6  A    between atoms: O2_16  and  C14_17 
REMARK    7  A    between atoms: C14_17  and  C15_18 
REMARK    8  A    between atoms: C16_19  and  C17_20 
ROOT
HETATM    1  C10 UNL     1      24.017   3.259  50.479  1.00  0.00     0.015 A 
HETATM    2  C11 UNL     1      24.139   2.800  51.791  1.00  0.00     0.018 A 
HETATM    3  C12 UNL     1      25.383   2.434  52.319  1.00  0.00     0.038 A 
HETATM    4  C13 UNL     1      26.508   2.523  51.543  1.00  0.00     0.069 A 
HETATM    5  C21 UNL     1      26.437   2.968  50.249  1.00  0.00     0.038 A 
HETATM    6  C22 UNL     1      25.196   3.313  49.784  1.00  0.00     0.018 A 
ENDROOT
BRANCH   1   7
HETATM    7  C9  UNL     1      22.687   3.604  50.065  1.00  0.00     0.189 C 
HETATM    8  O1  UNL     1      22.475   3.448  48.848  1.00  0.00    -0.287 OA
BRANCH   7   9
HETATM    9  C2  UNL     1      21.582   4.097  50.848  1.00  0.00     0.001 C 
HETATM   10  C1  UNL     1      21.706   5.289  51.372  1.00  0.00     0.024 C 
BRANCH   9  11
HETATM   11  C3  UNL     1      20.248   3.643  51.224  1.00  0.00     0.158 C 
BRANCH  11  12
HETATM   12  N1  UNL     1      20.166   2.328  51.673  1.00  0.00    -0.408 N 
HETATM   13  C4  UNL     1      20.075   1.215  50.851  1.00  0.00     0.117 C 
HETATM   14  C5  UNL     1      21.328   0.368  50.941  1.00  0.00     0.019 C 
HETATM   15  C6  UNL     1      21.535  -0.139  52.359  1.00  0.00     0.003 C 
HETATM   16  C7  UNL     1      20.714   0.629  53.354  1.00  0.00     0.019 C 
HETATM   17  C8  UNL     1      20.732   2.086  52.983  1.00  0.00     0.117 C 
ENDBRANCH  11  12
ENDBRANCH   9  11
ENDBRANCH   7   9
ENDBRANCH   1   7
BRANCH   4  18
HETATM   18  O2  UNL     1      27.742   2.163  52.060  1.00  0.00    -0.347 OA
BRANCH  18  19
HETATM   19  C14 UNL     1      28.111   2.512  53.374  1.00  0.00     0.203 C 
BRANCH  19  20
HETATM   20  C15 UNL     1      28.768   1.368  54.025  1.00  0.00    -0.000 C 
HETATM   21  C16 UNL     1      28.306   0.342  54.719  1.00  0.00    -0.001 C 
BRANCH  21  22
HETATM   22  C17 UNL     1      26.880   0.185  54.965  1.00  0.00     0.011 C 
HETATM   23  C18 UNL     1      26.160  -0.425  54.045  1.00  0.00    -0.036 A 
HETATM   24  C19 UNL     1      26.302  -1.068  52.726  1.00  0.00     0.012 A 
HETATM   25  C20 UNL     1      25.050  -1.022  53.305  1.00  0.00     0.012 A 
ENDBRANCH  21  22
ENDBRANCH  19  20
ENDBRANCH  18  19
ENDBRANCH   4  18
TORSDOF 8
ENDMDL
MODEL 6
REMARK VINA RESULT:      -6.7      2.575      7.550
REMARK  8 active torsions:
REMARK  status: ('A' for Active; 'I' for Inactive)
REMARK    1  A    between atoms: C2_2  and  C3_3 
REMARK    2  A    between atoms: C2_2  and  C9_10 
REMARK    3  A    between atoms: C3_3  and  N1_4 
REMARK    4  A    between atoms: C9_10  and  C10_12 
REMARK    5  A    between atoms: C13_15  and  O2_16 
REMARK    6  A    between atoms: O2_16  and  C14_17 
REMARK    7  A    between atoms: C14_17  and  C15_18 
REMARK    8  A    between atoms: C16_19  and  C17_20 
ROOT
HETATM    1  C10 UNL     1      22.380   0.312  52.782  1.00  0.00     0.015 A 
HETATM    2  C11 UNL     1      21.444   0.404  53.813  1.00  0.00     0.018 A 
HETATM    3  C12 UNL     1      20.071   0.448  53.544  1.00  0.00     0.038 A 
HETATM    4  C13 UNL     1      19.625   0.403  52.250  1.00  0.00     0.069 A 
HETATM    5  C21 UNL     1      20.507   0.313  51.205  1.00  0.00     0.038 A 
HETATM    6  C22 UNL     1      21.838   0.273  51.524  1.00  0.00     0.018 A 
ENDROOT
BRANCH   1   7
HETATM    7  C9  UNL     1      23.754   0.271  53.195  1.00  0.00     0.189 C 
HETATM    8  O1  UNL     1      24.034  -0.683  53.945  1.00  0.00    -0.287 OA
BRANCH   7   9
HETATM    9  C2  UNL     1      24.836   1.164  52.867  1.00  0.00     0.001 C 
HETATM   10  C1  UNL     1      24.669   2.432  53.140  1.00  0.00     0.024 C 
BRANCH   9  11
HETATM   11  C3  UNL     1      26.182   1.060  52.315  1.00  0.00     0.158 C 
BRANCH  11  12
HETATM   12  N1  UNL     1      27.181   0.730  53.226  1.00  0.00    -0.408 N 
HETATM   13  C4  UNL     1      27.452  -0.554  53.674  1.00  0.00     0.117 C 
HETATM   14  C5  UNL     1      28.800  -1.032  53.177  1.00  0.00     0.019 C 
HETATM   15  C6  UNL     1      29.914  -0.135  53.692  1.00  0.00     0.003 C 
HETATM   16  C7  UNL     1      29.387   1.176  54.200  1.00  0.00     0.019 C 
HETATM   17  C8  UNL     1      28.295   1.653  53.282  1.00  0.00     0.117 C 
ENDBRANCH  11  12
ENDBRANCH   9  11
ENDBRANCH   7   9
ENDBRANCH   1   7
BRANCH   4  18
HETATM   18  O2  UNL     1      18.267   0.446  51.978  1.00  0.00    -0.347 OA
BRANCH  18  19
HETATM   19  C14 UNL     1      17.750   1.304  50.989  1.00  0.00     0.203 C 
BRANCH  19  20
HETATM   20  C15 UNL     1      17.581   2.656  51.544  1.00  0.00    -0.000 C 
HETATM   21  C16 UNL     1      18.228   3.793  51.353  1.00  0.00    -0.001 C 
BRANCH  21  22
HETATM   22  C17 UNL     1      19.356   3.868  50.436  1.00  0.00     0.011 C 
HETATM   23  C18 UNL     1      20.569   3.900  50.951  1.00  0.00    -0.036 A 
HETATM   24  C19 UNL     1      21.254   3.885  52.257  1.00  0.00     0.012 A 
HETATM   25  C20 UNL     1      22.020   3.952  51.111  1.00  0.00     0.012 A 
ENDBRANCH  21  22
ENDBRANCH  19  20
ENDBRANCH  18  19
ENDBRANCH   4  18
TORSDOF 8
ENDMDL
MODEL 7
REMARK VINA RESULT:      -6.7      2.606      4.794
REMARK  8 active torsions:
REMARK  status: ('A' for Active; 'I' for Inactive)
REMARK    1  A    between atoms: C2_2  and  C3_3 
REMARK    2  A    between atoms: C2_2  and  C9_10 
REMARK    3  A    between atoms: C3_3  and  N1_4 
REMARK    4  A    between atoms: C9_10  and  C10_12 
REMARK    5  A    between atoms: C13_15  and  O2_16 
REMARK    6  A    between atoms: O2_16  and  C14_17 
REMARK    7  A    between atoms: C14_17  and  C15_18 
REMARK    8  A    between atoms: C16_19  and  C17_20 
ROOT
HETATM    1  C10 UNL     1      23.290   2.964  51.933  1.00  0.00     0.015 A 
HETATM    2  C11 UNL     1      23.973   2.434  50.839  1.00  0.00     0.018 A 
HETATM    3  C12 UNL     1      25.329   2.100  50.922  1.00  0.00     0.038 A 
HETATM    4  C13 UNL     1      26.011   2.292  52.094  1.00  0.00     0.069 A 
HETATM    5  C21 UNL     1      25.382   2.810  53.196  1.00  0.00     0.038 A 
HETATM    6  C22 UNL     1      24.055   3.119  53.060  1.00  0.00     0.018 A 
ENDROOT
BRANCH   1   7
HETATM    7  C9  UNL     1      21.903   3.259  51.715  1.00  0.00     0.189 C 
HETATM    8  O1  UNL     1      21.140   2.291  51.891  1.00  0.00    -0.287 OA
BRANCH   7   9
HETATM    9  C2  UNL     1      21.280   4.500  51.328  1.00  0.00     0.001 C 
HETATM   10  C1  UNL     1      20.036   4.444  50.925  1.00  0.00     0.024 C 
BRANCH   9  11
HETATM   11  C3  UNL     1      21.639   5.913  51.287  1.00  0.00     0.158 C 
BRANCH  11  12
HETATM   12  N1  UNL     1      22.640   6.251  50.382  1.00  0.00    -0.408 N 
HETATM   13  C4  UNL     1      23.863   6.808  50.724  1.00  0.00     0.117 C 
HETATM   14  C5  UNL     1      24.997   5.840  50.456  1.00  0.00     0.019 C 
HETATM   15  C6  UNL     1      25.065   5.486  48.979  1.00  0.00     0.003 C 
HETATM   16  C7  UNL     1      23.798   5.844  48.258  1.00  0.00     0.019 C 
HETATM   17  C8  UNL     1      22.624   5.511  49.138  1.00  0.00     0.117 C 
ENDBRANCH  11  12
ENDBRANCH   9  11
ENDBRANCH   7   9
ENDBRANCH   1   7
BRANCH   4  18
HETATM   18  O2  UNL     1      27.353   1.962  52.183  1.00  0.00    -0.347 OA
BRANCH  18  19
HETATM   19  C14 UNL     1      27.795   0.932  53.035  1.00  0.00     0.203 C 
BRANCH  19  20
HETATM   20  C15 UNL     1      27.256  -0.358  52.575  1.00  0.00    -0.000 C 
HETATM   21  C16 UNL     1      26.258  -1.116  52.995  1.00  0.00    -0.001 C 
BRANCH  21  22
HETATM   22  C17 UNL     1      25.442  -0.718  54.133  1.00  0.00     0.011 C 
HETATM   23  C18 UNL     1      24.151  -0.543  53.935  1.00  0.00    -0.036 A 
HETATM   24  C19 UNL     1      23.143  -0.616  52.862  1.00  0.00     0.012 A 
HETATM   25  C20 UNL     1      22.732  -0.257  54.130  1.00  0.00     0.012 A 
ENDBRANCH  21  22
ENDBRANCH  19  20
ENDBRANCH  18  19
ENDBRANCH   4  18
TORSDOF 8
ENDMDL
MODEL 8
REMARK VINA RESULT:      -6.6      3.366      6.416
REMARK  8 active torsions:
REMARK  status: ('A' for Active; 'I' for Inactive)
REMARK    1  A    between atoms: C2_2  and  C3_3 
REMARK    2  A    between atoms: C2_2  and  C9_10 
REMARK    3  A    between atoms: C3_3  and  N1_4 
REMARK    4  A    between atoms: C9_10  and  C10_12 
REMARK    5  A    between atoms: C13_15  and  O2_16 
REMARK    6  A    between atoms: O2_16  and  C14_17 
REMARK    7  A    between atoms: C14_17  and  C15_18 
REMARK    8  A    between atoms: C16_19  and  C17_20 
ROOT
HETATM    1  C10 UNL     1      24.501   3.746  50.607  1.00  0.00     0.015 A 
HETATM    2  C11 UNL     1      23.741   2.753  49.987  1.00  0.00     0.018 A 
HETATM    3  C12 UNL     1      22.489   2.379  50.487  1.00  0.00     0.038 A 
HETATM    4  C13 UNL     1      21.988   2.991  51.606  1.00  0.00     0.069 A 
HETATM    5  C21 UNL     1      22.697   3.971  52.248  1.00  0.00     0.038 A 
HETATM    6  C22 UNL     1      23.916   4.299  51.717  1.00  0.00     0.018 A 
ENDROOT
BRANCH   1   7
HETATM    7  C9  UNL     1      25.763   4.036  49.991  1.00  0.00     0.189 C 
HETATM    8  O1  UNL     1      26.516   3.050  49.881  1.00  0.00    -0.287 OA
BRANCH   7   9
HETATM    9  C2  UNL     1      26.273   5.287  49.490  1.00  0.00     0.001 C 
HETATM   10  C1  UNL     1      27.250   5.230  48.621  1.00  0.00     0.024 C 
BRANCH   9  11
HETATM   11  C3  UNL     1      25.973   6.706  49.645  1.00  0.00     0.158 C 
BRANCH  11  12
HETATM   12  N1  UNL     1      24.709   7.103  49.221  1.00  0.00    -0.408 N 
HETATM   13  C4  UNL     1      24.130   6.746  48.013  1.00  0.00     0.117 C 
HETATM   14  C5  UNL     1      22.941   5.832  48.227  1.00  0.00     0.019 C 
HETATM   15  C6  UNL     1      21.867   6.528  49.048  1.00  0.00     0.003 C 
HETATM   16  C7  UNL     1      22.402   7.739  49.756  1.00  0.00     0.019 C 
HETATM   17  C8  UNL     1      23.778   7.433  50.279  1.00  0.00     0.117 C 
ENDBRANCH  11  12
ENDBRANCH   9  11
ENDBRANCH   7   9
ENDBRANCH   1   7
BRANCH   4  18
HETATM   18  O2  UNL     1      20.748   2.626  52.105  1.00  0.00    -0.347 OA
BRANCH  18  19
HETATM   19  C14 UNL     1      20.417   1.273  52.312  1.00  0.00     0.203 C 
BRANCH  19  20
HETATM   20  C15 UNL     1      20.919   0.834  53.624  1.00  0.00    -0.000 C 
HETATM   21  C16 UNL     1      21.963   0.110  53.990  1.00  0.00    -0.001 C 
BRANCH  21  22
HETATM   22  C17 UNL     1      22.886  -0.426  53.001  1.00  0.00     0.011 C 
HETATM   23  C18 UNL     1      24.070   0.141  52.891  1.00  0.00    -0.036 A 
HETATM   24  C19 UNL     1      24.869   1.235  53.475  1.00  0.00     0.012 A 
HETATM   25  C20 UNL     1      25.430   0.472  52.471  1.00  0.00     0.012 A 
ENDBRANCH  21  22
ENDBRANCH  19  20
ENDBRANCH  18  19
ENDBRANCH   4  18
TORSDOF 8
ENDMDL
MODEL 9
REMARK VINA RESULT:      -6.6      2.150      4.295
REMARK  8 active torsions:
REMARK  status: ('A' for Active; 'I' for Inactive)
REMARK    1  A    between atoms: C2_2  and  C3_3 
REMARK    2  A    between atoms: C2_2  and  C9_10 
REMARK    3  A    between atoms: C3_3  and  N1_4 
REMARK    4  A    between atoms: C9_10  and  C10_12 
REMARK    5  A    between atoms: C13_15  and  O2_16 
REMARK    6  A    between atoms: O2_16  and  C14_17 
REMARK    7  A    between atoms: C14_17  and  C15_18 
REMARK    8  A    between atoms: C16_19  and  C17_20 
ROOT
HETATM    1  C10 UNL     1      24.803   3.028  50.867  1.00  0.00     0.015 A 
HETATM    2  C11 UNL     1      24.251   3.260  52.127  1.00  0.00     0.018 A 
HETATM    3  C12 UNL     1      24.910   2.856  53.293  1.00  0.00     0.038 A 
HETATM    4  C13 UNL     1      26.120   2.219  53.211  1.00  0.00     0.069 A 
HETATM    5  C21 UNL     1      26.701   1.969  51.995  1.00  0.00     0.038 A 
HETATM    6  C22 UNL     1      26.014   2.386  50.886  1.00  0.00     0.018 A 
ENDROOT
BRANCH   1   7
HETATM    7  C9  UNL     1      24.027   3.495  49.754  1.00  0.00     0.189 C 
HETATM    8  O1  UNL     1      24.542   4.445  49.136  1.00  0.00    -0.287 OA
BRANCH   7   9
HETATM    9  C2  UNL     1      22.757   3.026  49.261  1.00  0.00     0.001 C 
HETATM   10  C1  UNL     1      22.763   2.351  48.141  1.00  0.00     0.024 C 
BRANCH   9  11
HETATM   11  C3  UNL     1      21.364   3.049  49.694  1.00  0.00     0.158 C 
BRANCH  11  12
HETATM   12  N1  UNL     1      20.881   4.290  50.096  1.00  0.00    -0.408 N 
HETATM   13  C4  UNL     1      21.033   4.826  51.366  1.00  0.00     0.117 C 
HETATM   14  C5  UNL     1      21.944   6.036  51.341  1.00  0.00     0.019 C 
HETATM   15  C6  UNL     1      21.363   7.131  50.460  1.00  0.00     0.003 C 
HETATM   16  C7  UNL     1      20.288   6.607  49.552  1.00  0.00     0.019 C 
HETATM   17  C8  UNL     1      20.701   5.257  49.034  1.00  0.00     0.117 C 
ENDBRANCH  11  12
ENDBRANCH   9  11
ENDBRANCH   7   9
ENDBRANCH   1   7
BRANCH   4  18
HETATM   18  O2  UNL     1      26.777   1.817  54.362  1.00  0.00    -0.347 OA
BRANCH  18  19
HETATM   19  C14 UNL     1      27.130   0.470  54.567  1.00  0.00     0.203 C 
BRANCH  19  20
HETATM   20  C15 UNL     1      26.039  -0.228  55.268  1.00  0.00    -0.000 C 
HETATM   21  C16 UNL     1      24.920  -0.793  54.849  1.00  0.00    -0.001 C 
BRANCH  21  22
HETATM   22  C17 UNL     1      24.568  -0.803  53.437  1.00  0.00     0.011 C 
HETATM   23  C18 UNL     1      23.392  -0.317  53.092  1.00  0.00    -0.036 A 
HETATM   24  C19 UNL     1      22.190   0.292  53.690  1.00  0.00     0.012 A 
HETATM   25  C20 UNL     1      22.227   0.114  52.321  1.00  0.00     0.012 A 
ENDBRANCH  21  22
ENDBRANCH  19  20
ENDBRANCH  18  19
ENDBRANCH   4  18
TORSDOF 8
ENDMDL
