MODEL 1
REMARK VINA RESULT:      -7.0      0.000      0.000
REMARK  5 active torsions:
REMARK  status: ('A' for Active; 'I' for Inactive)
REMARK    1  A    between atoms: C2_2  and  C3_3 
REMARK    2  A    between atoms: C4_5  and  C5_6 
REMARK    3  A    between atoms: C6_7  and  N1_8 
REMARK    4  A    between atoms: N1_8  and  C7_9 
REMARK    5  A    between atoms: C16_21  and  O2_22 
ROOT
HETATM    1  C7  UNL     1      23.476   2.519  52.286  1.00  0.00     0.088 C 
HETATM    2  C8  UNL     1      24.136   2.721  53.608  1.00  0.00     0.024 C 
HETATM    3  C9  UNL     1      25.425   2.918  53.274  1.00  0.00     0.084 C 
HETATM    4  N2  UNL     1      25.655   2.869  51.849  1.00  0.00    -0.387 N 
HETATM    5  C10 UNL     1      26.839   2.454  51.151  1.00  0.00     0.149 C 
HETATM    6  C11 UNL     1      24.383   3.356  51.461  1.00  0.00     0.124 C 
HETATM    7  C12 UNL     1      24.162   3.527  50.037  1.00  0.00     0.058 C 
HETATM    8  C13 UNL     1      23.798   3.539  48.734  1.00  0.00     0.211 A 
HETATM    9  C14 UNL     1      22.711   2.698  48.189  1.00  0.00     0.145 A 
HETATM   10  O1  UNL     1      23.011   2.508  49.353  1.00  0.00    -0.323 OA
HETATM   11  N3  UNL     1      21.632   1.821  47.752  1.00  0.00    -0.370 N 
HETATM   12  C15 UNL     1      21.210   0.884  48.842  1.00  0.00     0.154 C 
HETATM   13  C16 UNL     1      20.748   1.617  50.047  1.00  0.00     0.068 C 
HETATM   14  C18 UNL     1      20.523   2.973  49.849  1.00  0.00     0.147 C 
HETATM   15  C19 UNL     1      20.106   4.148  50.663  1.00  0.00     0.092 C 
HETATM   16  N4  UNL     1      20.109   4.275  52.024  1.00  0.00    -0.296 NA
HETATM   17  C20 UNL     1      20.666   3.004  52.608  1.00  0.00     0.214 C 
HETATM   18  C21 UNL     1      22.048   2.987  52.332  1.00  0.00     0.091 C 
HETATM   19  C22 UNL     1      22.236   4.368  51.796  1.00  0.00     0.069 C 
HETATM   20  N5  UNL     1      22.367   5.474  51.376  1.00  0.00    -0.197 NA
HETATM   21  H18 UNL     1      21.882   2.446  46.956  1.00  0.00     0.161 HD
ENDROOT
BRANCH   1  22
HETATM   22  N1  UNL     1      23.598   1.089  52.096  1.00  0.00    -0.383 N 
HETATM   23  H9  UNL     1      23.850   0.365  51.404  1.00  0.00     0.160 HD
BRANCH  22  24
HETATM   24  C6  UNL     1      23.340   0.022  52.964  1.00  0.00     0.084 C 
HETATM   25  C5  UNL     1      24.216  -0.823  53.534  1.00  0.00     0.019 C 
BRANCH  25  26
HETATM   26  C4  UNL     1      25.636  -0.721  53.299  1.00  0.00     0.039 C 
HETATM   27  C3  UNL     1      26.487  -0.249  54.178  1.00  0.00     0.093 C 
HETATM   28  F1  UNL     1      25.996   0.170  55.388  1.00  0.00    -0.211 F 
BRANCH  27  29
HETATM   29  C2  UNL     1      27.954  -0.087  54.073  1.00  0.00     0.066 C 
HETATM   30  C1  UNL     1      28.569  -1.135  53.177  1.00  0.00     0.012 C 
ENDBRANCH  27  29
ENDBRANCH  25  26
ENDBRANCH  22  24
ENDBRANCH   1  22
BRANCH  13  31
HETATM   31  O2  UNL     1      20.758   0.446  50.900  1.00  0.00    -0.388 OA
HETATM   32  C17 UNL     1      19.522   0.017  51.441  1.00  0.00     0.202 C 
ENDBRANCH  13  31
TORSDOF 5
ENDMDL
MODEL 2
REMARK VINA RESULT:      -6.9      3.041      4.634
REMARK  5 active torsions:
REMARK  status: ('A' for Active; 'I' for Inactive)
REMARK    1  A    between atoms: C2_2  and  C3_3 
REMARK    2  A    between atoms: C4_5  and  C5_6 
REMARK    3  A    between atoms: C6_7  and  N1_8 
REMARK    4  A    between atoms: N1_8  and  C7_9 
REMARK    5  A    between atoms: C16_21  and  O2_22 
ROOT
HETATM    1  C7  UNL     1      22.725   3.234  51.361  1.00  0.00     0.088 C 
HETATM    2  C8  UNL     1      23.664   3.103  52.512  1.00  0.00     0.024 C 
HETATM    3  C9  UNL     1      23.951   4.383  52.813  1.00  0.00     0.084 C 
HETATM    4  N2  UNL     1      23.271   5.331  51.962  1.00  0.00    -0.387 N 
HETATM    5  C10 UNL     1      23.706   6.639  51.561  1.00  0.00     0.149 C 
HETATM    6  C11 UNL     1      22.122   4.540  51.721  1.00  0.00     0.124 C 
HETATM    7  C12 UNL     1      21.083   5.141  50.904  1.00  0.00     0.058 C 
HETATM    8  C13 UNL     1      20.152   5.537  50.006  1.00  0.00     0.211 A 
HETATM    9  C14 UNL     1      19.884   4.812  48.745  1.00  0.00     0.145 A 
HETATM   10  O1  UNL     1      20.823   4.415  49.410  1.00  0.00    -0.323 OA
HETATM   11  N3  UNL     1      19.707   4.032  47.527  1.00  0.00    -0.370 N 
HETATM   12  C15 UNL     1      20.759   2.974  47.393  1.00  0.00     0.154 C 
HETATM   13  C16 UNL     1      20.746   2.040  48.545  1.00  0.00     0.068 C 
HETATM   14  C18 UNL     1      19.621   2.133  49.355  1.00  0.00     0.147 C 
HETATM   15  C19 UNL     1      19.109   1.502  50.602  1.00  0.00     0.092 C 
HETATM   16  N4  UNL     1      19.810   0.792  51.537  1.00  0.00    -0.296 NA
HETATM   17  C20 UNL     1      21.257   0.779  51.122  1.00  0.00     0.214 C 
HETATM   18  C21 UNL     1      21.764   2.078  51.329  1.00  0.00     0.091 C 
HETATM   19  C22 UNL     1      20.624   2.701  52.065  1.00  0.00     0.069 C 
HETATM   20  N5  UNL     1      19.706   3.179  52.654  1.00  0.00    -0.197 NA
HETATM   21  H18 UNL     1      18.950   4.748  47.565  1.00  0.00     0.161 HD
ENDROOT
BRANCH   1  22
HETATM   22  N1  UNL     1      23.627   3.252  50.228  1.00  0.00    -0.383 N 
HETATM   23  H9  UNL     1      23.727   3.585  49.256  1.00  0.00     0.160 HD
BRANCH  22  24
HETATM   24  C6  UNL     1      24.897   2.690  50.056  1.00  0.00     0.084 C 
HETATM   25  C5  UNL     1      26.030   3.291  49.655  1.00  0.00     0.019 C 
BRANCH  25  26
HETATM   26  C4  UNL     1      26.073   4.695  49.330  1.00  0.00     0.039 C 
HETATM   27  C3  UNL     1      27.075   5.269  48.707  1.00  0.00     0.093 C 
HETATM   28  F1  UNL     1      28.141   4.485  48.346  1.00  0.00    -0.211 F 
BRANCH  27  29
HETATM   29  C2  UNL     1      27.251   6.684  48.314  1.00  0.00     0.066 C 
HETATM   30  C1  UNL     1      25.943   7.316  47.899  1.00  0.00     0.012 C 
ENDBRANCH  27  29
ENDBRANCH  25  26
ENDBRANCH  22  24
ENDBRANCH   1  22
BRANCH  13  31
HETATM   31  O2  UNL     1      22.023   1.439  48.216  1.00  0.00    -0.388 OA
HETATM   32  C17 UNL     1      22.787   2.043  47.188  1.00  0.00     0.202 C 
ENDBRANCH  13  31
TORSDOF 5
ENDMDL
MODEL 3
REMARK VINA RESULT:      -6.7      1.763      4.283
REMARK  5 active torsions:
REMARK  status: ('A' for Active; 'I' for Inactive)
REMARK    1  A    between atoms: C2_2  and  C3_3 
REMARK    2  A    between atoms: C4_5  and  C5_6 
REMARK    3  A    between atoms: C6_7  and  N1_8 
REMARK    4  A    between atoms: N1_8  and  C7_9 
REMARK    5  A    between atoms: C16_21  and  O2_22 
ROOT
HETATM    1  C7  UNL     1      21.913   1.739  50.169  1.00  0.00     0.088 C 
HETATM    2  C8  UNL     1      21.270   0.395  50.102  1.00  0.00     0.024 C 
HETATM    3  C9  UNL     1      20.513   0.368  51.215  1.00  0.00     0.084 C 
HETATM    4  N2  UNL     1      20.604   1.581  51.992  1.00  0.00    -0.387 N 
HETATM    5  C10 UNL     1      20.469   1.741  53.413  1.00  0.00     0.149 C 
HETATM    6  C11 UNL     1      20.840   2.455  50.904  1.00  0.00     0.124 C 
HETATM    7  C12 UNL     1      20.958   3.867  51.221  1.00  0.00     0.058 C 
HETATM    8  C13 UNL     1      21.269   5.165  51.438  1.00  0.00     0.211 A 
HETATM    9  C14 UNL     1      22.587   5.749  51.105  1.00  0.00     0.145 A 
HETATM   10  O1  UNL     1      22.475   4.545  50.964  1.00  0.00    -0.323 OA
HETATM   11  N3  UNL     1      23.919   6.221  50.749  1.00  0.00    -0.370 N 
HETATM   12  C15 UNL     1      24.815   5.089  50.348  1.00  0.00     0.154 C 
HETATM   13  C16 UNL     1      24.267   4.341  49.190  1.00  0.00     0.068 C 
HETATM   14  C18 UNL     1      23.221   4.975  48.532  1.00  0.00     0.147 C 
HETATM   15  C19 UNL     1      22.312   4.696  47.387  1.00  0.00     0.092 C 
HETATM   16  N4  UNL     1      22.048   3.493  46.794  1.00  0.00    -0.296 NA
HETATM   17  C20 UNL     1      22.816   2.431  47.535  1.00  0.00     0.214 C 
HETATM   18  C21 UNL     1      22.193   2.261  48.788  1.00  0.00     0.091 C 
HETATM   19  C22 UNL     1      20.964   3.086  48.594  1.00  0.00     0.069 C 
HETATM   20  N5  UNL     1      19.987   3.744  48.420  1.00  0.00    -0.197 NA
HETATM   21  H18 UNL     1      23.344   7.048  51.018  1.00  0.00     0.161 HD
ENDROOT
BRANCH   1  22
HETATM   22  N1  UNL     1      23.116   1.468  50.928  1.00  0.00    -0.383 N 
HETATM   23  H9  UNL     1      23.956   0.869  50.960  1.00  0.00     0.160 HD
BRANCH  22  24
HETATM   24  C6  UNL     1      23.605   2.038  52.108  1.00  0.00     0.084 C 
HETATM   25  C5  UNL     1      24.737   1.745  52.773  1.00  0.00     0.019 C 
BRANCH  25  26
HETATM   26  C4  UNL     1      25.650   0.729  52.310  1.00  0.00     0.039 C 
HETATM   27  C3  UNL     1      25.918  -0.368  52.976  1.00  0.00     0.093 C 
HETATM   28  F1  UNL     1      25.292  -0.557  54.182  1.00  0.00    -0.211 F 
BRANCH  27  29
HETATM   29  C2  UNL     1      26.824  -1.483  52.625  1.00  0.00     0.066 C 
HETATM   30  C1  UNL     1      28.229  -1.239  53.123  1.00  0.00     0.012 C 
ENDBRANCH  27  29
ENDBRANCH  25  26
ENDBRANCH  22  24
ENDBRANCH   1  22
BRANCH  13  31
HETATM   31  O2  UNL     1      25.182   3.227  49.333  1.00  0.00    -0.388 OA
HETATM   32  C17 UNL     1      26.475   3.501  49.844  1.00  0.00     0.202 C 
ENDBRANCH  13  31
TORSDOF 5
ENDMDL
MODEL 4
REMARK VINA RESULT:      -6.7      2.099      4.945
REMARK  5 active torsions:
REMARK  status: ('A' for Active; 'I' for Inactive)
REMARK    1  A    between atoms: C2_2  and  C3_3 
REMARK    2  A    between atoms: C4_5  and  C5_6 
REMARK    3  A    between atoms: C6_7  and  N1_8 
REMARK    4  A    between atoms: N1_8  and  C7_9 
REMARK    5  A    between atoms: C16_21  and  O2_22 
ROOT
HETATM    1  C7  UNL     1      19.814   1.953  50.758  1.00  0.00     0.088 C 
HETATM    2  C8  UNL     1      19.030   0.687  50.682  1.00  0.00     0.024 C 
HETATM    3  C9  UNL     1      17.763   1.107  50.860  1.00  0.00     0.084 C 
HETATM    4  N2  UNL     1      17.659   2.536  51.036  1.00  0.00    -0.387 N 
HETATM    5  C10 UNL     1      16.684   3.272  51.790  1.00  0.00     0.149 C 
HETATM    6  C11 UNL     1      18.778   2.881  50.240  1.00  0.00     0.124 C 
HETATM    7  C12 UNL     1      19.047   4.298  50.081  1.00  0.00     0.058 C 
HETATM    8  C13 UNL     1      19.487   5.576  50.031  1.00  0.00     0.211 A 
HETATM    9  C14 UNL     1      20.798   6.003  50.569  1.00  0.00     0.145 A 
HETATM   10  O1  UNL     1      20.475   4.848  50.778  1.00  0.00    -0.323 OA
HETATM   11  N3  UNL     1      22.101   6.320  51.137  1.00  0.00    -0.370 N 
HETATM   12  C15 UNL     1      22.680   5.150  51.872  1.00  0.00     0.154 C 
HETATM   13  C16 UNL     1      22.838   3.970  50.985  1.00  0.00     0.068 C 
HETATM   14  C18 UNL     1      22.705   4.242  49.630  1.00  0.00     0.147 C 
HETATM   15  C19 UNL     1      22.730   3.483  48.349  1.00  0.00     0.092 C 
HETATM   16  N4  UNL     1      22.594   2.136  48.165  1.00  0.00    -0.296 NA
HETATM   17  C20 UNL     1      22.359   1.503  49.511  1.00  0.00     0.214 C 
HETATM   18  C21 UNL     1      21.056   1.856  49.917  1.00  0.00     0.091 C 
HETATM   19  C22 UNL     1      20.543   2.490  48.666  1.00  0.00     0.069 C 
HETATM   20  N5  UNL     1      20.150   2.987  47.658  1.00  0.00    -0.197 NA
HETATM   21  H18 UNL     1      21.751   7.167  50.641  1.00  0.00     0.161 HD
ENDROOT
BRANCH   1  22
HETATM   22  N1  UNL     1      20.095   2.058  52.175  1.00  0.00    -0.383 N 
HETATM   23  H9  UNL     1      20.447   2.699  52.903  1.00  0.00     0.160 HD
BRANCH  22  24
HETATM   24  C6  UNL     1      19.970   1.121  53.206  1.00  0.00     0.084 C 
HETATM   25  C5  UNL     1      20.883   0.240  53.651  1.00  0.00     0.019 C 
BRANCH  25  26
HETATM   26  C4  UNL     1      22.201   0.152  53.072  1.00  0.00     0.039 C 
HETATM   27  C3  UNL     1      23.235  -0.367  53.690  1.00  0.00     0.093 C 
HETATM   28  F1  UNL     1      23.049  -0.852  54.959  1.00  0.00    -0.211 F 
BRANCH  27  29
HETATM   29  C2  UNL     1      24.630  -0.520  53.222  1.00  0.00     0.066 C 
HETATM   30  C1  UNL     1      25.624  -0.189  54.309  1.00  0.00     0.012 C 
ENDBRANCH  27  29
ENDBRANCH  25  26
ENDBRANCH  22  24
ENDBRANCH   1  22
BRANCH  13  31
HETATM   31  O2  UNL     1      23.082   3.045  52.073  1.00  0.00    -0.388 OA
HETATM   32  C17 UNL     1      24.127   3.355  52.978  1.00  0.00     0.202 C 
ENDBRANCH  13  31
TORSDOF 5
ENDMDL
MODEL 5
REMARK VINA RESULT:      -6.6      2.074      3.125
REMARK  5 active torsions:
REMARK  status: ('A' for Active; 'I' for Inactive)
REMARK    1  A    between atoms: C2_2  and  C3_3 
REMARK    2  A    between atoms: C4_5  and  C5_6 
REMARK    3  A    between atoms: C6_7  and  N1_8 
REMARK    4  A    between atoms: N1_8  and  C7_9 
REMARK    5  A    between atoms: C16_21  and  O2_22 
ROOT
HETATM    1  C7  UNL     1      23.148   4.949  50.220  1.00  0.00     0.088 C 
HETATM    2  C8  UNL     1      24.165   5.984  50.562  1.00  0.00     0.024 C 
HETATM    3  C9  UNL     1      25.317   5.421  50.152  1.00  0.00     0.084 C 
HETATM    4  N2  UNL     1      25.132   4.114  49.567  1.00  0.00    -0.387 N 
HETATM    5  C10 UNL     1      26.043   3.004  49.558  1.00  0.00     0.149 C 
HETATM    6  C11 UNL     1      23.834   4.349  49.050  1.00  0.00     0.124 C 
HETATM    7  C12 UNL     1      23.231   3.263  48.298  1.00  0.00     0.058 C 
HETATM    8  C13 UNL     1      22.517   2.254  47.751  1.00  0.00     0.211 A 
HETATM    9  C14 UNL     1      21.270   1.728  48.348  1.00  0.00     0.145 A 
HETATM   10  O1  UNL     1      21.875   2.560  48.999  1.00  0.00    -0.323 OA
HETATM   11  N3  UNL     1      20.060   1.278  49.024  1.00  0.00    -0.370 N 
HETATM   12  C15 UNL     1      19.905   1.926  50.366  1.00  0.00     0.154 C 
HETATM   13  C16 UNL     1      19.849   3.405  50.256  1.00  0.00     0.068 C 
HETATM   14  C18 UNL     1      19.660   3.884  48.966  1.00  0.00     0.147 C 
HETATM   15  C19 UNL     1      19.563   5.206  48.288  1.00  0.00     0.092 C 
HETATM   16  N4  UNL     1      19.958   6.426  48.760  1.00  0.00    -0.296 NA
HETATM   17  C20 UNL     1      20.578   6.222  50.117  1.00  0.00     0.214 C 
HETATM   18  C21 UNL     1      21.822   5.591  49.918  1.00  0.00     0.091 C 
HETATM   19  C22 UNL     1      21.936   5.675  48.431  1.00  0.00     0.069 C 
HETATM   20  N5  UNL     1      22.011   5.755  47.246  1.00  0.00    -0.197 NA
HETATM   21  H18 UNL     1      20.113   0.796  48.101  1.00  0.00     0.161 HD
ENDROOT
BRANCH   1  22
HETATM   22  N1  UNL     1      23.123   4.134  51.417  1.00  0.00    -0.383 N 
HETATM   23  H9  UNL     1      22.872   3.200  51.776  1.00  0.00     0.160 HD
BRANCH  22  24
HETATM   24  C6  UNL     1      23.488   4.428  52.735  1.00  0.00     0.084 C 
HETATM   25  C5  UNL     1      24.339   3.762  53.536  1.00  0.00     0.019 C 
BRANCH  25  26
HETATM   26  C4  UNL     1      25.028   2.575  53.094  1.00  0.00     0.039 C 
HETATM   27  C3  UNL     1      24.492   1.378  53.096  1.00  0.00     0.093 C 
HETATM   28  F1  UNL     1      23.202   1.252  53.544  1.00  0.00    -0.211 F 
BRANCH  27  29
HETATM   29  C2  UNL     1      25.076   0.086  52.676  1.00  0.00     0.066 C 
HETATM   30  C1  UNL     1      26.474   0.256  52.128  1.00  0.00     0.012 C 
ENDBRANCH  27  29
ENDBRANCH  25  26
ENDBRANCH  22  24
ENDBRANCH   1  22
BRANCH  13  31
HETATM   31  O2  UNL     1      20.027   3.628  51.677  1.00  0.00    -0.388 OA
HETATM   32  C17 UNL     1      20.166   2.490  52.508  1.00  0.00     0.202 C 
ENDBRANCH  13  31
TORSDOF 5
ENDMDL
MODEL 6
REMARK VINA RESULT:      -6.6      8.448     10.564
REMARK  5 active torsions:
REMARK  status: ('A' for Active; 'I' for Inactive)
REMARK    1  A    between atoms: C2_2  and  C3_3 
REMARK    2  A    between atoms: C4_5  and  C5_6 
REMARK    3  A    between atoms: C6_7  and  N1_8 
REMARK    4  A    between atoms: N1_8  and  C7_9 
REMARK    5  A    between atoms: C16_21  and  O2_22 
ROOT
HETATM    1  C7  UNL     1      30.706   8.782  48.261  1.00  0.00     0.088 C 
HETATM    2  C8  UNL     1      31.342   8.080  49.413  1.00  0.00     0.024 C 
HETATM    3  C9  UNL     1      32.639   8.027  49.055  1.00  0.00     0.084 C 
HETATM    4  N2  UNL     1      32.899   8.642  47.775  1.00  0.00    -0.387 N 
HETATM    5  C10 UNL     1      33.915   8.311  46.816  1.00  0.00     0.149 C 
HETATM    6  C11 UNL     1      31.866   9.609  47.845  1.00  0.00     0.124 C 
HETATM    7  C12 UNL     1      31.770  10.536  46.732  1.00  0.00     0.058 C 
HETATM    8  C13 UNL     1      31.483  11.314  45.664  1.00  0.00     0.211 A 
HETATM    9  C14 UNL     1      30.206  11.232  44.921  1.00  0.00     0.145 A 
HETATM   10  O1  UNL     1      30.383  10.399  45.791  1.00  0.00    -0.323 OA
HETATM   11  N3  UNL     1      28.922  11.062  44.253  1.00  0.00    -0.370 N 
HETATM   12  C15 UNL     1      28.178   9.876  44.785  1.00  0.00     0.154 C 
HETATM   13  C16 UNL     1      27.927   9.995  46.242  1.00  0.00     0.068 C 
HETATM   14  C18 UNL     1      28.156  11.259  46.769  1.00  0.00     0.147 C 
HETATM   15  C19 UNL     1      28.104  11.921  48.102  1.00  0.00     0.092 C 
HETATM   16  N4  UNL     1      28.093  11.332  49.335  1.00  0.00    -0.296 NA
HETATM   17  C20 UNL     1      28.189   9.842  49.140  1.00  0.00     0.214 C 
HETATM   18  C21 UNL     1      29.503   9.559  48.715  1.00  0.00     0.091 C 
HETATM   19  C22 UNL     1      30.144  10.894  48.909  1.00  0.00     0.069 C 
HETATM   20  N5  UNL     1      30.640  11.963  49.075  1.00  0.00    -0.197 NA
HETATM   21  H18 UNL     1      29.392  11.898  43.844  1.00  0.00     0.161 HD
ENDROOT
BRANCH   1  22
HETATM   22  N1  UNL     1      30.372   7.685  47.377  1.00  0.00    -0.383 N 
HETATM   23  H9  UNL     1      30.018   7.461  46.434  1.00  0.00     0.160 HD
BRANCH  22  24
HETATM   24  C6  UNL     1      30.415   6.300  47.576  1.00  0.00     0.084 C 
HETATM   25  C5  UNL     1      29.439   5.488  48.019  1.00  0.00     0.019 C 
BRANCH  25  26
HETATM   26  C4  UNL     1      28.133   5.989  48.368  1.00  0.00     0.039 C 
HETATM   27  C3  UNL     1      27.129   5.221  48.722  1.00  0.00     0.093 C 
HETATM   28  F1  UNL     1      27.339   3.867  48.762  1.00  0.00    -0.211 F 
BRANCH  27  29
HETATM   29  C2  UNL     1      25.749   5.595  49.102  1.00  0.00     0.066 C 
HETATM   30  C1  UNL     1      25.714   6.888  49.882  1.00  0.00     0.012 C 
ENDBRANCH  27  29
ENDBRANCH  25  26
ENDBRANCH  22  24
ENDBRANCH   1  22
BRANCH  13  31
HETATM   31  O2  UNL     1      27.527   8.611  46.400  1.00  0.00    -0.388 OA
HETATM   32  C17 UNL     1      26.141   8.320  46.364  1.00  0.00     0.202 C 
ENDBRANCH  13  31
TORSDOF 5
ENDMDL
MODEL 7
REMARK VINA RESULT:      -6.6      9.179     11.265
REMARK  5 active torsions:
REMARK  status: ('A' for Active; 'I' for Inactive)
REMARK    1  A    between atoms: C2_2  and  C3_3 
REMARK    2  A    between atoms: C4_5  and  C5_6 
REMARK    3  A    between atoms: C6_7  and  N1_8 
REMARK    4  A    between atoms: N1_8  and  C7_9 
REMARK    5  A    between atoms: C16_21  and  O2_22 
ROOT
HETATM    1  C7  UNL     1      32.294   8.354  47.551  1.00  0.00     0.088 C 
HETATM    2  C8  UNL     1      33.673   8.190  48.093  1.00  0.00     0.024 C 
HETATM    3  C9  UNL     1      34.411   7.996  46.984  1.00  0.00     0.084 C 
HETATM    4  N2  UNL     1      33.630   8.028  45.770  1.00  0.00    -0.387 N 
HETATM    5  C10 UNL     1      33.868   7.331  44.538  1.00  0.00     0.149 C 
HETATM    6  C11 UNL     1      32.647   8.937  46.233  1.00  0.00     0.124 C 
HETATM    7  C12 UNL     1      31.621   9.321  45.280  1.00  0.00     0.058 C 
HETATM    8  C13 UNL     1      30.527   9.588  44.532  1.00  0.00     0.211 A 
HETATM    9  C14 UNL     1      29.156   9.206  44.936  1.00  0.00     0.145 A 
HETATM   10  O1  UNL     1      30.062   8.806  45.644  1.00  0.00    -0.323 OA
HETATM   11  N3  UNL     1      27.851   8.774  45.422  1.00  0.00    -0.370 N 
HETATM   12  C15 UNL     1      27.975   7.913  46.641  1.00  0.00     0.154 C 
HETATM   13  C16 UNL     1      28.666   8.622  47.745  1.00  0.00     0.068 C 
HETATM   14  C18 UNL     1      28.803   9.992  47.559  1.00  0.00     0.147 C 
HETATM   15  C19 UNL     1      29.408  11.144  48.281  1.00  0.00     0.092 C 
HETATM   16  N4  UNL     1      30.334  11.117  49.286  1.00  0.00    -0.296 NA
HETATM   17  C20 UNL     1      30.705   9.680  49.539  1.00  0.00     0.214 C 
HETATM   18  C21 UNL     1      31.478   9.248  48.442  1.00  0.00     0.091 C 
HETATM   19  C22 UNL     1      31.690  10.544  47.731  1.00  0.00     0.069 C 
HETATM   20  N5  UNL     1      31.852  11.588  47.181  1.00  0.00    -0.197 NA
HETATM   21  H18 UNL     1      27.702   9.368  44.577  1.00  0.00     0.161 HD
ENDROOT
BRANCH   1  22
HETATM   22  N1  UNL     1      31.810   6.989  47.522  1.00  0.00    -0.383 N 
HETATM   23  H9  UNL     1      31.285   6.310  46.949  1.00  0.00     0.160 HD
BRANCH  22  24
HETATM   24  C6  UNL     1      31.906   5.961  48.466  1.00  0.00     0.084 C 
HETATM   25  C5  UNL     1      32.553   4.787  48.362  1.00  0.00     0.019 C 
BRANCH  25  26
HETATM   26  C4  UNL     1      33.280   4.423  47.171  1.00  0.00     0.039 C 
HETATM   27  C3  UNL     1      34.372   3.695  47.178  1.00  0.00     0.093 C 
HETATM   28  F1  UNL     1      34.845   3.258  48.389  1.00  0.00    -0.211 F 
BRANCH  27  29
HETATM   29  C2  UNL     1      35.212   3.250  46.045  1.00  0.00     0.066 C 
HETATM   30  C1  UNL     1      34.941   4.057  44.798  1.00  0.00     0.012 C 
ENDBRANCH  27  29
ENDBRANCH  25  26
ENDBRANCH  22  24
ENDBRANCH   1  22
BRANCH  13  31
HETATM   31  O2  UNL     1      28.864   7.427  48.540  1.00  0.00    -0.388 OA
HETATM   32  C17 UNL     1      28.151   6.262  48.161  1.00  0.00     0.202 C 
ENDBRANCH  13  31
TORSDOF 5
ENDMDL
MODEL 8
REMARK VINA RESULT:      -6.5      8.876     10.753
REMARK  5 active torsions:
REMARK  status: ('A' for Active; 'I' for Inactive)
REMARK    1  A    between atoms: C2_2  and  C3_3 
REMARK    2  A    between atoms: C4_5  and  C5_6 
REMARK    3  A    between atoms: C6_7  and  N1_8 
REMARK    4  A    between atoms: N1_8  and  C7_9 
REMARK    5  A    between atoms: C16_21  and  O2_22 
ROOT
HETATM    1  C7  UNL     1      30.709   8.735  48.280  1.00  0.00     0.088 C 
HETATM    2  C8  UNL     1      31.386   8.086  49.439  1.00  0.00     0.024 C 
HETATM    3  C9  UNL     1      32.668   8.011  49.036  1.00  0.00     0.084 C 
HETATM    4  N2  UNL     1      32.882   8.564  47.719  1.00  0.00    -0.387 N 
HETATM    5  C10 UNL     1      33.861   8.184  46.741  1.00  0.00     0.149 C 
HETATM    6  C11 UNL     1      31.854   9.537  47.783  1.00  0.00     0.124 C 
HETATM    7  C12 UNL     1      31.719  10.411  46.631  1.00  0.00     0.058 C 
HETATM    8  C13 UNL     1      31.394  11.139  45.539  1.00  0.00     0.211 A 
HETATM    9  C14 UNL     1      30.090  11.026  44.848  1.00  0.00     0.145 A 
HETATM   10  O1  UNL     1      30.297  10.235  45.750  1.00  0.00    -0.323 OA
HETATM   11  N3  UNL     1      28.782  10.830  44.238  1.00  0.00    -0.370 N 
HETATM   12  C15 UNL     1      28.055   9.673  44.852  1.00  0.00     0.154 C 
HETATM   13  C16 UNL     1      27.859   9.862  46.310  1.00  0.00     0.068 C 
HETATM   14  C18 UNL     1      28.110  11.149  46.768  1.00  0.00     0.147 C 
HETATM   15  C19 UNL     1      28.110  11.873  48.069  1.00  0.00     0.092 C 
HETATM   16  N4  UNL     1      28.143  11.343  49.328  1.00  0.00    -0.296 NA
HETATM   17  C20 UNL     1      28.229   9.845  49.201  1.00  0.00     0.214 C 
HETATM   18  C21 UNL     1      29.525   9.538  48.741  1.00  0.00     0.091 C 
HETATM   19  C22 UNL     1      30.177  10.877  48.848  1.00  0.00     0.069 C 
HETATM   20  N5  UNL     1      30.680  11.952  48.944  1.00  0.00    -0.197 NA
HETATM   21  H18 UNL     1      29.238  11.645  43.772  1.00  0.00     0.161 HD
ENDROOT
BRANCH   1  22
HETATM   22  N1  UNL     1      30.340   7.599  47.462  1.00  0.00    -0.383 N 
HETATM   23  H9  UNL     1      30.320   7.251  46.491  1.00  0.00     0.160 HD
BRANCH  22  24
HETATM   24  C6  UNL     1      29.755   6.374  47.803  1.00  0.00     0.084 C 
HETATM   25  C5  UNL     1      30.308   5.149  47.786  1.00  0.00     0.019 C 
BRANCH  25  26
HETATM   26  C4  UNL     1      31.677   4.938  47.384  1.00  0.00     0.039 C 
HETATM   27  C3  UNL     1      32.103   3.847  46.794  1.00  0.00     0.093 C 
HETATM   28  F1  UNL     1      31.192   2.852  46.547  1.00  0.00    -0.211 F 
BRANCH  27  29
HETATM   29  C2  UNL     1      33.464   3.498  46.332  1.00  0.00     0.066 C 
HETATM   30  C1  UNL     1      34.376   3.156  47.487  1.00  0.00     0.012 C 
ENDBRANCH  27  29
ENDBRANCH  25  26
ENDBRANCH  22  24
ENDBRANCH   1  22
BRANCH  13  31
HETATM   31  O2  UNL     1      27.462   8.489  46.548  1.00  0.00    -0.388 OA
HETATM   32  C17 UNL     1      26.076   8.213  46.643  1.00  0.00     0.202 C 
ENDBRANCH  13  31
TORSDOF 5
ENDMDL
MODEL 9
REMARK VINA RESULT:      -6.3      9.547     11.441
REMARK  5 active torsions:
REMARK  status: ('A' for Active; 'I' for Inactive)
REMARK    1  A    between atoms: C2_2  and  C3_3 
REMARK    2  A    between atoms: C4_5  and  C5_6 
REMARK    3  A    between atoms: C6_7  and  N1_8 
REMARK    4  A    between atoms: N1_8  and  C7_9 
REMARK    5  A    between atoms: C16_21  and  O2_22 
ROOT
HETATM    1  C7  UNL     1      29.986   8.011  47.394  1.00  0.00     0.088 C 
HETATM    2  C8  UNL     1      29.983   6.520  47.423  1.00  0.00     0.024 C 
HETATM    3  C9  UNL     1      30.986   6.233  48.273  1.00  0.00     0.084 C 
HETATM    4  N2  UNL     1      31.633   7.410  48.804  1.00  0.00    -0.387 N 
HETATM    5  C10 UNL     1      32.999   7.566  49.218  1.00  0.00     0.149 C 
HETATM    6  C11 UNL     1      30.495   8.252  48.767  1.00  0.00     0.124 C 
HETATM    7  C12 UNL     1      30.670   9.599  49.278  1.00  0.00     0.058 C 
HETATM    8  C13 UNL     1      30.783  10.919  49.555  1.00  0.00     0.211 A 
HETATM    9  C14 UNL     1      30.559  11.979  48.548  1.00  0.00     0.145 A 
HETATM   10  O1  UNL     1      30.536  10.831  48.142  1.00  0.00    -0.323 OA
HETATM   11  N3  UNL     1      30.327  12.942  47.479  1.00  0.00    -0.370 N 
HETATM   12  C15 UNL     1      30.168  12.265  46.153  1.00  0.00     0.154 C 
HETATM   13  C16 UNL     1      29.037  11.304  46.160  1.00  0.00     0.068 C 
HETATM   14  C18 UNL     1      28.186  11.418  47.252  1.00  0.00     0.147 C 
HETATM   15  C19 UNL     1      26.972  10.735  47.775  1.00  0.00     0.092 C 
HETATM   16  N4  UNL     1      26.485   9.504  47.434  1.00  0.00    -0.296 NA
HETATM   17  C20 UNL     1      27.428   8.890  46.434  1.00  0.00     0.214 C 
HETATM   18  C21 UNL     1      28.603   8.537  47.129  1.00  0.00     0.091 C 
HETATM   19  C22 UNL     1      28.166   8.769  48.538  1.00  0.00     0.069 C 
HETATM   20  N5  UNL     1      27.798   8.956  49.655  1.00  0.00    -0.197 NA
HETATM   21  H18 UNL     1      30.429  13.469  48.373  1.00  0.00     0.161 HD
ENDROOT
BRANCH   1  22
HETATM   22  N1  UNL     1      30.916   8.297  46.322  1.00  0.00    -0.383 N 
HETATM   23  H9  UNL     1      31.728   8.880  46.065  1.00  0.00     0.160 HD
BRANCH  22  24
HETATM   24  C6  UNL     1      31.010   7.779  45.026  1.00  0.00     0.084 C 
HETATM   25  C5  UNL     1      31.986   7.020  44.496  1.00  0.00     0.019 C 
BRANCH  25  26
HETATM   26  C4  UNL     1      33.139   6.620  45.264  1.00  0.00     0.039 C 
HETATM   27  C3  UNL     1      33.346   5.394  45.683  1.00  0.00     0.093 C 
HETATM   28  F1  UNL     1      32.409   4.442  45.373  1.00  0.00    -0.211 F 
BRANCH  27  29
HETATM   29  C2  UNL     1      34.472   4.848  46.471  1.00  0.00     0.066 C 
HETATM   30  C1  UNL     1      35.045   3.603  45.838  1.00  0.00     0.012 C 
ENDBRANCH  27  29
ENDBRANCH  25  26
ENDBRANCH  22  24
ENDBRANCH   1  22
BRANCH  13  31
HETATM   31  O2  UNL     1      29.416  10.677  44.910  1.00  0.00    -0.388 OA
HETATM   32  C17 UNL     1      30.359  11.352  44.096  1.00  0.00     0.202 C 
ENDBRANCH  13  31
TORSDOF 5
ENDMDL
