MODEL 1
REMARK VINA RESULT:      -8.8      0.000      0.000
REMARK  6 active torsions:
REMARK  status: ('A' for Active; 'I' for Inactive)
REMARK    1  A    between atoms: C2_2  and  C3_4 
REMARK    2  A    between atoms: C4_5  and  C5_6 
REMARK    3  A    between atoms: C6_7  and  N1_8 
REMARK    4  A    between atoms: N1_8  and  C7_9 
REMARK    5  A    between atoms: C12_16  and  C13_17 
REMARK    6  A    between atoms: C16_20  and  O1_21 
ROOT
HETATM    1  C7  UNL     1      21.184   0.329  51.413  1.00  0.00     0.141 A 
HETATM    2  N2  UNL     1      19.862   0.306  51.349  1.00  0.00    -0.224 NA
HETATM    3  C8  UNL     1      19.120  -0.128  52.388  1.00  0.00     0.236 A 
HETATM    4  N3  UNL     1      19.763  -0.548  53.517  1.00  0.00    -0.241 NA
HETATM    5  C9  UNL     1      21.112  -0.530  53.598  1.00  0.00     0.072 A 
HETATM    6  C10 UNL     1      21.763  -0.960  54.758  1.00  0.00     0.033 A 
HETATM    7  C11 UNL     1      23.144  -0.932  54.818  1.00  0.00     0.014 A 
HETATM    8  C12 UNL     1      23.925  -0.492  53.769  1.00  0.00    -0.029 A 
HETATM    9  C19 UNL     1      23.237  -0.079  52.647  1.00  0.00     0.029 A 
HETATM   10  C20 UNL     1      21.865  -0.086  52.533  1.00  0.00     0.040 A 
ENDROOT
BRANCH   1  11
HETATM   11  N1  UNL     1      21.908   0.798  50.288  1.00  0.00    -0.350 N 
HETATM   12  H7  UNL     1      22.455   0.294  49.565  1.00  0.00     0.166 HD
BRANCH  11  13
HETATM   13  C6  UNL     1      22.027   2.164  49.914  1.00  0.00     0.090 C 
HETATM   14  C5  UNL     1      23.171   2.744  49.691  1.00  0.00     0.017 C 
BRANCH  14  15
HETATM   15  C4  UNL     1      23.599   4.059  49.314  1.00  0.00     0.003 C 
HETATM   16  C3  UNL     1      24.777   4.626  49.283  1.00  0.00     0.019 C 
BRANCH  16  17
HETATM   17  C2  UNL     1      26.035   4.008  49.653  1.00  0.00     0.012 C 
HETATM   18  C1  UNL     1      27.176   4.293  49.060  1.00  0.00     0.056 C 
HETATM   19 CL1  UNL     1      26.586   2.829  50.811  1.00  0.00    -0.089 Cl
ENDBRANCH  16  17
ENDBRANCH  14  15
ENDBRANCH  11  13
ENDBRANCH   1  11
BRANCH   8  20
HETATM   20  C13 UNL     1      25.381  -0.441  53.777  1.00  0.00    -0.048 A 
HETATM   21  C14 UNL     1      26.129  -1.000  52.842  1.00  0.00    -0.012 A 
HETATM   22  C15 UNL     1      27.603  -1.020  52.734  1.00  0.00     0.091 A 
HETATM   23  C16 UNL     1      28.293  -0.333  53.848  1.00  0.00     0.043 A 
HETATM   24  C17 UNL     1      27.540   0.211  54.757  1.00  0.00     0.010 A 
HETATM   25  C18 UNL     1      26.085   0.250  54.852  1.00  0.00     0.068 A 
BRANCH  23  26
HETATM   26  O1  UNL     1      29.661  -0.359  53.779  1.00  0.00    -0.365 OA
HETATM   27  H14 UNL     1      30.212   0.507  53.737  1.00  0.00     0.217 HD
ENDBRANCH  23  26
ENDBRANCH   8  20
TORSDOF 6
ENDMDL
MODEL 2
REMARK VINA RESULT:      -8.6      3.568      5.797
REMARK  6 active torsions:
REMARK  status: ('A' for Active; 'I' for Inactive)
REMARK    1  A    between atoms: C2_2  and  C3_4 
REMARK    2  A    between atoms: C4_5  and  C5_6 
REMARK    3  A    between atoms: C6_7  and  N1_8 
REMARK    4  A    between atoms: N1_8  and  C7_9 
REMARK    5  A    between atoms: C12_16  and  C13_17 
REMARK    6  A    between atoms: C16_20  and  O1_21 
ROOT
HETATM    1  C7  UNL     1      26.084   0.919  52.720  1.00  0.00     0.141 A 
HETATM    2  N2  UNL     1      27.330   0.893  53.164  1.00  0.00    -0.224 NA
HETATM    3  C8  UNL     1      27.658   0.222  54.288  1.00  0.00     0.236 A 
HETATM    4  N3  UNL     1      26.671  -0.434  54.965  1.00  0.00    -0.241 NA
HETATM    5  C9  UNL     1      25.393  -0.417  54.525  1.00  0.00     0.072 A 
HETATM    6  C10 UNL     1      24.388  -1.092  55.223  1.00  0.00     0.033 A 
HETATM    7  C11 UNL     1      23.088  -1.061  54.753  1.00  0.00     0.014 A 
HETATM    8  C12 UNL     1      22.729  -0.382  53.607  1.00  0.00    -0.029 A 
HETATM    9  C19 UNL     1      23.754   0.269  52.954  1.00  0.00     0.029 A 
HETATM   10  C20 UNL     1      25.064   0.271  53.376  1.00  0.00     0.040 A 
ENDROOT
BRANCH   1  11
HETATM   11  N1  UNL     1      25.803   1.641  51.532  1.00  0.00    -0.350 N 
HETATM   12  H7  UNL     1      25.052   1.533  50.826  1.00  0.00     0.166 HD
BRANCH  11  13
HETATM   13  C6  UNL     1      26.567   2.738  51.053  1.00  0.00     0.090 C 
HETATM   14  C5  UNL     1      26.491   3.179  49.830  1.00  0.00     0.017 C 
BRANCH  14  15
HETATM   15  C4  UNL     1      27.113   4.227  49.076  1.00  0.00     0.003 C 
HETATM   16  C3  UNL     1      26.761   5.463  48.831  1.00  0.00     0.019 C 
BRANCH  16  17
HETATM   17  C2  UNL     1      25.559   6.121  49.304  1.00  0.00     0.012 C 
HETATM   18  C1  UNL     1      24.430   6.127  48.625  1.00  0.00     0.056 C 
HETATM   19 CL1  UNL     1      25.074   7.044  50.699  1.00  0.00    -0.089 Cl
ENDBRANCH  16  17
ENDBRANCH  14  15
ENDBRANCH  11  13
ENDBRANCH   1  11
BRANCH   8  20
HETATM   20  C13 UNL     1      21.377  -0.316  53.067  1.00  0.00    -0.048 A 
HETATM   21  C14 UNL     1      20.327  -0.833  53.681  1.00  0.00    -0.012 A 
HETATM   22  C15 UNL     1      18.915  -0.834  53.244  1.00  0.00     0.091 A 
HETATM   23  C16 UNL     1      18.694  -0.180  51.935  1.00  0.00     0.043 A 
HETATM   24  C17 UNL     1      19.738   0.324  51.348  1.00  0.00     0.010 A 
HETATM   25  C18 UNL     1      21.129   0.344  51.790  1.00  0.00     0.068 A 
BRANCH  23  26
HETATM   26  O1  UNL     1      17.395  -0.190  51.502  1.00  0.00    -0.365 OA
HETATM   27  H14 UNL     1      17.130   0.208  50.592  1.00  0.00     0.217 HD
ENDBRANCH  23  26
ENDBRANCH   8  20
TORSDOF 6
ENDMDL
MODEL 3
REMARK VINA RESULT:      -8.5      2.052      2.678
REMARK  6 active torsions:
REMARK  status: ('A' for Active; 'I' for Inactive)
REMARK    1  A    between atoms: C2_2  and  C3_4 
REMARK    2  A    between atoms: C4_5  and  C5_6 
REMARK    3  A    between atoms: C6_7  and  N1_8 
REMARK    4  A    between atoms: N1_8  and  C7_9 
REMARK    5  A    between atoms: C12_16  and  C13_17 
REMARK    6  A    between atoms: C16_20  and  O1_21 
ROOT
HETATM    1  C7  UNL     1      22.752   3.234  52.252  1.00  0.00     0.141 A 
HETATM    2  N2  UNL     1      21.496   3.618  52.090  1.00  0.00    -0.224 NA
HETATM    3  C8  UNL     1      20.470   2.783  52.354  1.00  0.00     0.236 A 
HETATM    4  N3  UNL     1      20.754   1.523  52.795  1.00  0.00    -0.241 NA
HETATM    5  C9  UNL     1      22.031   1.115  52.965  1.00  0.00     0.072 A 
HETATM    6  C10 UNL     1      22.314  -0.177  53.418  1.00  0.00     0.033 A 
HETATM    7  C11 UNL     1      23.629  -0.572  53.585  1.00  0.00     0.014 A 
HETATM    8  C12 UNL     1      24.694   0.264  53.322  1.00  0.00    -0.029 A 
HETATM    9  C19 UNL     1      24.366   1.527  52.878  1.00  0.00     0.029 A 
HETATM   10  C20 UNL     1      23.075   1.972  52.693  1.00  0.00     0.040 A 
ENDROOT
BRANCH   1  11
HETATM   11  N1  UNL     1      23.787   4.159  51.959  1.00  0.00    -0.350 N 
HETATM   12  H7  UNL     1      24.241   4.887  52.541  1.00  0.00     0.166 HD
BRANCH  11  13
HETATM   13  C6  UNL     1      24.447   4.264  50.705  1.00  0.00     0.090 C 
HETATM   14  C5  UNL     1      25.709   3.995  50.540  1.00  0.00     0.017 C 
BRANCH  14  15
HETATM   15  C4  UNL     1      26.626   4.007  49.439  1.00  0.00     0.003 C 
HETATM   16  C3  UNL     1      27.098   4.975  48.697  1.00  0.00     0.019 C 
BRANCH  16  17
HETATM   17  C2  UNL     1      26.779   6.384  48.823  1.00  0.00     0.012 C 
HETATM   18  C1  UNL     1      26.897   7.237  47.827  1.00  0.00     0.056 C 
HETATM   19 CL1  UNL     1      26.204   7.455  50.070  1.00  0.00    -0.089 Cl
ENDBRANCH  16  17
ENDBRANCH  14  15
ENDBRANCH  11  13
ENDBRANCH   1  11
BRANCH   8  20
HETATM   20  C13 UNL     1      26.097  -0.098  53.481  1.00  0.00    -0.048 A 
HETATM   21  C14 UNL     1      26.909   0.513  54.326  1.00  0.00    -0.012 A 
HETATM   22  C15 UNL     1      28.340   0.244  54.582  1.00  0.00     0.091 A 
HETATM   23  C16 UNL     1      28.903  -0.841  53.748  1.00  0.00     0.043 A 
HETATM   24  C17 UNL     1      28.088  -1.430  52.925  1.00  0.00     0.010 A 
HETATM   25  C18 UNL     1      26.670  -1.180  52.689  1.00  0.00     0.068 A 
BRANCH  23  26
HETATM   26  O1  UNL     1      30.234  -1.090  53.954  1.00  0.00    -0.365 OA
HETATM   27  H14 UNL     1      30.634  -2.024  53.802  1.00  0.00     0.217 HD
ENDBRANCH  23  26
ENDBRANCH   8  20
TORSDOF 6
ENDMDL
MODEL 4
REMARK VINA RESULT:      -8.5      1.708      2.224
REMARK  6 active torsions:
REMARK  status: ('A' for Active; 'I' for Inactive)
REMARK    1  A    between atoms: C2_2  and  C3_4 
REMARK    2  A    between atoms: C4_5  and  C5_6 
REMARK    3  A    between atoms: C6_7  and  N1_8 
REMARK    4  A    between atoms: N1_8  and  C7_9 
REMARK    5  A    between atoms: C12_16  and  C13_17 
REMARK    6  A    between atoms: C16_20  and  O1_21 
ROOT
HETATM    1  C7  UNL     1      22.325   3.031  52.366  1.00  0.00     0.141 A 
HETATM    2  N2  UNL     1      21.048   3.339  52.205  1.00  0.00    -0.224 NA
HETATM    3  C8  UNL     1      20.078   2.424  52.407  1.00  0.00     0.236 A 
HETATM    4  N3  UNL     1      20.441   1.163  52.784  1.00  0.00    -0.241 NA
HETATM    5  C9  UNL     1      21.741   0.833  52.953  1.00  0.00     0.072 A 
HETATM    6  C10 UNL     1      22.105  -0.459  53.341  1.00  0.00     0.033 A 
HETATM    7  C11 UNL     1      23.441  -0.774  53.508  1.00  0.00     0.014 A 
HETATM    8  C12 UNL     1      24.451   0.144  53.307  1.00  0.00    -0.029 A 
HETATM    9  C19 UNL     1      24.043   1.405  52.926  1.00  0.00     0.029 A 
HETATM   10  C20 UNL     1      22.728   1.772  52.745  1.00  0.00     0.040 A 
ENDROOT
BRANCH   1  11
HETATM   11  N1  UNL     1      23.299   4.038  52.140  1.00  0.00    -0.350 N 
HETATM   12  H7  UNL     1      23.863   4.607  52.798  1.00  0.00     0.166 HD
BRANCH  11  13
HETATM   13  C6  UNL     1      23.713   4.489  50.858  1.00  0.00     0.090 C 
HETATM   14  C5  UNL     1      24.318   5.625  50.664  1.00  0.00     0.017 C 
BRANCH  14  15
HETATM   15  C4  UNL     1      24.839   6.330  49.530  1.00  0.00     0.003 C 
HETATM   16  C3  UNL     1      25.869   6.111  48.754  1.00  0.00     0.019 C 
BRANCH  16  17
HETATM   17  C2  UNL     1      26.807   5.011  48.866  1.00  0.00     0.012 C 
HETATM   18  C1  UNL     1      28.069   5.106  48.505  1.00  0.00     0.056 C 
HETATM   19 CL1  UNL     1      26.774   3.357  49.411  1.00  0.00    -0.089 Cl
ENDBRANCH  16  17
ENDBRANCH  14  15
ENDBRANCH  11  13
ENDBRANCH   1  11
BRANCH   8  20
HETATM   20  C13 UNL     1      25.872  -0.131  53.469  1.00  0.00    -0.048 A 
HETATM   21  C14 UNL     1      26.649   0.544  54.299  1.00  0.00    -0.012 A 
HETATM   22  C15 UNL     1      28.094   0.365  54.555  1.00  0.00     0.091 A 
HETATM   23  C16 UNL     1      28.718  -0.701  53.742  1.00  0.00     0.043 A 
HETATM   24  C17 UNL     1      27.938  -1.353  52.933  1.00  0.00     0.010 A 
HETATM   25  C18 UNL     1      26.507  -1.193  52.696  1.00  0.00     0.068 A 
BRANCH  23  26
HETATM   26  O1  UNL     1      30.062  -0.867  53.949  1.00  0.00    -0.365 OA
HETATM   27  H14 UNL     1      30.724  -0.902  53.164  1.00  0.00     0.217 HD
ENDBRANCH  23  26
ENDBRANCH   8  20
TORSDOF 6
ENDMDL
MODEL 5
REMARK VINA RESULT:      -8.3      3.574      5.829
REMARK  6 active torsions:
REMARK  status: ('A' for Active; 'I' for Inactive)
REMARK    1  A    between atoms: C2_2  and  C3_4 
REMARK    2  A    between atoms: C4_5  and  C5_6 
REMARK    3  A    between atoms: C6_7  and  N1_8 
REMARK    4  A    between atoms: N1_8  and  C7_9 
REMARK    5  A    between atoms: C12_16  and  C13_17 
REMARK    6  A    between atoms: C16_20  and  O1_21 
ROOT
HETATM    1  C7  UNL     1      26.684   0.869  52.563  1.00  0.00     0.141 A 
HETATM    2  N2  UNL     1      27.759   0.646  53.302  1.00  0.00    -0.224 NA
HETATM    3  C8  UNL     1      27.675  -0.004  54.480  1.00  0.00     0.236 A 
HETATM    4  N3  UNL     1      26.449  -0.432  54.901  1.00  0.00    -0.241 NA
HETATM    5  C9  UNL     1      25.341  -0.212  54.159  1.00  0.00     0.072 A 
HETATM    6  C10 UNL     1      24.090  -0.655  54.596  1.00  0.00     0.033 A 
HETATM    7  C11 UNL     1      22.970  -0.419  53.819  1.00  0.00     0.014 A 
HETATM    8  C12 UNL     1      23.031   0.244  52.611  1.00  0.00    -0.029 A 
HETATM    9  C19 UNL     1      24.286   0.660  52.222  1.00  0.00     0.029 A 
HETATM   10  C20 UNL     1      25.433   0.453  52.956  1.00  0.00     0.040 A 
ENDROOT
BRANCH   1  11
HETATM   11  N1  UNL     1      26.837   1.558  51.333  1.00  0.00    -0.350 N 
HETATM   12  H7  UNL     1      27.287   1.277  50.442  1.00  0.00     0.166 HD
BRANCH  11  13
HETATM   13  C6  UNL     1      26.361   2.871  51.076  1.00  0.00     0.090 C 
HETATM   14  C5  UNL     1      25.665   3.183  50.022  1.00  0.00     0.017 C 
BRANCH  14  15
HETATM   15  C4  UNL     1      25.065   4.377  49.503  1.00  0.00     0.003 C 
HETATM   16  C3  UNL     1      24.000   5.050  49.852  1.00  0.00     0.019 C 
BRANCH  16  17
HETATM   17  C2  UNL     1      23.096   4.721  50.936  1.00  0.00     0.012 C 
HETATM   18  C1  UNL     1      21.789   4.855  50.847  1.00  0.00     0.056 C 
HETATM   19 CL1  UNL     1      23.224   4.114  52.564  1.00  0.00    -0.089 Cl
ENDBRANCH  16  17
ENDBRANCH  14  15
ENDBRANCH  11  13
ENDBRANCH   1  11
BRANCH   8  20
HETATM   20  C13 UNL     1      21.886   0.519  51.753  1.00  0.00    -0.048 A 
HETATM   21  C14 UNL     1      20.643   0.222  52.090  1.00  0.00    -0.012 A 
HETATM   22  C15 UNL     1      19.403   0.447  51.317  1.00  0.00     0.091 A 
HETATM   23  C16 UNL     1      19.628   1.065  49.992  1.00  0.00     0.043 A 
HETATM   24  C17 UNL     1      20.857   1.350  49.679  1.00  0.00     0.010 A 
HETATM   25  C18 UNL     1      22.078   1.149  50.452  1.00  0.00     0.068 A 
BRANCH  23  26
HETATM   26  O1  UNL     1      18.493   1.261  49.250  1.00  0.00    -0.365 OA
HETATM   27  H14 UNL     1      17.619   1.586  49.684  1.00  0.00     0.217 HD
ENDBRANCH  23  26
ENDBRANCH   8  20
TORSDOF 6
ENDMDL
MODEL 6
REMARK VINA RESULT:      -8.0      4.725      8.859
REMARK  6 active torsions:
REMARK  status: ('A' for Active; 'I' for Inactive)
REMARK    1  A    between atoms: C2_2  and  C3_4 
REMARK    2  A    between atoms: C4_5  and  C5_6 
REMARK    3  A    between atoms: C6_7  and  N1_8 
REMARK    4  A    between atoms: N1_8  and  C7_9 
REMARK    5  A    between atoms: C12_16  and  C13_17 
REMARK    6  A    between atoms: C16_20  and  O1_21 
ROOT
HETATM    1  C7  UNL     1      26.598   4.980  48.948  1.00  0.00     0.141 A 
HETATM    2  N2  UNL     1      25.389   5.513  49.026  1.00  0.00    -0.224 NA
HETATM    3  C8  UNL     1      25.150   6.769  48.597  1.00  0.00     0.236 A 
HETATM    4  N3  UNL     1      26.188   7.487  48.076  1.00  0.00    -0.241 NA
HETATM    5  C9  UNL     1      27.428   6.957  47.989  1.00  0.00     0.072 A 
HETATM    6  C10 UNL     1      28.485   7.698  47.453  1.00  0.00     0.033 A 
HETATM    7  C11 UNL     1      29.745   7.134  47.373  1.00  0.00     0.014 A 
HETATM    8  C12 UNL     1      30.014   5.852  47.805  1.00  0.00    -0.029 A 
HETATM    9  C19 UNL     1      28.940   5.161  48.326  1.00  0.00     0.029 A 
HETATM   10  C20 UNL     1      27.666   5.673  48.429  1.00  0.00     0.040 A 
ENDROOT
BRANCH   1  11
HETATM   11  N1  UNL     1      26.785   3.654  49.415  1.00  0.00    -0.350 N 
HETATM   12  H7  UNL     1      27.308   2.853  49.014  1.00  0.00     0.166 HD
BRANCH  11  13
HETATM   13  C6  UNL     1      26.242   3.137  50.621  1.00  0.00     0.090 C 
HETATM   14  C5  UNL     1      26.616   2.005  51.143  1.00  0.00     0.017 C 
BRANCH  14  15
HETATM   15  C4  UNL     1      26.266   1.245  52.307  1.00  0.00     0.003 C 
HETATM   16  C3  UNL     1      26.965   0.833  53.332  1.00  0.00     0.019 C 
BRANCH  16  17
HETATM   17  C2  UNL     1      28.378   1.066  53.555  1.00  0.00     0.012 C 
HETATM   18  C1  UNL     1      28.871   2.249  53.857  1.00  0.00     0.056 C 
HETATM   19 CL1  UNL     1      29.844   0.124  53.544  1.00  0.00    -0.089 Cl
ENDBRANCH  16  17
ENDBRANCH  14  15
ENDBRANCH  11  13
ENDBRANCH   1  11
BRANCH   8  20
HETATM   20  C13 UNL     1      31.320   5.208  47.745  1.00  0.00    -0.048 A 
HETATM   21  C14 UNL     1      31.521   4.035  47.170  1.00  0.00    -0.012 A 
HETATM   22  C15 UNL     1      32.785   3.279  47.041  1.00  0.00     0.091 A 
HETATM   23  C16 UNL     1      33.946   3.946  47.669  1.00  0.00     0.043 A 
HETATM   24  C17 UNL     1      33.729   5.099  48.228  1.00  0.00     0.010 A 
HETATM   25  C18 UNL     1      32.486   5.856  48.335  1.00  0.00     0.068 A 
BRANCH  23  26
HETATM   26  O1  UNL     1      35.124   3.251  47.580  1.00  0.00    -0.365 OA
HETATM   27  H14 UNL     1      35.998   3.712  47.299  1.00  0.00     0.217 HD
ENDBRANCH  23  26
ENDBRANCH   8  20
TORSDOF 6
ENDMDL
MODEL 7
REMARK VINA RESULT:      -7.9      1.853      2.036
REMARK  6 active torsions:
REMARK  status: ('A' for Active; 'I' for Inactive)
REMARK    1  A    between atoms: C2_2  and  C3_4 
REMARK    2  A    between atoms: C4_5  and  C5_6 
REMARK    3  A    between atoms: C6_7  and  N1_8 
REMARK    4  A    between atoms: N1_8  and  C7_9 
REMARK    5  A    between atoms: C12_16  and  C13_17 
REMARK    6  A    between atoms: C16_20  and  O1_21 
ROOT
HETATM    1  C7  UNL     1      21.475   0.514  51.613  1.00  0.00     0.141 A 
HETATM    2  N2  UNL     1      20.152   0.517  51.553  1.00  0.00    -0.224 NA
HETATM    3  C8  UNL     1      19.405   0.018  52.559  1.00  0.00     0.236 A 
HETATM    4  N3  UNL     1      20.044  -0.496  53.650  1.00  0.00    -0.241 NA
HETATM    5  C9  UNL     1      21.393  -0.508  53.727  1.00  0.00     0.072 A 
HETATM    6  C10 UNL     1      22.040  -1.035  54.849  1.00  0.00     0.033 A 
HETATM    7  C11 UNL     1      23.422  -1.035  54.905  1.00  0.00     0.014 A 
HETATM    8  C12 UNL     1      24.207  -0.530  53.890  1.00  0.00    -0.029 A 
HETATM    9  C19 UNL     1      23.524  -0.021  52.806  1.00  0.00     0.029 A 
HETATM   10  C20 UNL     1      22.151   0.004  52.696  1.00  0.00     0.040 A 
ENDROOT
BRANCH   1  11
HETATM   11  N1  UNL     1      22.204   1.055  50.524  1.00  0.00    -0.350 N 
HETATM   12  H7  UNL     1      23.222   1.089  50.330  1.00  0.00     0.166 HD
BRANCH  11  13
HETATM   13  C6  UNL     1      21.621   1.705  49.403  1.00  0.00     0.090 C 
HETATM   14  C5  UNL     1      22.321   2.191  48.419  1.00  0.00     0.017 C 
BRANCH  14  15
HETATM   15  C4  UNL     1      22.031   2.878  47.195  1.00  0.00     0.003 C 
HETATM   16  C3  UNL     1      22.073   4.143  46.864  1.00  0.00     0.019 C 
BRANCH  16  17
HETATM   17  C2  UNL     1      22.455   5.242  47.728  1.00  0.00     0.012 C 
HETATM   18  C1  UNL     1      21.583   5.955  48.411  1.00  0.00     0.056 C 
HETATM   19 CL1  UNL     1      23.931   6.028  48.216  1.00  0.00    -0.089 Cl
ENDBRANCH  16  17
ENDBRANCH  14  15
ENDBRANCH  11  13
ENDBRANCH   1  11
BRANCH   8  20
HETATM   20  C13 UNL     1      25.664  -0.503  53.897  1.00  0.00    -0.048 A 
HETATM   21  C14 UNL     1      26.402  -1.158  53.017  1.00  0.00    -0.012 A 
HETATM   22  C15 UNL     1      27.876  -1.213  52.915  1.00  0.00     0.091 A 
HETATM   23  C16 UNL     1      28.577  -0.441  53.964  1.00  0.00     0.043 A 
HETATM   24  C17 UNL     1      27.834   0.197  54.819  1.00  0.00     0.010 A 
HETATM   25  C18 UNL     1      26.379   0.270  54.906  1.00  0.00     0.068 A 
BRANCH  23  26
HETATM   26  O1  UNL     1      29.944  -0.497  53.900  1.00  0.00    -0.365 OA
HETATM   27  H14 UNL     1      30.473   0.073  53.229  1.00  0.00     0.217 HD
ENDBRANCH  23  26
ENDBRANCH   8  20
TORSDOF 6
ENDMDL
MODEL 8
REMARK VINA RESULT:      -7.8      1.911      2.031
REMARK  6 active torsions:
REMARK  status: ('A' for Active; 'I' for Inactive)
REMARK    1  A    between atoms: C2_2  and  C3_4 
REMARK    2  A    between atoms: C4_5  and  C5_6 
REMARK    3  A    between atoms: C6_7  and  N1_8 
REMARK    4  A    between atoms: N1_8  and  C7_9 
REMARK    5  A    between atoms: C12_16  and  C13_17 
REMARK    6  A    between atoms: C16_20  and  O1_21 
ROOT
HETATM    1  C7  UNL     1      20.427   0.485  51.786  1.00  0.00     0.141 A 
HETATM    2  N2  UNL     1      19.157   0.122  51.873  1.00  0.00    -0.224 NA
HETATM    3  C8  UNL     1      18.731  -0.702  52.851  1.00  0.00     0.236 A 
HETATM    4  N3  UNL     1      19.641  -1.159  53.759  1.00  0.00    -0.241 NA
HETATM    5  C9  UNL     1      20.942  -0.799  53.685  1.00  0.00     0.072 A 
HETATM    6  C10 UNL     1      21.868  -1.270  54.619  1.00  0.00     0.033 A 
HETATM    7  C11 UNL     1      23.193  -0.887  54.524  1.00  0.00     0.014 A 
HETATM    8  C12 UNL     1      23.653  -0.045  53.532  1.00  0.00    -0.029 A 
HETATM    9  C19 UNL     1      22.703   0.394  52.635  1.00  0.00     0.029 A 
HETATM   10  C20 UNL     1      21.372   0.044  52.682  1.00  0.00     0.040 A 
ENDROOT
BRANCH   1  11
HETATM   11  N1  UNL     1      20.813   1.355  50.735  1.00  0.00    -0.350 N 
HETATM   12  H7  UNL     1      21.276   1.169  49.826  1.00  0.00     0.166 HD
BRANCH  11  13
HETATM   13  C6  UNL     1      20.620   2.762  50.737  1.00  0.00     0.090 C 
HETATM   14  C5  UNL     1      21.300   3.576  49.983  1.00  0.00     0.017 C 
BRANCH  14  15
HETATM   15  C4  UNL     1      21.334   4.993  49.769  1.00  0.00     0.003 C 
HETATM   16  C3  UNL     1      22.053   5.946  50.302  1.00  0.00     0.019 C 
BRANCH  16  17
HETATM   17  C2  UNL     1      23.074   5.784  51.318  1.00  0.00     0.012 C 
HETATM   18  C1  UNL     1      24.176   6.504  51.349  1.00  0.00     0.056 C 
HETATM   19 CL1  UNL     1      23.331   4.781  52.719  1.00  0.00    -0.089 Cl
ENDBRANCH  16  17
ENDBRANCH  14  15
ENDBRANCH  11  13
ENDBRANCH   1  11
BRANCH   8  20
HETATM   20  C13 UNL     1      25.035   0.391  53.384  1.00  0.00    -0.048 A 
HETATM   21  C14 UNL     1      26.038  -0.444  53.176  1.00  0.00    -0.012 A 
HETATM   22  C15 UNL     1      27.474  -0.132  53.010  1.00  0.00     0.091 A 
HETATM   23  C16 UNL     1      27.789   1.309  53.118  1.00  0.00     0.043 A 
HETATM   24  C17 UNL     1      26.790   2.114  53.321  1.00  0.00     0.010 A 
HETATM   25  C18 UNL     1      25.370   1.809  53.462  1.00  0.00     0.068 A 
BRANCH  23  26
HETATM   26  O1  UNL     1      29.118   1.616  52.988  1.00  0.00    -0.365 OA
HETATM   27  H14 UNL     1      29.842   0.888  53.026  1.00  0.00     0.217 HD
ENDBRANCH  23  26
ENDBRANCH   8  20
TORSDOF 6
ENDMDL
MODEL 9
REMARK VINA RESULT:      -7.8      3.717      5.900
REMARK  6 active torsions:
REMARK  status: ('A' for Active; 'I' for Inactive)
REMARK    1  A    between atoms: C2_2  and  C3_4 
REMARK    2  A    between atoms: C4_5  and  C5_6 
REMARK    3  A    between atoms: C6_7  and  N1_8 
REMARK    4  A    between atoms: N1_8  and  C7_9 
REMARK    5  A    between atoms: C12_16  and  C13_17 
REMARK    6  A    between atoms: C16_20  and  O1_21 
ROOT
HETATM    1  C7  UNL     1      25.875   5.161  49.251  1.00  0.00     0.141 A 
HETATM    2  N2  UNL     1      25.071   5.952  48.559  1.00  0.00    -0.224 NA
HETATM    3  C8  UNL     1      23.746   5.711  48.486  1.00  0.00     0.236 A 
HETATM    4  N3  UNL     1      23.245   4.626  49.146  1.00  0.00    -0.241 NA
HETATM    5  C9  UNL     1      24.052   3.808  49.857  1.00  0.00     0.072 A 
HETATM    6  C10 UNL     1      23.532   2.701  50.532  1.00  0.00     0.033 A 
HETATM    7  C11 UNL     1      24.378   1.879  51.254  1.00  0.00     0.014 A 
HETATM    8  C12 UNL     1      25.736   2.104  51.343  1.00  0.00    -0.029 A 
HETATM    9  C19 UNL     1      26.202   3.209  50.661  1.00  0.00     0.029 A 
HETATM   10  C20 UNL     1      25.406   4.060  49.927  1.00  0.00     0.040 A 
ENDROOT
BRANCH   1  11
HETATM   11  N1  UNL     1      27.259   5.468  49.290  1.00  0.00    -0.350 N 
HETATM   12  H7  UNL     1      28.031   5.085  49.867  1.00  0.00     0.166 HD
BRANCH  11  13
HETATM   13  C6  UNL     1      27.895   6.442  48.474  1.00  0.00     0.090 C 
HETATM   14  C5  UNL     1      29.069   6.267  47.941  1.00  0.00     0.017 C 
BRANCH  14  15
HETATM   15  C4  UNL     1      29.941   7.037  47.103  1.00  0.00     0.003 C 
HETATM   16  C3  UNL     1      30.800   7.988  47.364  1.00  0.00     0.019 C 
BRANCH  16  17
HETATM   17  C2  UNL     1      31.100   8.536  48.672  1.00  0.00     0.012 C 
HETATM   18  C1  UNL     1      31.919   7.954  49.523  1.00  0.00     0.056 C 
HETATM   19 CL1  UNL     1      30.643   9.934  49.605  1.00  0.00    -0.089 Cl
ENDBRANCH  16  17
ENDBRANCH  14  15
ENDBRANCH  11  13
ENDBRANCH   1  11
BRANCH   8  20
HETATM   20  C13 UNL     1      26.672   1.274  52.088  1.00  0.00    -0.048 A 
HETATM   21  C14 UNL     1      27.685   1.768  52.779  1.00  0.00    -0.012 A 
HETATM   22  C15 UNL     1      28.698   1.041  53.573  1.00  0.00     0.091 A 
HETATM   23  C16 UNL     1      28.535  -0.429  53.546  1.00  0.00     0.043 A 
HETATM   24  C17 UNL     1      27.533  -0.896  52.862  1.00  0.00     0.010 A 
HETATM   25  C18 UNL     1      26.520  -0.177  52.098  1.00  0.00     0.068 A 
BRANCH  23  26
HETATM   26  O1  UNL     1      29.478  -1.123  54.257  1.00  0.00    -0.365 OA
HETATM   27  H14 UNL     1      29.510  -1.086  55.284  1.00  0.00     0.217 HD
ENDBRANCH  23  26
ENDBRANCH   8  20
TORSDOF 6
ENDMDL
