MODEL 1
REMARK VINA RESULT:      -9.5      0.000      0.000
REMARK  6 active torsions:
REMARK  status: ('A' for Active; 'I' for Inactive)
REMARK    1  A    between atoms: C2_2  and  C3_3 
REMARK    2  A    between atoms: C2_2  and  N1_13 
REMARK    3  A    between atoms: C3_3  and  C4_4 
REMARK    4  A    between atoms: C10_10  and  C11_11 
REMARK    5  A    between atoms: C11_11  and  O1_12 
REMARK    6  A    between atoms: N1_13  and  C12_14 
ROOT
HETATM    1  C12 UNL     1      24.434   1.787  50.887  1.00  0.00     0.130 A 
HETATM    2  C13 UNL     1      25.907   2.057  50.771  1.00  0.00     0.020 A 
HETATM    3  C14 UNL     1      26.258   3.223  50.277  1.00  0.00     0.113 A 
HETATM    4  N2  UNL     1      25.471   4.287  49.827  1.00  0.00    -0.159 N 
HETATM    5  C15 UNL     1      24.067   4.153  49.886  1.00  0.00     0.032 A 
HETATM    6  C16 UNL     1      23.687   2.985  50.382  1.00  0.00     0.028 A 
HETATM    7  C17 UNL     1      23.177   5.234  49.443  1.00  0.00     0.063 C 
HETATM    8  C18 UNL     1      23.210   5.513  47.965  1.00  0.00     0.052 C 
HETATM    9  C19 UNL     1      22.268   6.652  47.694  1.00  0.00     0.255 C 
HETATM   10  N3  UNL     1      22.526   7.861  48.071  1.00  0.00    -0.401 NA
HETATM   11  C20 UNL     1      23.664   8.293  48.758  1.00  0.00     0.073 C 
HETATM   12  C21 UNL     1      24.646   8.810  49.460  1.00  0.00    -0.005 C 
HETATM   13  C22 UNL     1      26.078   8.789  49.905  1.00  0.00     0.088 C 
HETATM   14  C23 UNL     1      26.783   7.623  49.314  1.00  0.00     0.058 A 
HETATM   15  C24 UNL     1      27.910   7.448  48.530  1.00  0.00     0.048 A 
HETATM   16  C25 UNL     1      28.170   6.137  48.207  1.00  0.00     0.138 A 
HETATM   17  N4  UNL     1      27.417   5.103  48.603  1.00  0.00    -0.074 NA
HETATM   18  C26 UNL     1      26.311   5.352  49.381  1.00  0.00     0.733 A 
HETATM   19  N5  UNL     1      26.040   6.592  49.705  1.00  0.00    -0.067 NA
ENDROOT
BRANCH   1  20
HETATM   20  N1  UNL     1      24.054   1.448  52.221  1.00  0.00    -0.385 N 
HETATM   21  H14 UNL     1      24.127   2.266  52.899  1.00  0.00     0.160 HD
BRANCH  20  22
HETATM   22  C2  UNL     1      23.575   0.525  53.184  1.00  0.00    -0.014 C 
HETATM   23  C1  UNL     1      22.382   0.393  53.725  1.00  0.00     0.058 C 
BRANCH  22  24
HETATM   24  C3  UNL     1      24.536  -0.510  53.667  1.00  0.00     0.079 C 
BRANCH  24  25
HETATM   25  C4  UNL     1      25.904  -0.066  53.823  1.00  0.00    -0.013 C 
HETATM   26  C5  UNL     1      27.192  -0.083  53.782  1.00  0.00    -0.052 A 
HETATM   27  C6  UNL     1      27.646  -1.376  53.213  1.00  0.00     0.007 A 
HETATM   28  C10 UNL     1      28.114   0.978  54.240  1.00  0.00     0.064 A 
HETATM   29  C7  UNL     1      28.943  -1.709  53.082  1.00  0.00     0.000 A 
HETATM   30  C8  UNL     1      29.794  -0.633  53.570  1.00  0.00    -0.003 A 
HETATM   31  C9  UNL     1      29.508   0.529  54.072  1.00  0.00    -0.015 A 
BRANCH  28  32
HETATM   32  C11 UNL     1      27.859   2.304  53.554  1.00  0.00     0.177 C 
BRANCH  32  33
HETATM   33  O1  UNL     1      29.069   2.834  53.083  1.00  0.00    -0.400 OA
HETATM   34  H13 UNL     1      28.920   3.755  52.761  1.00  0.00     0.209 HD
ENDBRANCH  32  33
ENDBRANCH  28  32
ENDBRANCH  24  25
ENDBRANCH  22  24
ENDBRANCH  20  22
ENDBRANCH   1  20
TORSDOF 6
ENDMDL
MODEL 2
REMARK VINA RESULT:      -9.5      1.762      2.396
REMARK  6 active torsions:
REMARK  status: ('A' for Active; 'I' for Inactive)
REMARK    1  A    between atoms: C2_2  and  C3_3 
REMARK    2  A    between atoms: C2_2  and  N1_13 
REMARK    3  A    between atoms: C3_3  and  C4_4 
REMARK    4  A    between atoms: C10_10  and  C11_11 
REMARK    5  A    between atoms: C11_11  and  O1_12 
REMARK    6  A    between atoms: N1_13  and  C12_14 
ROOT
HETATM    1  C12 UNL     1      24.921   3.618  49.490  1.00  0.00     0.130 A 
HETATM    2  C13 UNL     1      26.413   3.448  49.493  1.00  0.00     0.020 A 
HETATM    3  C14 UNL     1      27.129   4.496  49.150  1.00  0.00     0.113 A 
HETATM    4  N2  UNL     1      26.726   5.779  48.772  1.00  0.00    -0.159 N 
HETATM    5  C15 UNL     1      25.344   6.063  48.731  1.00  0.00     0.032 A 
HETATM    6  C16 UNL     1      24.600   5.022  49.073  1.00  0.00     0.028 A 
HETATM    7  C17 UNL     1      24.848   7.393  48.355  1.00  0.00     0.063 C 
HETATM    8  C18 UNL     1      25.094   7.776  46.920  1.00  0.00     0.052 C 
HETATM    9  C19 UNL     1      24.549   9.162  46.718  1.00  0.00     0.255 C 
HETATM   10  N3  UNL     1      25.111  10.203  47.238  1.00  0.00    -0.401 NA
HETATM   11  C20 UNL     1      26.259  10.218  48.036  1.00  0.00     0.073 C 
HETATM   12  C21 UNL     1      27.281  10.357  48.848  1.00  0.00    -0.005 C 
HETATM   13  C22 UNL     1      28.599   9.876  49.375  1.00  0.00     0.088 C 
HETATM   14  C23 UNL     1      28.988   8.608  48.705  1.00  0.00     0.058 A 
HETATM   15  C24 UNL     1      30.082   8.174  47.976  1.00  0.00     0.048 A 
HETATM   16  C25 UNL     1      29.980   6.878  47.529  1.00  0.00     0.138 A 
HETATM   17  N4  UNL     1      28.927   6.084  47.764  1.00  0.00    -0.074 NA
HETATM   18  C26 UNL     1      27.875   6.582  48.496  1.00  0.00     0.733 A 
HETATM   19  N5  UNL     1      27.946   7.814  48.935  1.00  0.00    -0.067 NA
ENDROOT
BRANCH   1  20
HETATM   20  N1  UNL     1      24.340   3.294  50.753  1.00  0.00    -0.385 N 
HETATM   21  H14 UNL     1      24.194   4.144  51.378  1.00  0.00     0.160 HD
BRANCH  20  22
HETATM   22  C2  UNL     1      23.799   2.362  51.673  1.00  0.00    -0.014 C 
HETATM   23  C1  UNL     1      22.957   1.367  51.489  1.00  0.00     0.058 C 
BRANCH  22  24
HETATM   24  C3  UNL     1      24.255   2.465  53.091  1.00  0.00     0.079 C 
BRANCH  24  25
HETATM   25  C4  UNL     1      25.538   1.860  53.377  1.00  0.00    -0.013 C 
HETATM   26  C5  UNL     1      26.492   0.994  53.377  1.00  0.00    -0.052 A 
HETATM   27  C6  UNL     1      26.081  -0.187  52.579  1.00  0.00     0.007 A 
HETATM   28  C10 UNL     1      27.796   1.102  54.067  1.00  0.00     0.064 A 
HETATM   29  C7  UNL     1      26.852  -1.280  52.428  1.00  0.00     0.000 A 
HETATM   30  C8  UNL     1      28.107  -1.118  53.147  1.00  0.00    -0.003 A 
HETATM   31  C9  UNL     1      28.569  -0.136  53.860  1.00  0.00    -0.015 A 
BRANCH  28  32
HETATM   32  C11 UNL     1      28.573   2.332  53.649  1.00  0.00     0.177 C 
BRANCH  32  33
HETATM   33  O1  UNL     1      29.682   2.502  54.492  1.00  0.00    -0.400 OA
HETATM   34  H13 UNL     1      30.310   1.753  54.360  1.00  0.00     0.209 HD
ENDBRANCH  32  33
ENDBRANCH  28  32
ENDBRANCH  24  25
ENDBRANCH  22  24
ENDBRANCH  20  22
ENDBRANCH   1  20
TORSDOF 6
ENDMDL
MODEL 3
REMARK VINA RESULT:      -9.3      2.420      4.584
REMARK  6 active torsions:
REMARK  status: ('A' for Active; 'I' for Inactive)
REMARK    1  A    between atoms: C2_2  and  C3_3 
REMARK    2  A    between atoms: C2_2  and  N1_13 
REMARK    3  A    between atoms: C3_3  and  C4_4 
REMARK    4  A    between atoms: C10_10  and  C11_11 
REMARK    5  A    between atoms: C11_11  and  O1_12 
REMARK    6  A    between atoms: N1_13  and  C12_14 
ROOT
HETATM    1  C12 UNL     1      25.093   5.120  49.056  1.00  0.00     0.130 A 
HETATM    2  C13 UNL     1      26.259   4.198  49.272  1.00  0.00     0.020 A 
HETATM    3  C14 UNL     1      27.450   4.673  48.986  1.00  0.00     0.113 A 
HETATM    4  N2  UNL     1      27.829   5.927  48.501  1.00  0.00    -0.159 N 
HETATM    5  C15 UNL     1      26.821   6.885  48.258  1.00  0.00     0.032 A 
HETATM    6  C16 UNL     1      25.609   6.430  48.538  1.00  0.00     0.028 A 
HETATM    7  C17 UNL     1      27.146   8.227  47.760  1.00  0.00     0.063 C 
HETATM    8  C18 UNL     1      27.691   8.266  46.358  1.00  0.00     0.052 C 
HETATM    9  C19 UNL     1      27.988   9.701  46.023  1.00  0.00     0.255 C 
HETATM   10  N3  UNL     1      28.966  10.345  46.571  1.00  0.00    -0.401 NA
HETATM   11  C20 UNL     1      29.864   9.846  47.518  1.00  0.00     0.073 C 
HETATM   12  C21 UNL     1      30.723   9.519  48.456  1.00  0.00    -0.005 C 
HETATM   13  C22 UNL     1      31.527   8.481  49.179  1.00  0.00     0.088 C 
HETATM   14  C23 UNL     1      31.243   7.133  48.625  1.00  0.00     0.058 A 
HETATM   15  C24 UNL     1      32.002   6.114  48.073  1.00  0.00     0.048 A 
HETATM   16  C25 UNL     1      31.269   5.023  47.673  1.00  0.00     0.138 A 
HETATM   17  N4  UNL     1      29.939   4.926  47.793  1.00  0.00    -0.074 NA
HETATM   18  C26 UNL     1      29.249   5.977  48.352  1.00  0.00     0.733 A 
HETATM   19  N5  UNL     1      29.923   7.030  48.743  1.00  0.00    -0.067 NA
ENDROOT
BRANCH   1  20
HETATM   20  N1  UNL     1      24.313   5.287  50.240  1.00  0.00    -0.385 N 
HETATM   21  H14 UNL     1      24.706   6.026  50.900  1.00  0.00     0.160 HD
BRANCH  20  22
HETATM   22  C2  UNL     1      23.194   4.973  51.049  1.00  0.00    -0.014 C 
HETATM   23  C1  UNL     1      21.914   4.900  50.750  1.00  0.00     0.058 C 
BRANCH  22  24
HETATM   24  C3  UNL     1      23.464   4.624  52.475  1.00  0.00     0.079 C 
BRANCH  24  25
HETATM   25  C4  UNL     1      24.237   3.419  52.686  1.00  0.00    -0.013 C 
HETATM   26  C5  UNL     1      24.502   2.173  52.879  1.00  0.00    -0.052 A 
HETATM   27  C6  UNL     1      23.234   1.404  52.930  1.00  0.00     0.007 A 
HETATM   28  C10 UNL     1      25.838   1.562  53.054  1.00  0.00     0.064 A 
HETATM   29  C7  UNL     1      23.184   0.079  53.161  1.00  0.00     0.000 A 
HETATM   30  C8  UNL     1      24.526  -0.454  53.345  1.00  0.00    -0.003 A 
HETATM   31  C9  UNL     1      25.691   0.118  53.313  1.00  0.00    -0.015 A 
BRANCH  28  32
HETATM   32  C11 UNL     1      26.759   1.837  51.884  1.00  0.00     0.177 C 
BRANCH  32  33
HETATM   33  O1  UNL     1      27.742   2.764  52.263  1.00  0.00    -0.400 OA
HETATM   34  H13 UNL     1      28.548   2.281  52.563  1.00  0.00     0.209 HD
ENDBRANCH  32  33
ENDBRANCH  28  32
ENDBRANCH  24  25
ENDBRANCH  22  24
ENDBRANCH  20  22
ENDBRANCH   1  20
TORSDOF 6
ENDMDL
MODEL 4
REMARK VINA RESULT:      -9.1      2.482      3.855
REMARK  6 active torsions:
REMARK  status: ('A' for Active; 'I' for Inactive)
REMARK    1  A    between atoms: C2_2  and  C3_3 
REMARK    2  A    between atoms: C2_2  and  N1_13 
REMARK    3  A    between atoms: C3_3  and  C4_4 
REMARK    4  A    between atoms: C10_10  and  C11_11 
REMARK    5  A    between atoms: C11_11  and  O1_12 
REMARK    6  A    between atoms: N1_13  and  C12_14 
ROOT
HETATM    1  C12 UNL     1      25.576   4.803  49.556  1.00  0.00     0.130 A 
HETATM    2  C13 UNL     1      26.913   4.345  49.047  1.00  0.00     0.020 A 
HETATM    3  C14 UNL     1      27.759   5.280  48.679  1.00  0.00     0.113 A 
HETATM    4  N2  UNL     1      27.623   6.671  48.681  1.00  0.00    -0.159 N 
HETATM    5  C15 UNL     1      26.409   7.225  49.139  1.00  0.00     0.032 A 
HETATM    6  C16 UNL     1      25.538   6.302  49.517  1.00  0.00     0.028 A 
HETATM    7  C17 UNL     1      26.199   8.678  49.181  1.00  0.00     0.063 C 
HETATM    8  C18 UNL     1      26.137   9.346  47.834  1.00  0.00     0.052 C 
HETATM    9  C19 UNL     1      25.944  10.819  48.064  1.00  0.00     0.255 C 
HETATM   10  N3  UNL     1      26.882  11.567  48.547  1.00  0.00    -0.401 NA
HETATM   11  C20 UNL     1      28.164  11.156  48.920  1.00  0.00     0.073 C 
HETATM   12  C21 UNL     1      29.368  10.885  49.369  1.00  0.00    -0.005 C 
HETATM   13  C22 UNL     1      30.604  10.036  49.348  1.00  0.00     0.088 C 
HETATM   14  C23 UNL     1      30.446   8.922  48.378  1.00  0.00     0.058 A 
HETATM   15  C24 UNL     1      31.144   8.472  47.271  1.00  0.00     0.048 A 
HETATM   16  C25 UNL     1      30.585   7.374  46.663  1.00  0.00     0.138 A 
HETATM   17  N4  UNL     1      29.465   6.772  47.083  1.00  0.00    -0.074 NA
HETATM   18  C26 UNL     1      28.823   7.273  48.192  1.00  0.00     0.733 A 
HETATM   19  N5  UNL     1      29.334   8.319  48.792  1.00  0.00    -0.067 NA
ENDROOT
BRANCH   1  20
HETATM   20  N1  UNL     1      25.298   4.299  50.863  1.00  0.00    -0.385 N 
HETATM   21  H14 UNL     1      25.718   4.894  51.640  1.00  0.00     0.160 HD
BRANCH  20  22
HETATM   22  C2  UNL     1      24.692   3.359  51.733  1.00  0.00    -0.014 C 
HETATM   23  C1  UNL     1      24.040   3.533  52.863  1.00  0.00     0.058 C 
BRANCH  22  24
HETATM   24  C3  UNL     1      24.748   1.924  51.324  1.00  0.00     0.079 C 
BRANCH  24  25
HETATM   25  C4  UNL     1      25.864   1.169  51.851  1.00  0.00    -0.013 C 
HETATM   26  C5  UNL     1      26.959   0.912  52.480  1.00  0.00    -0.052 A 
HETATM   27  C6  UNL     1      27.475   2.160  53.094  1.00  0.00     0.007 A 
HETATM   28  C10 UNL     1      27.644  -0.395  52.581  1.00  0.00     0.064 A 
HETATM   29  C7  UNL     1      28.629   2.219  53.784  1.00  0.00     0.000 A 
HETATM   30  C8  UNL     1      29.262   0.909  53.827  1.00  0.00    -0.003 A 
HETATM   31  C9  UNL     1      28.899  -0.238  53.338  1.00  0.00    -0.015 A 
BRANCH  28  32
HETATM   32  C11 UNL     1      26.757  -1.471  53.170  1.00  0.00     0.177 C 
BRANCH  32  33
HETATM   33  O1  UNL     1      27.381  -2.722  53.042  1.00  0.00    -0.400 OA
HETATM   34  H13 UNL     1      28.323  -2.647  53.322  1.00  0.00     0.209 HD
ENDBRANCH  32  33
ENDBRANCH  28  32
ENDBRANCH  24  25
ENDBRANCH  22  24
ENDBRANCH  20  22
ENDBRANCH   1  20
TORSDOF 6
ENDMDL
MODEL 5
REMARK VINA RESULT:      -9.0      2.001      2.845
REMARK  6 active torsions:
REMARK  status: ('A' for Active; 'I' for Inactive)
REMARK    1  A    between atoms: C2_2  and  C3_3 
REMARK    2  A    between atoms: C2_2  and  N1_13 
REMARK    3  A    between atoms: C3_3  and  C4_4 
REMARK    4  A    between atoms: C10_10  and  C11_11 
REMARK    5  A    between atoms: C11_11  and  O1_12 
REMARK    6  A    between atoms: N1_13  and  C12_14 
ROOT
HETATM    1  C12 UNL     1      24.384   3.568  49.436  1.00  0.00     0.130 A 
HETATM    2  C13 UNL     1      25.867   3.376  49.577  1.00  0.00     0.020 A 
HETATM    3  C14 UNL     1      26.628   4.407  49.287  1.00  0.00     0.113 A 
HETATM    4  N2  UNL     1      26.283   5.691  48.857  1.00  0.00    -0.159 N 
HETATM    5  C15 UNL     1      24.915   5.995  48.687  1.00  0.00     0.032 A 
HETATM    6  C16 UNL     1      24.126   4.971  48.973  1.00  0.00     0.028 A 
HETATM    7  C17 UNL     1      24.478   7.327  48.249  1.00  0.00     0.063 C 
HETATM    8  C18 UNL     1      24.859   7.684  46.837  1.00  0.00     0.052 C 
HETATM    9  C19 UNL     1      24.357   9.076  46.568  1.00  0.00     0.255 C 
HETATM   10  N3  UNL     1      24.887  10.116  47.123  1.00  0.00    -0.401 NA
HETATM   11  C20 UNL     1      25.958  10.124  48.022  1.00  0.00     0.073 C 
HETATM   12  C21 UNL     1      26.904  10.261  48.921  1.00  0.00    -0.005 C 
HETATM   13  C22 UNL     1      28.162   9.766  49.572  1.00  0.00     0.088 C 
HETATM   14  C23 UNL     1      28.588   8.483  48.957  1.00  0.00     0.058 A 
HETATM   15  C24 UNL     1      29.736   8.021  48.336  1.00  0.00     0.048 A 
HETATM   16  C25 UNL     1      29.654   6.721  47.900  1.00  0.00     0.138 A 
HETATM   17  N4  UNL     1      28.571   5.946  48.048  1.00  0.00    -0.074 NA
HETATM   18  C26 UNL     1      27.465   6.472  48.675  1.00  0.00     0.733 A 
HETATM   19  N5  UNL     1      27.517   7.709  49.102  1.00  0.00    -0.067 NA
ENDROOT
BRANCH   1  20
HETATM   20  N1  UNL     1      23.687   3.272  50.646  1.00  0.00    -0.385 N 
HETATM   21  H14 UNL     1      23.294   2.282  50.673  1.00  0.00     0.160 HD
BRANCH  20  22
HETATM   22  C2  UNL     1      23.225   3.630  51.937  1.00  0.00    -0.014 C 
HETATM   23  C1  UNL     1      22.056   4.089  52.332  1.00  0.00     0.058 C 
BRANCH  22  24
HETATM   24  C3  UNL     1      24.173   3.437  53.074  1.00  0.00     0.079 C 
BRANCH  24  25
HETATM   25  C4  UNL     1      24.890   2.180  53.081  1.00  0.00    -0.013 C 
HETATM   26  C5  UNL     1      25.875   1.352  53.153  1.00  0.00    -0.052 A 
HETATM   27  C6  UNL     1      27.134   2.105  53.375  1.00  0.00     0.007 A 
HETATM   28  C10 UNL     1      25.814  -0.120  53.018  1.00  0.00     0.064 A 
HETATM   29  C7  UNL     1      28.341   1.516  53.452  1.00  0.00     0.000 A 
HETATM   30  C8  UNL     1      28.214   0.075  53.289  1.00  0.00    -0.003 A 
HETATM   31  C9  UNL     1      27.175  -0.681  53.102  1.00  0.00    -0.015 A 
BRANCH  28  32
HETATM   32  C11 UNL     1      24.875  -0.756  54.021  1.00  0.00     0.177 C 
BRANCH  32  33
HETATM   33  O1  UNL     1      25.524  -0.893  55.257  1.00  0.00    -0.400 OA
HETATM   34  H13 UNL     1      25.079  -0.320  55.925  1.00  0.00     0.209 HD
ENDBRANCH  32  33
ENDBRANCH  28  32
ENDBRANCH  24  25
ENDBRANCH  22  24
ENDBRANCH  20  22
ENDBRANCH   1  20
TORSDOF 6
ENDMDL
MODEL 6
REMARK VINA RESULT:      -8.8      1.628      3.409
REMARK  6 active torsions:
REMARK  status: ('A' for Active; 'I' for Inactive)
REMARK    1  A    between atoms: C2_2  and  C3_3 
REMARK    2  A    between atoms: C2_2  and  N1_13 
REMARK    3  A    between atoms: C3_3  and  C4_4 
REMARK    4  A    between atoms: C10_10  and  C11_11 
REMARK    5  A    between atoms: C11_11  and  O1_12 
REMARK    6  A    between atoms: N1_13  and  C12_14 
ROOT
HETATM    1  C12 UNL     1      23.864   3.316  52.628  1.00  0.00     0.130 A 
HETATM    2  C13 UNL     1      22.460   3.849  52.597  1.00  0.00     0.020 A 
HETATM    3  C14 UNL     1      22.214   4.822  51.750  1.00  0.00     0.113 A 
HETATM    4  N2  UNL     1      23.061   5.467  50.845  1.00  0.00    -0.159 N 
HETATM    5  C15 UNL     1      24.410   5.055  50.780  1.00  0.00     0.032 A 
HETATM    6  C16 UNL     1      24.683   4.072  51.625  1.00  0.00     0.028 A 
HETATM    7  C17 UNL     1      25.355   5.678  49.844  1.00  0.00     0.063 C 
HETATM    8  C18 UNL     1      25.682   7.117  50.143  1.00  0.00     0.052 C 
HETATM    9  C19 UNL     1      26.634   7.597  49.084  1.00  0.00     0.255 C 
HETATM   10  N3  UNL     1      26.261   7.789  47.861  1.00  0.00    -0.401 NA
HETATM   11  C20 UNL     1      24.978   7.592  47.342  1.00  0.00     0.073 C 
HETATM   12  C21 UNL     1      23.840   7.382  46.722  1.00  0.00    -0.005 C 
HETATM   13  C22 UNL     1      22.344   7.289  46.745  1.00  0.00     0.088 C 
HETATM   14  C23 UNL     1      21.835   7.517  48.122  1.00  0.00     0.058 A 
HETATM   15  C24 UNL     1      20.942   8.396  48.710  1.00  0.00     0.048 A 
HETATM   16  C25 UNL     1      20.803   8.230  50.067  1.00  0.00     0.138 A 
HETATM   17  N4  UNL     1      21.460   7.307  50.782  1.00  0.00    -0.074 NA
HETATM   18  C26 UNL     1      22.332   6.466  50.131  1.00  0.00     0.733 A 
HETATM   19  N5  UNL     1      22.484   6.602  48.837  1.00  0.00    -0.067 NA
ENDROOT
BRANCH   1  20
HETATM   20  N1  UNL     1      23.910   1.908  52.397  1.00  0.00    -0.385 N 
HETATM   21  H14 UNL     1      24.743   1.606  51.805  1.00  0.00     0.160 HD
BRANCH  20  22
HETATM   22  C2  UNL     1      23.396   0.599  52.573  1.00  0.00    -0.014 C 
HETATM   23  C1  UNL     1      22.219   0.093  52.271  1.00  0.00     0.058 C 
BRANCH  22  24
HETATM   24  C3  UNL     1      24.317  -0.417  53.164  1.00  0.00     0.079 C 
BRANCH  24  25
HETATM   25  C4  UNL     1      25.666   0.040  53.420  1.00  0.00    -0.013 C 
HETATM   26  C5  UNL     1      26.952   0.020  53.507  1.00  0.00    -0.052 A 
HETATM   27  C6  UNL     1      27.451  -1.313  53.085  1.00  0.00     0.007 A 
HETATM   28  C10 UNL     1      27.831   1.114  53.972  1.00  0.00     0.064 A 
HETATM   29  C7  UNL     1      28.753  -1.653  53.108  1.00  0.00     0.000 A 
HETATM   30  C8  UNL     1      29.559  -0.543  53.594  1.00  0.00    -0.003 A 
HETATM   31  C9  UNL     1      29.232   0.654  53.977  1.00  0.00    -0.015 A 
BRANCH  28  32
HETATM   32  C11 UNL     1      27.654   2.383  53.166  1.00  0.00     0.177 C 
BRANCH  32  33
HETATM   33  O1  UNL     1      28.909   2.933  52.865  1.00  0.00    -0.400 OA
HETATM   34  H13 UNL     1      29.212   2.596  51.988  1.00  0.00     0.209 HD
ENDBRANCH  32  33
ENDBRANCH  28  32
ENDBRANCH  24  25
ENDBRANCH  22  24
ENDBRANCH  20  22
ENDBRANCH   1  20
TORSDOF 6
ENDMDL
MODEL 7
REMARK VINA RESULT:      -8.8      3.419      7.047
REMARK  6 active torsions:
REMARK  status: ('A' for Active; 'I' for Inactive)
REMARK    1  A    between atoms: C2_2  and  C3_3 
REMARK    2  A    between atoms: C2_2  and  N1_13 
REMARK    3  A    between atoms: C3_3  and  C4_4 
REMARK    4  A    between atoms: C10_10  and  C11_11 
REMARK    5  A    between atoms: C11_11  and  O1_12 
REMARK    6  A    between atoms: N1_13  and  C12_14 
ROOT
HETATM    1  C12 UNL     1      20.557   1.359  53.168  1.00  0.00     0.130 A 
HETATM    2  C13 UNL     1      20.224   2.735  52.668  1.00  0.00     0.020 A 
HETATM    3  C14 UNL     1      21.225   3.464  52.229  1.00  0.00     0.113 A 
HETATM    4  N2  UNL     1      22.588   3.168  52.145  1.00  0.00    -0.159 N 
HETATM    5  C15 UNL     1      23.027   1.901  52.586  1.00  0.00     0.032 A 
HETATM    6  C16 UNL     1      22.035   1.146  53.034  1.00  0.00     0.028 A 
HETATM    7  C17 UNL     1      24.442   1.516  52.517  1.00  0.00     0.063 C 
HETATM    8  C18 UNL     1      25.352   2.286  53.437  1.00  0.00     0.052 C 
HETATM    9  C19 UNL     1      26.752   1.784  53.220  1.00  0.00     0.255 C 
HETATM   10  N3  UNL     1      27.409   2.030  52.135  1.00  0.00    -0.401 NA
HETATM   11  C20 UNL     1      26.955   2.765  51.036  1.00  0.00     0.073 C 
HETATM   12  C21 UNL     1      26.623   3.372  49.920  1.00  0.00    -0.005 C 
HETATM   13  C22 UNL     1      25.813   4.401  49.190  1.00  0.00     0.088 C 
HETATM   14  C23 UNL     1      24.899   5.098  50.131  1.00  0.00     0.058 A 
HETATM   15  C24 UNL     1      24.678   6.415  50.496  1.00  0.00     0.048 A 
HETATM   16  C25 UNL     1      23.705   6.576  51.453  1.00  0.00     0.138 A 
HETATM   17  N4  UNL     1      23.017   5.566  52.002  1.00  0.00    -0.074 NA
HETATM   18  C26 UNL     1      23.290   4.282  51.591  1.00  0.00     0.733 A 
HETATM   19  N5  UNL     1      24.212   4.100  50.679  1.00  0.00    -0.067 NA
ENDROOT
BRANCH   1  20
HETATM   20  N1  UNL     1      19.811   0.346  52.492  1.00  0.00    -0.385 N 
HETATM   21  H14 UNL     1      20.427  -0.374  52.006  1.00  0.00     0.160 HD
BRANCH  20  22
HETATM   22  C2  UNL     1      18.585  -0.257  52.117  1.00  0.00    -0.014 C 
HETATM   23  C1  UNL     1      17.831  -1.130  52.751  1.00  0.00     0.058 C 
BRANCH  22  24
HETATM   24  C3  UNL     1      17.995   0.161  50.811  1.00  0.00     0.079 C 
BRANCH  24  25
HETATM   25  C4  UNL     1      18.872   0.922  49.946  1.00  0.00    -0.013 C 
HETATM   26  C5  UNL     1      19.353   1.923  49.294  1.00  0.00    -0.052 A 
HETATM   27  C6  UNL     1      18.510   3.119  49.540  1.00  0.00     0.007 A 
HETATM   28  C10 UNL     1      20.537   1.925  48.408  1.00  0.00     0.064 A 
HETATM   29  C7  UNL     1      18.737   4.312  48.961  1.00  0.00     0.000 A 
HETATM   30  C8  UNL     1      19.899   4.240  48.088  1.00  0.00    -0.003 A 
HETATM   31  C9  UNL     1      20.705   3.261  47.809  1.00  0.00    -0.015 A 
BRANCH  28  32
HETATM   32  C11 UNL     1      21.792   1.459  49.117  1.00  0.00     0.177 C 
BRANCH  32  33
HETATM   33  O1  UNL     1      22.870   2.285  48.763  1.00  0.00    -0.400 OA
HETATM   34  H13 UNL     1      23.576   1.739  48.342  1.00  0.00     0.209 HD
ENDBRANCH  32  33
ENDBRANCH  28  32
ENDBRANCH  24  25
ENDBRANCH  22  24
ENDBRANCH  20  22
ENDBRANCH   1  20
TORSDOF 6
ENDMDL
MODEL 8
REMARK VINA RESULT:      -8.5      2.678      5.225
REMARK  6 active torsions:
REMARK  status: ('A' for Active; 'I' for Inactive)
REMARK    1  A    between atoms: C2_2  and  C3_3 
REMARK    2  A    between atoms: C2_2  and  N1_13 
REMARK    3  A    between atoms: C3_3  and  C4_4 
REMARK    4  A    between atoms: C10_10  and  C11_11 
REMARK    5  A    between atoms: C11_11  and  O1_12 
REMARK    6  A    between atoms: N1_13  and  C12_14 
ROOT
HETATM    1  C12 UNL     1      26.313   3.304  49.853  1.00  0.00     0.130 A 
HETATM    2  C13 UNL     1      26.571   4.749  49.535  1.00  0.00     0.020 A 
HETATM    3  C14 UNL     1      25.547   5.453  49.107  1.00  0.00     0.113 A 
HETATM    4  N2  UNL     1      24.219   5.075  48.889  1.00  0.00    -0.159 N 
HETATM    5  C15 UNL     1      23.852   3.738  49.153  1.00  0.00     0.032 A 
HETATM    6  C16 UNL     1      24.867   3.007  49.587  1.00  0.00     0.028 A 
HETATM    7  C17 UNL     1      22.473   3.272  48.960  1.00  0.00     0.063 C 
HETATM    8  C18 UNL     1      22.010   3.245  47.527  1.00  0.00     0.052 C 
HETATM    9  C19 UNL     1      20.584   2.771  47.517  1.00  0.00     0.255 C 
HETATM   10  N3  UNL     1      19.615   3.501  47.963  1.00  0.00    -0.401 NA
HETATM   11  C20 UNL     1      19.722   4.786  48.503  1.00  0.00     0.073 C 
HETATM   12  C21 UNL     1      19.697   5.961  49.089  1.00  0.00    -0.005 C 
HETATM   13  C22 UNL     1      20.291   7.321  49.302  1.00  0.00     0.088 C 
HETATM   14  C23 UNL     1      21.532   7.472  48.500  1.00  0.00     0.058 A 
HETATM   15  C24 UNL     1      21.981   8.359  47.536  1.00  0.00     0.048 A 
HETATM   16  C25 UNL     1      23.235   8.074  47.053  1.00  0.00     0.138 A 
HETATM   17  N4  UNL     1      23.980   7.038  47.460  1.00  0.00    -0.074 NA
HETATM   18  C26 UNL     1      23.470   6.197  48.421  1.00  0.00     0.733 A 
HETATM   19  N5  UNL     1      22.276   6.445  48.900  1.00  0.00    -0.067 NA
ENDROOT
BRANCH   1  20
HETATM   20  N1  UNL     1      26.685   2.974  51.191  1.00  0.00    -0.385 N 
HETATM   21  H14 UNL     1      27.121   3.790  51.720  1.00  0.00     0.160 HD
BRANCH  20  22
HETATM   22  C2  UNL     1      26.766   2.062  52.273  1.00  0.00    -0.014 C 
HETATM   23  C1  UNL     1      27.554   1.023  52.460  1.00  0.00     0.058 C 
BRANCH  22  24
HETATM   24  C3  UNL     1      25.852   2.298  53.429  1.00  0.00     0.079 C 
BRANCH  24  25
HETATM   25  C4  UNL     1      24.439   2.286  53.119  1.00  0.00    -0.013 C 
HETATM   26  C5  UNL     1      23.269   2.720  52.796  1.00  0.00    -0.052 A 
HETATM   27  C6  UNL     1      23.332   4.188  52.589  1.00  0.00     0.007 A 
HETATM   28  C10 UNL     1      22.028   1.927  52.664  1.00  0.00     0.064 A 
HETATM   29  C7  UNL     1      22.257   4.936  52.282  1.00  0.00     0.000 A 
HETATM   30  C8  UNL     1      21.068   4.100  52.189  1.00  0.00    -0.003 A 
HETATM   31  C9  UNL     1      20.902   2.821  52.340  1.00  0.00    -0.015 A 
BRANCH  28  32
HETATM   32  C11 UNL     1      22.164   0.800  51.662  1.00  0.00     0.177 C 
BRANCH  32  33
HETATM   33  O1  UNL     1      22.088  -0.435  52.325  1.00  0.00    -0.400 OA
HETATM   34  H13 UNL     1      21.286  -0.921  52.021  1.00  0.00     0.209 HD
ENDBRANCH  32  33
ENDBRANCH  28  32
ENDBRANCH  24  25
ENDBRANCH  22  24
ENDBRANCH  20  22
ENDBRANCH   1  20
TORSDOF 6
ENDMDL
MODEL 9
REMARK VINA RESULT:      -8.4      5.317      8.655
REMARK  6 active torsions:
REMARK  status: ('A' for Active; 'I' for Inactive)
REMARK    1  A    between atoms: C2_2  and  C3_3 
REMARK    2  A    between atoms: C2_2  and  N1_13 
REMARK    3  A    between atoms: C3_3  and  C4_4 
REMARK    4  A    between atoms: C10_10  and  C11_11 
REMARK    5  A    between atoms: C11_11  and  O1_12 
REMARK    6  A    between atoms: N1_13  and  C12_14 
ROOT
HETATM    1  C12 UNL     1      20.232   1.776  52.853  1.00  0.00     0.130 A 
HETATM    2  C13 UNL     1      20.024   3.149  52.281  1.00  0.00     0.020 A 
HETATM    3  C14 UNL     1      21.098   3.797  51.889  1.00  0.00     0.113 A 
HETATM    4  N2  UNL     1      22.442   3.414  51.914  1.00  0.00    -0.159 N 
HETATM    5  C15 UNL     1      22.766   2.141  52.430  1.00  0.00     0.032 A 
HETATM    6  C16 UNL     1      21.700   1.468  52.832  1.00  0.00     0.028 A 
HETATM    7  C17 UNL     1      24.156   1.667  52.476  1.00  0.00     0.063 C 
HETATM    8  C18 UNL     1      25.047   2.416  53.430  1.00  0.00     0.052 C 
HETATM    9  C19 UNL     1      26.423   1.820  53.332  1.00  0.00     0.255 C 
HETATM   10  N3  UNL     1      27.169   1.981  52.288  1.00  0.00    -0.401 NA
HETATM   11  C20 UNL     1      26.839   2.698  51.134  1.00  0.00     0.073 C 
HETATM   12  C21 UNL     1      26.625   3.279  49.976  1.00  0.00    -0.005 C 
HETATM   13  C22 UNL     1      25.935   4.325  49.154  1.00  0.00     0.088 C 
HETATM   14  C23 UNL     1      25.005   5.115  50.002  1.00  0.00     0.058 A 
HETATM   15  C24 UNL     1      24.844   6.457  50.302  1.00  0.00     0.048 A 
HETATM   16  C25 UNL     1      23.820   6.716  51.182  1.00  0.00     0.138 A 
HETATM   17  N4  UNL     1      23.033   5.773  51.716  1.00  0.00    -0.074 NA
HETATM   18  C26 UNL     1      23.250   4.459  51.371  1.00  0.00     0.733 A 
HETATM   19  N5  UNL     1      24.219   4.184  50.534  1.00  0.00    -0.067 NA
ENDROOT
BRANCH   1  20
HETATM   20  N1  UNL     1      19.472   0.785  52.162  1.00  0.00    -0.385 N 
HETATM   21  H14 UNL     1      19.906   0.494  51.234  1.00  0.00     0.160 HD
BRANCH  20  22
HETATM   22  C2  UNL     1      18.365  -0.094  52.068  1.00  0.00    -0.014 C 
HETATM   23  C1  UNL     1      18.028  -1.130  52.808  1.00  0.00     0.058 C 
BRANCH  22  24
HETATM   24  C3  UNL     1      17.370   0.181  50.989  1.00  0.00     0.079 C 
BRANCH  24  25
HETATM   25  C4  UNL     1      16.410   1.225  51.278  1.00  0.00    -0.013 C 
HETATM   26  C5  UNL     1      15.393   1.820  51.801  1.00  0.00    -0.052 A 
HETATM   27  C6  UNL     1      14.701   0.887  52.724  1.00  0.00     0.007 A 
HETATM   28  C10 UNL     1      14.934   3.200  51.535  1.00  0.00     0.064 A 
HETATM   29  C7  UNL     1      13.576   1.208  53.389  1.00  0.00     0.000 A 
HETATM   30  C8  UNL     1      13.168   2.567  53.068  1.00  0.00    -0.003 A 
HETATM   31  C9  UNL     1      13.697   3.464  52.291  1.00  0.00    -0.015 A 
BRANCH  28  32
HETATM   32  C11 UNL     1      16.004   4.232  51.822  1.00  0.00     0.177 C 
BRANCH  32  33
HETATM   33  O1  UNL     1      15.996   4.558  53.187  1.00  0.00    -0.400 OA
HETATM   34  H13 UNL     1      16.687   5.239  53.365  1.00  0.00     0.209 HD
ENDBRANCH  32  33
ENDBRANCH  28  32
ENDBRANCH  24  25
ENDBRANCH  22  24
ENDBRANCH  20  22
ENDBRANCH   1  20
TORSDOF 6
ENDMDL
