MODEL 1
REMARK VINA RESULT:      -8.9      0.000      0.000
REMARK  2 active torsions:
REMARK  status: ('A' for Active; 'I' for Inactive)
REMARK    1  A    between atoms: O1_2  and  C2_3 
REMARK    2  A    between atoms: C9_10  and  C10_11 
ROOT
HETATM    1  C2  UNL     1      20.544  -0.520  53.358  1.00  0.00     0.068 A 
HETATM    2  C3  UNL     1      20.070   0.622  52.725  1.00  0.00     0.039 A 
HETATM    3  C4  UNL     1      21.055   1.512  52.282  1.00  0.00     0.040 A 
HETATM    4  C5  UNL     1      22.414   1.340  52.428  1.00  0.00     0.083 A 
HETATM    5  C6  UNL     1      22.847   0.198  53.059  1.00  0.00    -0.019 A 
HETATM    6  C7  UNL     1      21.902  -0.707  53.510  1.00  0.00     0.046 A 
HETATM    7  C8  UNL     1      24.249  -0.199  53.326  1.00  0.00     0.073 C 
HETATM    8  C9  UNL     1      25.173   0.871  52.869  1.00  0.00     0.146 C 
HETATM    9  N1  UNL     1      24.802   2.151  53.416  1.00  0.00    -0.273 NA
HETATM   10  C16 UNL     1      24.463   3.144  52.669  1.00  0.00     0.229 C 
HETATM   11  N2  UNL     1      24.425   3.066  51.245  1.00  0.00    -0.230 NA
HETATM   12  C17 UNL     1      23.496   2.469  50.575  1.00  0.00     0.260 C 
HETATM   13  O2  UNL     1      23.200   2.338  51.920  1.00  0.00    -0.304 OA
ENDROOT
BRANCH   8  14
HETATM   14  C10 UNL     1      26.607   0.560  53.094  1.00  0.00    -0.031 A 
HETATM   15  C11 UNL     1      27.553   1.541  53.380  1.00  0.00     0.012 A 
HETATM   16  C12 UNL     1      28.845   1.102  53.564  1.00  0.00     0.044 A 
HETATM   17  C13 UNL     1      29.245  -0.216  53.485  1.00  0.00     0.138 A 
HETATM   18  F1  UNL     1      30.547  -0.489  53.691  1.00  0.00    -0.204 F 
HETATM   19  C14 UNL     1      28.257  -1.122  53.201  1.00  0.00     0.073 A 
HETATM   20 CL1  UNL     1      28.718  -2.807  53.090  1.00  0.00    -0.081 Cl
HETATM   21  C15 UNL     1      26.938  -0.794  52.998  1.00  0.00     0.036 A 
ENDBRANCH   8  14
BRANCH   1  22
HETATM   22  O1  UNL     1      19.627  -1.448  53.822  1.00  0.00    -0.356 OA
HETATM   23  C1  UNL     1      18.284  -1.445  53.424  1.00  0.00     0.210 C 
ENDBRANCH   1  22
TORSDOF 2
ENDMDL
MODEL 2
REMARK VINA RESULT:      -8.6      4.133      6.246
REMARK  2 active torsions:
REMARK  status: ('A' for Active; 'I' for Inactive)
REMARK    1  A    between atoms: O1_2  and  C2_3 
REMARK    2  A    between atoms: C9_10  and  C10_11 
ROOT
HETATM    1  C2  UNL     1      26.919  -0.529  53.386  1.00  0.00     0.068 A 
HETATM    2  C3  UNL     1      25.640  -0.862  53.811  1.00  0.00     0.039 A 
HETATM    3  C4  UNL     1      24.615  -0.049  53.313  1.00  0.00     0.040 A 
HETATM    4  C5  UNL     1      24.783   1.022  52.463  1.00  0.00     0.083 A 
HETATM    5  C6  UNL     1      26.063   1.322  52.064  1.00  0.00    -0.019 A 
HETATM    6  C7  UNL     1      27.105   0.539  52.535  1.00  0.00     0.046 A 
HETATM    7  C8  UNL     1      26.485   2.417  51.160  1.00  0.00     0.073 C 
HETATM    8  C9  UNL     1      25.306   3.235  50.774  1.00  0.00     0.146 C 
HETATM    9  N1  UNL     1      24.569   3.670  51.933  1.00  0.00    -0.273 NA
HETATM   10  C16 UNL     1      23.342   3.330  52.132  1.00  0.00     0.229 C 
HETATM   11  N2  UNL     1      22.611   2.500  51.232  1.00  0.00    -0.230 NA
HETATM   12  C17 UNL     1      22.767   1.221  51.132  1.00  0.00     0.260 C 
HETATM   13  O2  UNL     1      23.641   1.681  52.101  1.00  0.00    -0.304 OA
ENDROOT
BRANCH   8  14
HETATM   14  C10 UNL     1      25.631   4.361  49.862  1.00  0.00    -0.031 A 
HETATM   15  C11 UNL     1      24.677   5.279  49.433  1.00  0.00     0.012 A 
HETATM   16  C12 UNL     1      25.126   6.270  48.588  1.00  0.00     0.044 A 
HETATM   17  C13 UNL     1      26.428   6.403  48.157  1.00  0.00     0.138 A 
HETATM   18  F1  UNL     1      26.714   7.426  47.331  1.00  0.00    -0.204 F 
HETATM   19  C14 UNL     1      27.309   5.461  48.623  1.00  0.00     0.073 A 
HETATM   20 CL1  UNL     1      28.975   5.589  48.102  1.00  0.00    -0.081 Cl
HETATM   21  C15 UNL     1      26.968   4.431  49.467  1.00  0.00     0.036 A 
ENDBRANCH   8  14
BRANCH   1  22
HETATM   22  O1  UNL     1      27.985  -1.291  53.838  1.00  0.00    -0.356 OA
HETATM   23  C1  UNL     1      29.312  -1.012  53.490  1.00  0.00     0.210 C 
ENDBRANCH   1  22
TORSDOF 2
ENDMDL
MODEL 3
REMARK VINA RESULT:      -8.5      4.046      7.025
REMARK  2 active torsions:
REMARK  status: ('A' for Active; 'I' for Inactive)
REMARK    1  A    between atoms: O1_2  and  C2_3 
REMARK    2  A    between atoms: C9_10  and  C10_11 
ROOT
HETATM    1  C2  UNL     1      27.314  -0.295  53.382  1.00  0.00     0.068 A 
HETATM    2  C3  UNL     1      27.706   0.977  52.986  1.00  0.00     0.039 A 
HETATM    3  C4  UNL     1      26.665   1.834  52.611  1.00  0.00     0.040 A 
HETATM    4  C5  UNL     1      25.326   1.513  52.605  1.00  0.00     0.083 A 
HETATM    5  C6  UNL     1      24.974   0.245  53.003  1.00  0.00    -0.019 A 
HETATM    6  C7  UNL     1      25.976  -0.632  53.383  1.00  0.00     0.046 A 
HETATM    7  C8  UNL     1      23.607  -0.322  53.079  1.00  0.00     0.073 C 
HETATM    8  C9  UNL     1      22.620   0.672  52.583  1.00  0.00     0.146 C 
HETATM    9  N1  UNL     1      22.988   1.169  51.281  1.00  0.00    -0.273 NA
HETATM   10  C16 UNL     1      23.242   2.414  51.070  1.00  0.00     0.229 C 
HETATM   11  N2  UNL     1      23.185   3.403  52.096  1.00  0.00    -0.230 NA
HETATM   12  C17 UNL     1      24.083   3.554  53.011  1.00  0.00     0.260 C 
HETATM   13  O2  UNL     1      24.476   2.504  52.200  1.00  0.00    -0.304 OA
ENDROOT
BRANCH   8  14
HETATM   14  C10 UNL     1      21.216   0.193  52.624  1.00  0.00    -0.031 A 
HETATM   15  C11 UNL     1      20.703  -0.538  53.692  1.00  0.00     0.012 A 
HETATM   16  C12 UNL     1      19.382  -0.915  53.590  1.00  0.00     0.044 A 
HETATM   17  C13 UNL     1      18.561  -0.618  52.523  1.00  0.00     0.138 A 
HETATM   18  F1  UNL     1      17.290  -1.055  52.569  1.00  0.00    -0.204 F 
HETATM   19  C14 UNL     1      19.139   0.105  51.511  1.00  0.00     0.073 A 
HETATM   20 CL1  UNL     1      18.135   0.506  50.134  1.00  0.00    -0.081 Cl
HETATM   21  C15 UNL     1      20.446   0.530  51.509  1.00  0.00     0.036 A 
ENDBRANCH   8  14
BRANCH   1  22
HETATM   22  O1  UNL     1      28.290  -1.198  53.768  1.00  0.00    -0.356 OA
HETATM   23  C1  UNL     1      29.658  -0.900  53.713  1.00  0.00     0.210 C 
ENDBRANCH   1  22
TORSDOF 2
ENDMDL
MODEL 4
REMARK VINA RESULT:      -8.5      3.783      6.750
REMARK  2 active torsions:
REMARK  status: ('A' for Active; 'I' for Inactive)
REMARK    1  A    between atoms: O1_2  and  C2_3 
REMARK    2  A    between atoms: C9_10  and  C10_11 
ROOT
HETATM    1  C2  UNL     1      27.283   4.793  48.844  1.00  0.00     0.068 A 
HETATM    2  C3  UNL     1      26.482   5.879  48.516  1.00  0.00     0.039 A 
HETATM    3  C4  UNL     1      25.164   5.811  48.982  1.00  0.00     0.040 A 
HETATM    4  C5  UNL     1      24.625   4.776  49.715  1.00  0.00     0.083 A 
HETATM    5  C6  UNL     1      25.448   3.718  50.021  1.00  0.00    -0.019 A 
HETATM    6  C7  UNL     1      26.760   3.750  49.578  1.00  0.00     0.046 A 
HETATM    7  C8  UNL     1      25.094   2.504  50.793  1.00  0.00     0.073 C 
HETATM    8  C9  UNL     1      23.653   2.538  51.154  1.00  0.00     0.146 C 
HETATM    9  N1  UNL     1      22.828   2.769  49.996  1.00  0.00    -0.273 NA
HETATM   10  C16 UNL     1      22.069   3.804  49.890  1.00  0.00     0.229 C 
HETATM   11  N2  UNL     1      21.978   4.806  50.901  1.00  0.00    -0.230 NA
HETATM   12  C17 UNL     1      22.880   5.705  51.117  1.00  0.00     0.260 C 
HETATM   13  O2  UNL     1      23.312   4.915  50.067  1.00  0.00    -0.304 OA
ENDROOT
BRANCH   8  14
HETATM   14  C10 UNL     1      23.205   1.358  51.935  1.00  0.00    -0.031 A 
HETATM   15  C11 UNL     1      21.946   0.785  51.775  1.00  0.00     0.012 A 
HETATM   16  C12 UNL     1      21.670  -0.305  52.569  1.00  0.00     0.044 A 
HETATM   17  C13 UNL     1      22.544  -0.848  53.487  1.00  0.00     0.138 A 
HETATM   18  F1  UNL     1      22.129  -1.918  54.191  1.00  0.00    -0.204 F 
HETATM   19  C14 UNL     1      23.763  -0.229  53.587  1.00  0.00     0.073 A 
HETATM   20 CL1  UNL     1      24.906  -0.884  54.741  1.00  0.00    -0.081 Cl
HETATM   21  C15 UNL     1      24.141   0.864  52.845  1.00  0.00     0.036 A 
ENDBRANCH   8  14
BRANCH   1  22
HETATM   22  O1  UNL     1      28.601   4.791  48.417  1.00  0.00    -0.356 OA
HETATM   23  C1  UNL     1      29.282   5.964  48.068  1.00  0.00     0.210 C 
ENDBRANCH   1  22
TORSDOF 2
ENDMDL
MODEL 5
REMARK VINA RESULT:      -8.4      4.005      6.750
REMARK  2 active torsions:
REMARK  status: ('A' for Active; 'I' for Inactive)
REMARK    1  A    between atoms: O1_2  and  C2_3 
REMARK    2  A    between atoms: C9_10  and  C10_11 
ROOT
HETATM    1  C2  UNL     1      27.147   4.684  48.956  1.00  0.00     0.068 A 
HETATM    2  C3  UNL     1      26.287   5.730  48.648  1.00  0.00     0.039 A 
HETATM    3  C4  UNL     1      25.012   5.643  49.219  1.00  0.00     0.040 A 
HETATM    4  C5  UNL     1      24.566   4.626  50.034  1.00  0.00     0.083 A 
HETATM    5  C6  UNL     1      25.445   3.608  50.318  1.00  0.00    -0.019 A 
HETATM    6  C7  UNL     1      26.716   3.658  49.772  1.00  0.00     0.046 A 
HETATM    7  C8  UNL     1      25.192   2.419  51.165  1.00  0.00     0.073 C 
HETATM    8  C9  UNL     1      23.783   2.425  51.637  1.00  0.00     0.146 C 
HETATM    9  N1  UNL     1      22.864   2.580  50.539  1.00  0.00    -0.273 NA
HETATM   10  C16 UNL     1      22.065   3.587  50.451  1.00  0.00     0.229 C 
HETATM   11  N2  UNL     1      22.019   4.629  51.423  1.00  0.00    -0.230 NA
HETATM   12  C17 UNL     1      22.904   5.563  51.529  1.00  0.00     0.260 C 
HETATM   13  O2  UNL     1      23.280   4.741  50.483  1.00  0.00    -0.304 OA
ENDROOT
BRANCH   8  14
HETATM   14  C10 UNL     1      23.436   1.268  52.500  1.00  0.00    -0.031 A 
HETATM   15  C11 UNL     1      24.400   0.471  53.111  1.00  0.00     0.012 A 
HETATM   16  C12 UNL     1      23.927  -0.567  53.883  1.00  0.00     0.044 A 
HETATM   17  C13 UNL     1      22.593  -0.854  54.081  1.00  0.00     0.138 A 
HETATM   18  F1  UNL     1      22.287  -1.904  54.866  1.00  0.00    -0.204 F 
HETATM   19  C14 UNL     1      21.705  -0.023  53.448  1.00  0.00     0.073 A 
HETATM   20 CL1  UNL     1      20.000  -0.348  53.671  1.00  0.00    -0.081 Cl
HETATM   21  C15 UNL     1      22.067   1.039  52.654  1.00  0.00     0.036 A 
ENDBRANCH   8  14
BRANCH   1  22
HETATM   22  O1  UNL     1      28.427   4.702  48.428  1.00  0.00    -0.356 OA
HETATM   23  C1  UNL     1      29.116   5.892  48.162  1.00  0.00     0.210 C 
ENDBRANCH   1  22
TORSDOF 2
ENDMDL
MODEL 6
REMARK VINA RESULT:      -8.0      1.992      2.677
REMARK  2 active torsions:
REMARK  status: ('A' for Active; 'I' for Inactive)
REMARK    1  A    between atoms: O1_2  and  C2_3 
REMARK    2  A    between atoms: C9_10  and  C10_11 
ROOT
HETATM    1  C2  UNL     1      18.900  -0.579  52.822  1.00  0.00     0.068 A 
HETATM    2  C3  UNL     1      18.297  -0.100  51.667  1.00  0.00     0.039 A 
HETATM    3  C4  UNL     1      19.139   0.608  50.803  1.00  0.00     0.040 A 
HETATM    4  C5  UNL     1      20.478   0.855  51.013  1.00  0.00     0.083 A 
HETATM    5  C6  UNL     1      21.042   0.364  52.166  1.00  0.00    -0.019 A 
HETATM    6  C7  UNL     1      20.240  -0.342  53.047  1.00  0.00     0.046 A 
HETATM    7  C8  UNL     1      22.451   0.502  52.602  1.00  0.00     0.073 C 
HETATM    8  C9  UNL     1      23.202   1.335  51.627  1.00  0.00     0.146 C 
HETATM    9  N1  UNL     1      22.530   2.585  51.380  1.00  0.00    -0.273 NA
HETATM   10  C16 UNL     1      22.100   2.913  50.210  1.00  0.00     0.229 C 
HETATM   11  N2  UNL     1      22.250   2.075  49.065  1.00  0.00    -0.230 NA
HETATM   12  C17 UNL     1      21.540   1.020  48.840  1.00  0.00     0.260 C 
HETATM   13  O2  UNL     1      21.114   1.569  50.035  1.00  0.00    -0.304 OA
ENDROOT
BRANCH   8  14
HETATM   14  C10 UNL     1      24.631   1.528  51.980  1.00  0.00    -0.031 A 
HETATM   15  C11 UNL     1      25.497   2.300  51.210  1.00  0.00     0.012 A 
HETATM   16  C12 UNL     1      26.795   2.387  51.662  1.00  0.00     0.044 A 
HETATM   17  C13 UNL     1      27.273   1.773  52.800  1.00  0.00     0.138 A 
HETATM   18  F1  UNL     1      28.569   1.953  53.113  1.00  0.00    -0.204 F 
HETATM   19  C14 UNL     1      26.360   1.031  53.504  1.00  0.00     0.073 A 
HETATM   20 CL1  UNL     1      26.921   0.233  54.958  1.00  0.00    -0.081 Cl
HETATM   21  C15 UNL     1      25.043   0.876  53.144  1.00  0.00     0.036 A 
ENDBRANCH   8  14
BRANCH   1  22
HETATM   22  O1  UNL     1      18.127  -1.291  53.726  1.00  0.00    -0.356 OA
HETATM   23  C1  UNL     1      17.771  -2.630  53.523  1.00  0.00     0.210 C 
ENDBRANCH   1  22
TORSDOF 2
ENDMDL
MODEL 7
REMARK VINA RESULT:      -7.9      1.894      2.407
REMARK  2 active torsions:
REMARK  status: ('A' for Active; 'I' for Inactive)
REMARK    1  A    between atoms: O1_2  and  C2_3 
REMARK    2  A    between atoms: C9_10  and  C10_11 
ROOT
HETATM    1  C2  UNL     1      19.080   0.229  51.491  1.00  0.00     0.068 A 
HETATM    2  C3  UNL     1      18.974   1.279  50.588  1.00  0.00     0.039 A 
HETATM    3  C4  UNL     1      20.141   2.029  50.404  1.00  0.00     0.040 A 
HETATM    4  C5  UNL     1      21.345   1.806  51.036  1.00  0.00     0.083 A 
HETATM    5  C6  UNL     1      21.413   0.758  51.922  1.00  0.00    -0.019 A 
HETATM    6  C7  UNL     1      20.278  -0.008  52.131  1.00  0.00     0.046 A 
HETATM    7  C8  UNL     1      22.591   0.329  52.712  1.00  0.00     0.073 C 
HETATM    8  C9  UNL     1      23.726   1.258  52.470  1.00  0.00     0.146 C 
HETATM    9  N1  UNL     1      23.334   2.629  52.680  1.00  0.00    -0.273 NA
HETATM   10  C16 UNL     1      23.377   3.506  51.738  1.00  0.00     0.229 C 
HETATM   11  N2  UNL     1      23.811   3.202  50.414  1.00  0.00    -0.230 NA
HETATM   12  C17 UNL     1      23.103   2.559  49.546  1.00  0.00     0.260 C 
HETATM   13  O2  UNL     1      22.359   2.663  50.708  1.00  0.00    -0.304 OA
ENDROOT
BRANCH   8  14
HETATM   14  C10 UNL     1      24.958   0.906  53.220  1.00  0.00    -0.031 A 
HETATM   15  C11 UNL     1      25.046  -0.222  54.032  1.00  0.00     0.012 A 
HETATM   16  C12 UNL     1      26.252  -0.420  54.666  1.00  0.00     0.044 A 
HETATM   17  C13 UNL     1      27.348   0.409  54.545  1.00  0.00     0.138 A 
HETATM   18  F1  UNL     1      28.460   0.082  55.228  1.00  0.00    -0.204 F 
HETATM   19  C14 UNL     1      27.183   1.498  53.728  1.00  0.00     0.073 A 
HETATM   20 CL1  UNL     1      28.547   2.580  53.544  1.00  0.00    -0.081 Cl
HETATM   21  C15 UNL     1      26.024   1.791  53.050  1.00  0.00     0.036 A 
ENDBRANCH   8  14
BRANCH   1  22
HETATM   22  O1  UNL     1      17.964  -0.558  51.723  1.00  0.00    -0.356 OA
HETATM   23  C1  UNL     1      17.731  -1.192  52.950  1.00  0.00     0.210 C 
ENDBRANCH   1  22
TORSDOF 2
ENDMDL
MODEL 8
REMARK VINA RESULT:      -7.8      3.969      6.586
REMARK  2 active torsions:
REMARK  status: ('A' for Active; 'I' for Inactive)
REMARK    1  A    between atoms: O1_2  and  C2_3 
REMARK    2  A    between atoms: C9_10  and  C10_11 
ROOT
HETATM    1  C2  UNL     1      24.030   5.094  48.875  1.00  0.00     0.068 A 
HETATM    2  C3  UNL     1      25.382   5.257  49.145  1.00  0.00     0.039 A 
HETATM    3  C4  UNL     1      25.906   4.394  50.115  1.00  0.00     0.040 A 
HETATM    4  C5  UNL     1      25.197   3.431  50.797  1.00  0.00     0.083 A 
HETATM    5  C6  UNL     1      23.861   3.298  50.504  1.00  0.00    -0.019 A 
HETATM    6  C7  UNL     1      23.306   4.133  49.549  1.00  0.00     0.046 A 
HETATM    7  C8  UNL     1      22.905   2.337  51.103  1.00  0.00     0.073 C 
HETATM    8  C9  UNL     1      23.583   1.544  52.162  1.00  0.00     0.146 C 
HETATM    9  N1  UNL     1      24.245   2.400  53.114  1.00  0.00    -0.273 NA
HETATM   10  C16 UNL     1      25.519   2.362  53.300  1.00  0.00     0.229 C 
HETATM   11  N2  UNL     1      26.382   1.477  52.587  1.00  0.00    -0.230 NA
HETATM   12  C17 UNL     1      26.741   1.648  51.358  1.00  0.00     0.260 C 
HETATM   13  O2  UNL     1      25.909   2.697  51.705  1.00  0.00    -0.304 OA
ENDROOT
BRANCH   8  14
HETATM   14  C10 UNL     1      22.701   0.549  52.821  1.00  0.00    -0.031 A 
HETATM   15  C11 UNL     1      23.171  -0.365  53.761  1.00  0.00     0.012 A 
HETATM   16  C12 UNL     1      22.235  -1.228  54.288  1.00  0.00     0.044 A 
HETATM   17  C13 UNL     1      20.899  -1.238  53.949  1.00  0.00     0.138 A 
HETATM   18  F1  UNL     1      20.106  -2.143  54.552  1.00  0.00    -0.204 F 
HETATM   19  C14 UNL     1      20.513  -0.309  53.018  1.00  0.00     0.073 A 
HETATM   20 CL1  UNL     1      18.825  -0.284  52.556  1.00  0.00    -0.081 Cl
HETATM   21  C15 UNL     1      21.362   0.597  52.428  1.00  0.00     0.036 A 
ENDBRANCH   8  14
BRANCH   1  22
HETATM   22  O1  UNL     1      23.442   5.913  47.926  1.00  0.00    -0.356 OA
HETATM   23  C1  UNL     1      24.064   7.069  47.438  1.00  0.00     0.210 C 
ENDBRANCH   1  22
TORSDOF 2
ENDMDL
MODEL 9
REMARK VINA RESULT:      -7.8      2.940      5.449
REMARK  2 active torsions:
REMARK  status: ('A' for Active; 'I' for Inactive)
REMARK    1  A    between atoms: O1_2  and  C2_3 
REMARK    2  A    between atoms: C9_10  and  C10_11 
ROOT
HETATM    1  C2  UNL     1      25.168   6.126  48.505  1.00  0.00     0.068 A 
HETATM    2  C3  UNL     1      23.804   6.168  48.763  1.00  0.00     0.039 A 
HETATM    3  C4  UNL     1      23.347   5.245  49.711  1.00  0.00     0.040 A 
HETATM    4  C5  UNL     1      24.129   4.330  50.381  1.00  0.00     0.083 A 
HETATM    5  C6  UNL     1      25.475   4.318  50.101  1.00  0.00    -0.019 A 
HETATM    6  C7  UNL     1      25.965   5.217  49.168  1.00  0.00     0.046 A 
HETATM    7  C8  UNL     1      26.504   3.432  50.693  1.00  0.00     0.073 C 
HETATM    8  C9  UNL     1      25.863   2.463  51.620  1.00  0.00     0.146 C 
HETATM    9  N1  UNL     1      24.774   1.769  50.981  1.00  0.00    -0.273 NA
HETATM   10  C16 UNL     1      23.562   1.854  51.409  1.00  0.00     0.229 C 
HETATM   11  N2  UNL     1      23.192   2.636  52.542  1.00  0.00    -0.230 NA
HETATM   12  C17 UNL     1      23.096   3.925  52.536  1.00  0.00     0.260 C 
HETATM   13  O2  UNL     1      23.475   3.522  51.268  1.00  0.00    -0.304 OA
ENDROOT
BRANCH   8  14
HETATM   14  C10 UNL     1      26.820   1.531  52.267  1.00  0.00    -0.031 A 
HETATM   15  C11 UNL     1      27.921   1.972  52.996  1.00  0.00     0.012 A 
HETATM   16  C12 UNL     1      28.721   0.991  53.539  1.00  0.00     0.044 A 
HETATM   17  C13 UNL     1      28.501  -0.364  53.406  1.00  0.00     0.138 A 
HETATM   18  F1  UNL     1      29.373  -1.202  53.996  1.00  0.00    -0.204 F 
HETATM   19  C14 UNL     1      27.397  -0.719  52.674  1.00  0.00     0.073 A 
HETATM   20 CL1  UNL     1      27.077  -2.429  52.478  1.00  0.00    -0.081 Cl
HETATM   21  C15 UNL     1      26.534   0.176  52.088  1.00  0.00     0.036 A 
ENDBRANCH   8  14
BRANCH   1  22
HETATM   22  O1  UNL     1      25.693   7.011  47.577  1.00  0.00    -0.356 OA
HETATM   23  C1  UNL     1      25.167   8.293  47.377  1.00  0.00     0.210 C 
ENDBRANCH   1  22
TORSDOF 2
ENDMDL
