MODEL 1
REMARK VINA RESULT:      -8.1      0.000      0.000
REMARK  3 active torsions:
REMARK  status: ('A' for Active; 'I' for Inactive)
REMARK    1  A    between atoms: C12_17  and  C13_18 
REMARK    2  A    between atoms: C13_18  and  N5_19 
REMARK    3  A    between atoms: N5_19  and  C14_20 
ROOT
HETATM    1  C1  UNL     1      22.585   4.134  48.354  1.00  0.00     0.014 C 
HETATM    2  C2  UNL     1      23.359   3.305  49.041  1.00  0.00    -0.006 C 
HETATM    3  C3  UNL     1      22.805   1.922  49.138  1.00  0.00     0.041 C 
HETATM    4  C4  UNL     1      21.488   1.767  48.490  1.00  0.00    -0.009 C 
HETATM    5  C5  UNL     1      20.468   1.503  49.293  1.00  0.00     0.086 C 
HETATM    6  N1  UNL     1      20.581   1.372  50.683  1.00  0.00    -0.349 N 
HETATM    7  C6  UNL     1      20.323   0.483  51.756  1.00  0.00     0.160 A 
HETATM    8  N2  UNL     1      19.009   0.245  51.658  1.00  0.00    -0.220 NA
HETATM    9  C7  UNL     1      18.341  -0.571  52.513  1.00  0.00     0.258 A 
HETATM   10  N3  UNL     1      19.079  -1.137  53.482  1.00  0.00    -0.161 NA
HETATM   11  N4  UNL     1      20.371  -0.868  53.532  1.00  0.00    -0.237 N 
HETATM   12  C8  UNL     1      21.173  -1.394  54.472  1.00  0.00     0.122 A 
HETATM   13  C9  UNL     1      22.445  -0.923  54.257  1.00  0.00     0.058 A 
HETATM   14  C10 UNL     1      22.381  -0.083  53.139  1.00  0.00     0.103 A 
HETATM   15  C11 UNL     1      21.091  -0.081  52.731  1.00  0.00     0.137 A 
HETATM   16  O1  UNL     1      23.441   0.603  52.576  1.00  0.00    -0.342 OA
HETATM   17  C12 UNL     1      24.624   0.810  53.276  1.00  0.00     0.159 C 
HETATM   18  C16 UNL     1      25.158   2.203  53.307  1.00  0.00     0.060 C 
HETATM   19  C17 UNL     1      25.475   2.735  51.923  1.00  0.00     0.170 C 
HETATM   20  O2  UNL     1      24.331   2.800  51.142  1.00  0.00    -0.390 OA
HETATM   21  C18 UNL     1      24.642   3.233  49.845  1.00  0.00     0.178 C 
HETATM   22  H7  UNL     1      20.967   2.113  51.300  1.00  0.00     0.167 HD
ENDROOT
BRANCH  17  23
HETATM   23  C13 UNL     1      25.637  -0.175  52.708  1.00  0.00     0.301 C 
BRANCH  23  24
HETATM   24  N5  UNL     1      26.371  -0.867  53.730  1.00  0.00     0.085 N 
HETATM   25  H14 UNL     1      26.163  -0.485  54.700  1.00  0.00     0.315 HD
BRANCH  24  26
HETATM   26  C14 UNL     1      27.795  -0.564  53.519  1.00  0.00     0.265 C 
HETATM   27  C15 UNL     1      28.389   0.175  54.682  1.00  0.00     0.037 C 
ENDBRANCH  24  26
ENDBRANCH  23  24
ENDBRANCH  17  23
TORSDOF 3
ENDMDL
MODEL 2
REMARK VINA RESULT:      -8.1      2.148      5.232
REMARK  3 active torsions:
REMARK  status: ('A' for Active; 'I' for Inactive)
REMARK    1  A    between atoms: C12_17  and  C13_18 
REMARK    2  A    between atoms: C13_18  and  N5_19 
REMARK    3  A    between atoms: N5_19  and  C14_20 
ROOT
HETATM    1  C1  UNL     1      28.151  -0.154  53.316  1.00  0.00     0.014 C 
HETATM    2  C2  UNL     1      27.454   0.957  53.120  1.00  0.00    -0.006 C 
HETATM    3  C3  UNL     1      26.291   1.095  54.045  1.00  0.00     0.041 C 
HETATM    4  C4  UNL     1      26.124  -0.049  54.961  1.00  0.00    -0.009 C 
HETATM    5  C5  UNL     1      25.034  -0.782  54.791  1.00  0.00     0.086 C 
HETATM    6  N1  UNL     1      24.066  -0.527  53.811  1.00  0.00    -0.349 N 
HETATM    7  C6  UNL     1      22.683  -0.282  53.630  1.00  0.00     0.160 A 
HETATM    8  N2  UNL     1      22.099  -1.349  54.188  1.00  0.00    -0.220 NA
HETATM    9  C7  UNL     1      20.751  -1.515  54.229  1.00  0.00     0.258 A 
HETATM   10  N3  UNL     1      20.022  -0.536  53.670  1.00  0.00    -0.161 NA
HETATM   11  N4  UNL     1      20.650   0.494  53.134  1.00  0.00    -0.237 N 
HETATM   12  C8  UNL     1      19.989   1.509  52.554  1.00  0.00     0.122 A 
HETATM   13  C9  UNL     1      20.915   2.413  52.095  1.00  0.00     0.058 A 
HETATM   14  C10 UNL     1      22.176   1.899  52.422  1.00  0.00     0.103 A 
HETATM   15  C11 UNL     1      21.961   0.724  53.056  1.00  0.00     0.137 A 
HETATM   16  O1  UNL     1      23.393   2.493  52.143  1.00  0.00    -0.342 OA
HETATM   17  C12 UNL     1      23.507   3.499  51.191  1.00  0.00     0.159 C 
HETATM   18  C16 UNL     1      24.583   3.346  50.169  1.00  0.00     0.060 C 
HETATM   19  C17 UNL     1      25.967   3.292  50.787  1.00  0.00     0.170 C 
HETATM   20  O2  UNL     1      26.097   2.193  51.621  1.00  0.00    -0.390 OA
HETATM   21  C18 UNL     1      27.357   2.185  52.237  1.00  0.00     0.178 C 
HETATM   22  H7  UNL     1      24.278  -0.477  52.795  1.00  0.00     0.167 HD
ENDROOT
BRANCH  17  23
HETATM   23  C13 UNL     1      23.635   4.807  51.961  1.00  0.00     0.301 C 
BRANCH  23  24
HETATM   24  N5  UNL     1      22.458   5.623  51.868  1.00  0.00     0.085 N 
HETATM   25  H14 UNL     1      21.612   5.068  51.541  1.00  0.00     0.315 HD
BRANCH  24  26
HETATM   26  C14 UNL     1      22.691   6.598  50.792  1.00  0.00     0.265 C 
HETATM   27  C15 UNL     1      23.992   7.325  50.966  1.00  0.00     0.037 C 
ENDBRANCH  24  26
ENDBRANCH  23  24
ENDBRANCH  17  23
TORSDOF 3
ENDMDL
MODEL 3
REMARK VINA RESULT:      -7.6      1.832      4.951
REMARK  3 active torsions:
REMARK  status: ('A' for Active; 'I' for Inactive)
REMARK    1  A    between atoms: C12_17  and  C13_18 
REMARK    2  A    between atoms: C13_18  and  N5_19 
REMARK    3  A    between atoms: N5_19  and  C14_20 
ROOT
HETATM    1  C1  UNL     1      26.445   2.806  50.406  1.00  0.00     0.014 C 
HETATM    2  C2  UNL     1      25.151   3.081  50.309  1.00  0.00    -0.006 C 
HETATM    3  C3  UNL     1      24.436   3.027  51.617  1.00  0.00     0.041 C 
HETATM    4  C4  UNL     1      25.299   2.634  52.748  1.00  0.00    -0.009 C 
HETATM    5  C5  UNL     1      25.023   1.472  53.319  1.00  0.00     0.086 C 
HETATM    6  N1  UNL     1      23.984   0.626  52.909  1.00  0.00    -0.349 N 
HETATM    7  C6  UNL     1      22.823  -0.039  53.374  1.00  0.00     0.160 A 
HETATM    8  N2  UNL     1      23.273  -0.786  54.390  1.00  0.00    -0.220 NA
HETATM    9  C7  UNL     1      22.467  -1.596  55.124  1.00  0.00     0.258 A 
HETATM   10  N3  UNL     1      21.172  -1.611  54.771  1.00  0.00    -0.161 NA
HETATM   11  N4  UNL     1      20.782  -0.855  53.761  1.00  0.00    -0.237 N 
HETATM   12  C8  UNL     1      19.504  -0.820  53.349  1.00  0.00     0.122 A 
HETATM   13  C9  UNL     1      19.423   0.049  52.289  1.00  0.00     0.058 A 
HETATM   14  C10 UNL     1      20.716   0.543  52.073  1.00  0.00     0.103 A 
HETATM   15  C11 UNL     1      21.512  -0.040  52.998  1.00  0.00     0.137 A 
HETATM   16  O1  UNL     1      21.087   1.450  51.098  1.00  0.00    -0.342 OA
HETATM   17  C12 UNL     1      20.277   1.703  49.997  1.00  0.00     0.159 C 
HETATM   18  C16 UNL     1      20.923   1.652  48.654  1.00  0.00     0.060 C 
HETATM   19  C17 UNL     1      22.038   2.671  48.507  1.00  0.00     0.170 C 
HETATM   20  O2  UNL     1      23.058   2.425  49.413  1.00  0.00    -0.390 OA
HETATM   21  C18 UNL     1      24.055   3.407  49.314  1.00  0.00     0.178 C 
HETATM   22  H7  UNL     1      23.894   0.254  51.944  1.00  0.00     0.167 HD
ENDROOT
BRANCH  17  23
HETATM   23  C13 UNL     1      19.606   3.046  50.256  1.00  0.00     0.301 C 
BRANCH  23  24
HETATM   24  N5  UNL     1      20.235   3.785  51.313  1.00  0.00     0.085 N 
HETATM   25  H14 UNL     1      19.552   4.029  52.091  1.00  0.00     0.315 HD
BRANCH  24  26
HETATM   26  C14 UNL     1      20.628   5.088  50.755  1.00  0.00     0.265 C 
HETATM   27  C15 UNL     1      21.859   5.633  51.418  1.00  0.00     0.037 C 
ENDBRANCH  24  26
ENDBRANCH  23  24
ENDBRANCH  17  23
TORSDOF 3
ENDMDL
MODEL 4
REMARK VINA RESULT:      -7.3      2.647      6.434
REMARK  3 active torsions:
REMARK  status: ('A' for Active; 'I' for Inactive)
REMARK    1  A    between atoms: C12_17  and  C13_18 
REMARK    2  A    between atoms: C13_18  and  N5_19 
REMARK    3  A    between atoms: N5_19  and  C14_20 
ROOT
HETATM    1  C1  UNL     1      26.676   0.054  54.189  1.00  0.00     0.014 C 
HETATM    2  C2  UNL     1      25.445  -0.213  53.776  1.00  0.00    -0.006 C 
HETATM    3  C3  UNL     1      25.107   0.431  52.473  1.00  0.00     0.041 C 
HETATM    4  C4  UNL     1      26.191   1.270  51.928  1.00  0.00    -0.009 C 
HETATM    5  C5  UNL     1      25.948   2.570  51.860  1.00  0.00     0.086 C 
HETATM    6  N1  UNL     1      24.747   3.163  52.271  1.00  0.00    -0.349 N 
HETATM    7  C6  UNL     1      23.685   3.986  51.820  1.00  0.00     0.160 A 
HETATM    8  N2  UNL     1      24.303   5.098  51.406  1.00  0.00    -0.220 NA
HETATM    9  C7  UNL     1      23.637   6.165  50.892  1.00  0.00     0.258 A 
HETATM   10  N3  UNL     1      22.302   6.045  50.821  1.00  0.00    -0.161 NA
HETATM   11  N4  UNL     1      21.744   4.925  51.244  1.00  0.00    -0.237 N 
HETATM   12  C8  UNL     1      20.415   4.733  51.207  1.00  0.00     0.122 A 
HETATM   13  C9  UNL     1      20.153   3.485  51.715  1.00  0.00     0.058 A 
HETATM   14  C10 UNL     1      21.387   2.923  52.065  1.00  0.00     0.103 A 
HETATM   15  C11 UNL     1      22.330   3.843  51.758  1.00  0.00     0.137 A 
HETATM   16  O1  UNL     1      21.584   1.670  52.616  1.00  0.00    -0.342 OA
HETATM   17  C12 UNL     1      20.542   0.969  53.210  1.00  0.00     0.159 C 
HETATM   18  C16 UNL     1      20.793   0.405  54.568  1.00  0.00     0.060 C 
HETATM   19  C17 UNL     1      21.936  -0.592  54.581  1.00  0.00     0.170 C 
HETATM   20  O2  UNL     1      23.127   0.013  54.211  1.00  0.00    -0.390 OA
HETATM   21  C18 UNL     1      24.166  -0.928  54.165  1.00  0.00     0.178 C 
HETATM   22  H7  UNL     1      24.358   3.068  53.229  1.00  0.00     0.167 HD
ENDROOT
BRANCH  17  23
HETATM   23  C13 UNL     1      20.125  -0.107  52.215  1.00  0.00     0.301 C 
BRANCH  23  24
HETATM   24  N5  UNL     1      18.759  -0.517  52.381  1.00  0.00     0.085 N 
HETATM   25  H14 UNL     1      18.553  -1.432  51.881  1.00  0.00     0.315 HD
BRANCH  24  26
HETATM   26  C14 UNL     1      17.923   0.473  51.685  1.00  0.00     0.265 C 
HETATM   27  C15 UNL     1      18.297   0.603  50.237  1.00  0.00     0.037 C 
ENDBRANCH  24  26
ENDBRANCH  23  24
ENDBRANCH  17  23
TORSDOF 3
ENDMDL
MODEL 5
REMARK VINA RESULT:      -7.2      2.709      7.060
REMARK  3 active torsions:
REMARK  status: ('A' for Active; 'I' for Inactive)
REMARK    1  A    between atoms: C12_17  and  C13_18 
REMARK    2  A    between atoms: C13_18  and  N5_19 
REMARK    3  A    between atoms: N5_19  and  C14_20 
ROOT
HETATM    1  C1  UNL     1      26.145   0.241  54.471  1.00  0.00     0.014 C 
HETATM    2  C2  UNL     1      25.056   0.119  53.725  1.00  0.00    -0.006 C 
HETATM    3  C3  UNL     1      25.292   0.414  52.281  1.00  0.00     0.041 C 
HETATM    4  C4  UNL     1      26.677   0.825  51.980  1.00  0.00    -0.009 C 
HETATM    5  C5  UNL     1      26.841   2.071  51.563  1.00  0.00     0.086 C 
HETATM    6  N1  UNL     1      25.793   2.986  51.403  1.00  0.00    -0.349 N 
HETATM    7  C6  UNL     1      25.177   3.840  50.454  1.00  0.00     0.160 A 
HETATM    8  N2  UNL     1      26.175   4.637  50.055  1.00  0.00    -0.220 NA
HETATM    9  C7  UNL     1      26.010   5.621  49.134  1.00  0.00     0.258 A 
HETATM   10  N3  UNL     1      24.771   5.757  48.635  1.00  0.00    -0.161 NA
HETATM   11  N4  UNL     1      23.824   4.943  49.064  1.00  0.00    -0.237 N 
HETATM   12  C8  UNL     1      22.561   5.019  48.614  1.00  0.00     0.122 A 
HETATM   13  C9  UNL     1      21.824   4.050  49.249  1.00  0.00     0.058 A 
HETATM   14  C10 UNL     1      22.700   3.377  50.110  1.00  0.00     0.103 A 
HETATM   15  C11 UNL     1      23.911   3.960  49.962  1.00  0.00     0.137 A 
HETATM   16  O1  UNL     1      22.371   2.324  50.943  1.00  0.00    -0.342 OA
HETATM   17  C12 UNL     1      21.050   2.048  51.276  1.00  0.00     0.159 C 
HETATM   18  C16 UNL     1      20.741   1.861  52.723  1.00  0.00     0.060 C 
HETATM   19  C17 UNL     1      21.504   0.702  53.335  1.00  0.00     0.170 C 
HETATM   20  O2  UNL     1      22.871   0.923  53.280  1.00  0.00    -0.390 OA
HETATM   21  C18 UNL     1      23.571  -0.181  53.790  1.00  0.00     0.178 C 
HETATM   22  H7  UNL     1      25.141   3.252  52.167  1.00  0.00     0.167 HD
ENDROOT
BRANCH  17  23
HETATM   23  C13 UNL     1      20.642   0.837  50.446  1.00  0.00     0.301 C 
BRANCH  23  24
HETATM   24  N5  UNL     1      19.771   1.179  49.357  1.00  0.00     0.085 N 
HETATM   25  H14 UNL     1      20.046   2.099  48.899  1.00  0.00     0.315 HD
BRANCH  24  26
HETATM   26  C14 UNL     1      18.443   1.443  49.933  1.00  0.00     0.265 C 
HETATM   27  C15 UNL     1      17.673   0.178  50.169  1.00  0.00     0.037 C 
ENDBRANCH  24  26
ENDBRANCH  23  24
ENDBRANCH  17  23
TORSDOF 3
ENDMDL
MODEL 6
REMARK VINA RESULT:      -7.1      2.464      6.975
REMARK  3 active torsions:
REMARK  status: ('A' for Active; 'I' for Inactive)
REMARK    1  A    between atoms: C12_17  and  C13_18 
REMARK    2  A    between atoms: C13_18  and  N5_19 
REMARK    3  A    between atoms: N5_19  and  C14_20 
ROOT
HETATM    1  C1  UNL     1      20.449  -0.204  54.564  1.00  0.00     0.014 C 
HETATM    2  C2  UNL     1      20.491   0.222  53.310  1.00  0.00    -0.006 C 
HETATM    3  C3  UNL     1      21.734  -0.184  52.589  1.00  0.00     0.041 C 
HETATM    4  C4  UNL     1      22.684  -0.938  53.429  1.00  0.00    -0.009 C 
HETATM    5  C5  UNL     1      23.839  -0.343  53.685  1.00  0.00     0.086 C 
HETATM    6  N1  UNL     1      24.185   0.930  53.212  1.00  0.00    -0.349 N 
HETATM    7  C6  UNL     1      25.168   1.626  52.466  1.00  0.00     0.160 A 
HETATM    8  N2  UNL     1      26.305   1.362  53.122  1.00  0.00    -0.220 NA
HETATM    9  C7  UNL     1      27.511   1.849  52.732  1.00  0.00     0.258 A 
HETATM   10  N3  UNL     1      27.505   2.624  51.636  1.00  0.00    -0.161 NA
HETATM   11  N4  UNL     1      26.355   2.852  51.028  1.00  0.00    -0.237 N 
HETATM   12  C8  UNL     1      26.269   3.619  49.929  1.00  0.00     0.122 A 
HETATM   13  C9  UNL     1      24.952   3.663  49.543  1.00  0.00     0.058 A 
HETATM   14  C10 UNL     1      24.237   2.885  50.462  1.00  0.00     0.103 A 
HETATM   15  C11 UNL     1      25.139   2.411  51.351  1.00  0.00     0.137 A 
HETATM   16  O1  UNL     1      22.873   2.658  50.447  1.00  0.00    -0.342 OA
HETATM   17  C12 UNL     1      22.012   3.469  49.717  1.00  0.00     0.159 C 
HETATM   18  C16 UNL     1      20.813   3.998  50.429  1.00  0.00     0.060 C 
HETATM   19  C17 UNL     1      19.905   2.894  50.938  1.00  0.00     0.170 C 
HETATM   20  O2  UNL     1      20.561   2.100  51.866  1.00  0.00    -0.390 OA
HETATM   21  C18 UNL     1      19.736   1.045  52.285  1.00  0.00     0.178 C 
HETATM   22  H7  UNL     1      23.622   1.783  53.396  1.00  0.00     0.167 HD
ENDROOT
BRANCH  17  23
HETATM   23  C13 UNL     1      21.631   2.680  48.471  1.00  0.00     0.301 C 
BRANCH  23  24
HETATM   24  N5  UNL     1      20.940   3.478  47.498  1.00  0.00     0.085 N 
HETATM   25  H14 UNL     1      20.299   2.893  46.884  1.00  0.00     0.315 HD
BRANCH  24  26
HETATM   26  C14 UNL     1      21.954   4.001  46.570  1.00  0.00     0.265 C 
HETATM   27  C15 UNL     1      21.527   3.864  45.138  1.00  0.00     0.037 C 
ENDBRANCH  24  26
ENDBRANCH  23  24
ENDBRANCH  17  23
TORSDOF 3
ENDMDL
MODEL 7
REMARK VINA RESULT:      -7.0      2.412      5.429
REMARK  3 active torsions:
REMARK  status: ('A' for Active; 'I' for Inactive)
REMARK    1  A    between atoms: C12_17  and  C13_18 
REMARK    2  A    between atoms: C13_18  and  N5_19 
REMARK    3  A    between atoms: N5_19  and  C14_20 
ROOT
HETATM    1  C1  UNL     1      25.790  -0.865  53.031  1.00  0.00     0.014 C 
HETATM    2  C2  UNL     1      25.744   0.432  52.760  1.00  0.00    -0.006 C 
HETATM    3  C3  UNL     1      24.420   1.053  53.060  1.00  0.00     0.041 C 
HETATM    4  C4  UNL     1      23.415   0.092  53.554  1.00  0.00    -0.009 C 
HETATM    5  C5  UNL     1      22.374  -0.123  52.765  1.00  0.00     0.086 C 
HETATM    6  N1  UNL     1      22.192   0.497  51.522  1.00  0.00    -0.349 N 
HETATM    7  C6  UNL     1      21.283   1.293  50.782  1.00  0.00     0.160 A 
HETATM    8  N2  UNL     1      20.156   0.572  50.790  1.00  0.00    -0.220 NA
HETATM    9  C7  UNL     1      19.014   0.981  50.179  1.00  0.00     0.258 A 
HETATM   10  N3  UNL     1      19.076   2.167  49.553  1.00  0.00    -0.161 NA
HETATM   11  N4  UNL     1      20.213   2.836  49.576  1.00  0.00    -0.237 N 
HETATM   12  C8  UNL     1      20.352   4.027  48.971  1.00  0.00     0.122 A 
HETATM   13  C9  UNL     1      21.640   4.459  49.173  1.00  0.00     0.058 A 
HETATM   14  C10 UNL     1      22.282   3.472  49.931  1.00  0.00     0.103 A 
HETATM   15  C11 UNL     1      21.368   2.500  50.153  1.00  0.00     0.137 A 
HETATM   16  O1  UNL     1      23.596   3.503  50.361  1.00  0.00    -0.342 OA
HETATM   17  C12 UNL     1      24.527   4.359  49.784  1.00  0.00     0.159 C 
HETATM   18  C16 UNL     1      25.825   3.761  49.358  1.00  0.00     0.060 C 
HETATM   19  C17 UNL     1      26.588   3.145  50.516  1.00  0.00     0.170 C 
HETATM   20  O2  UNL     1      25.873   2.102  51.083  1.00  0.00    -0.390 OA
HETATM   21  C18 UNL     1      26.556   1.579  52.191  1.00  0.00     0.178 C 
HETATM   22  H7  UNL     1      22.881   0.443  50.748  1.00  0.00     0.167 HD
ENDROOT
BRANCH  17  23
HETATM   23  C13 UNL     1      24.724   5.506  50.768  1.00  0.00     0.301 C 
BRANCH  23  24
HETATM   24  N5  UNL     1      25.741   6.428  50.348  1.00  0.00     0.085 N 
HETATM   25  H14 UNL     1      26.529   6.503  51.058  1.00  0.00     0.315 HD
BRANCH  24  26
HETATM   26  C14 UNL     1      25.133   7.767  50.339  1.00  0.00     0.265 C 
HETATM   27  C15 UNL     1      23.697   7.734  50.772  1.00  0.00     0.037 C 
ENDBRANCH  24  26
ENDBRANCH  23  24
ENDBRANCH  17  23
TORSDOF 3
ENDMDL
MODEL 8
REMARK VINA RESULT:      -6.9      9.386     12.735
REMARK  3 active torsions:
REMARK  status: ('A' for Active; 'I' for Inactive)
REMARK    1  A    between atoms: C12_17  and  C13_18 
REMARK    2  A    between atoms: C13_18  and  N5_19 
REMARK    3  A    between atoms: N5_19  and  C14_20 
ROOT
HETATM    1  C1  UNL     1      26.015   7.495  50.110  1.00  0.00     0.014 C 
HETATM    2  C2  UNL     1      26.687   8.338  49.339  1.00  0.00    -0.006 C 
HETATM    3  C3  UNL     1      27.432   7.664  48.236  1.00  0.00     0.041 C 
HETATM    4  C4  UNL     1      27.309   6.193  48.251  1.00  0.00    -0.009 C 
HETATM    5  C5  UNL     1      28.419   5.515  48.501  1.00  0.00     0.086 C 
HETATM    6  N1  UNL     1      29.662   6.113  48.746  1.00  0.00    -0.349 N 
HETATM    7  C6  UNL     1      31.006   6.143  48.298  1.00  0.00     0.160 A 
HETATM    8  N2  UNL     1      31.397   4.867  48.393  1.00  0.00    -0.220 NA
HETATM    9  C7  UNL     1      32.646   4.451  48.056  1.00  0.00     0.258 A 
HETATM   10  N3  UNL     1      33.483   5.403  47.617  1.00  0.00    -0.161 NA
HETATM   11  N4  UNL     1      33.045   6.647  47.543  1.00  0.00    -0.237 N 
HETATM   12  C8  UNL     1      33.825   7.654  47.116  1.00  0.00     0.122 A 
HETATM   13  C9  UNL     1      33.086   8.810  47.158  1.00  0.00     0.058 A 
HETATM   14  C10 UNL     1      31.815   8.461  47.632  1.00  0.00     0.103 A 
HETATM   15  C11 UNL     1      31.840   7.127  47.854  1.00  0.00     0.137 A 
HETATM   16  O1  UNL     1      30.755   9.326  47.829  1.00  0.00    -0.342 OA
HETATM   17  C12 UNL     1      30.946  10.700  47.911  1.00  0.00     0.159 C 
HETATM   18  C16 UNL     1      30.317  11.404  49.066  1.00  0.00     0.060 C 
HETATM   19  C17 UNL     1      28.807  11.261  49.081  1.00  0.00     0.170 C 
HETATM   20  O2  UNL     1      28.436   9.933  49.217  1.00  0.00    -0.390 OA
HETATM   21  C18 UNL     1      27.040   9.802  49.167  1.00  0.00     0.178 C 
HETATM   22  H7  UNL     1      29.828   6.803  49.504  1.00  0.00     0.167 HD
ENDROOT
BRANCH  17  23
HETATM   23  C13 UNL     1      30.492  11.277  46.576  1.00  0.00     0.301 C 
BRANCH  23  24
HETATM   24  N5  UNL     1      30.850  12.658  46.419  1.00  0.00     0.085 N 
HETATM   25  H14 UNL     1      31.102  13.114  47.346  1.00  0.00     0.315 HD
BRANCH  24  26
HETATM   26  C14 UNL     1      29.640  13.371  45.981  1.00  0.00     0.265 C 
HETATM   27  C15 UNL     1      29.191  14.386  46.991  1.00  0.00     0.037 C 
ENDBRANCH  24  26
ENDBRANCH  23  24
ENDBRANCH  17  23
TORSDOF 3
ENDMDL
MODEL 9
REMARK VINA RESULT:      -6.6     10.844     14.100
REMARK  3 active torsions:
REMARK  status: ('A' for Active; 'I' for Inactive)
REMARK    1  A    between atoms: C12_17  and  C13_18 
REMARK    2  A    between atoms: C13_18  and  N5_19 
REMARK    3  A    between atoms: N5_19  and  C14_20 
ROOT
HETATM    1  C1  UNL     1      34.963   3.227  45.954  1.00  0.00     0.014 C 
HETATM    2  C2  UNL     1      33.804   3.749  46.334  1.00  0.00    -0.006 C 
HETATM    3  C3  UNL     1      33.180   4.621  45.296  1.00  0.00     0.041 C 
HETATM    4  C4  UNL     1      33.996   4.764  44.075  1.00  0.00    -0.009 C 
HETATM    5  C5  UNL     1      34.477   5.974  43.831  1.00  0.00     0.086 C 
HETATM    6  N1  UNL     1      34.254   7.085  44.655  1.00  0.00    -0.349 N 
HETATM    7  C6  UNL     1      33.748   8.408  44.649  1.00  0.00     0.160 A 
HETATM    8  N2  UNL     1      34.482   9.022  43.713  1.00  0.00    -0.220 NA
HETATM    9  C7  UNL     1      34.319  10.330  43.387  1.00  0.00     0.258 A 
HETATM   10  N3  UNL     1      33.366  10.989  44.064  1.00  0.00    -0.161 NA
HETATM   11  N4  UNL     1      32.670  10.335  44.977  1.00  0.00    -0.237 N 
HETATM   12  C8  UNL     1      31.703  10.927  45.696  1.00  0.00     0.122 A 
HETATM   13  C9  UNL     1      31.177   9.992  46.553  1.00  0.00     0.058 A 
HETATM   14  C10 UNL     1      31.872   8.798  46.322  1.00  0.00     0.103 A 
HETATM   15  C11 UNL     1      32.775   9.059  45.349  1.00  0.00     0.137 A 
HETATM   16  O1  UNL     1      31.661   7.596  46.972  1.00  0.00    -0.342 OA
HETATM   17  C12 UNL     1      30.972   7.535  48.177  1.00  0.00     0.159 C 
HETATM   18  C16 UNL     1      31.613   6.771  49.286  1.00  0.00     0.060 C 
HETATM   19  C17 UNL     1      31.831   5.312  48.936  1.00  0.00     0.170 C 
HETATM   20  O2  UNL     1      32.693   5.183  47.858  1.00  0.00    -0.390 OA
HETATM   21  C18 UNL     1      32.840   3.835  47.501  1.00  0.00     0.178 C 
HETATM   22  H7  UNL     1      34.503   7.111  45.662  1.00  0.00     0.167 HD
ENDROOT
BRANCH  17  23
HETATM   23  C13 UNL     1      29.581   7.006  47.852  1.00  0.00     0.301 C 
BRANCH  23  24
HETATM   24  N5  UNL     1      28.637   7.240  48.907  1.00  0.00     0.085 N 
HETATM   25  H14 UNL     1      28.974   6.852  49.838  1.00  0.00     0.315 HD
BRANCH  24  26
HETATM   26  C14 UNL     1      27.437   6.447  48.598  1.00  0.00     0.265 C 
HETATM   27  C15 UNL     1      27.726   4.975  48.587  1.00  0.00     0.037 C 
ENDBRANCH  24  26
ENDBRANCH  23  24
ENDBRANCH  17  23
TORSDOF 3
ENDMDL
