MODEL 1
REMARK VINA RESULT:      -8.7      0.000      0.000
REMARK  6 active torsions:
REMARK  status: ('A' for Active; 'I' for Inactive)
REMARK    1  A    between atoms: N1_1  and  C1_2 
REMARK    2  A    between atoms: N3_4  and  C2_5 
REMARK    3  A    between atoms: C6_10  and  C7_11 
REMARK    4  A    between atoms: C10_16  and  C11_17 
REMARK    5  A    between atoms: C11_17  and  C12_18 
REMARK    6  A    between atoms: C12_18  and  C13_19 
ROOT
HETATM    1  C1  UNL     1      22.443  -0.117  53.436  1.00  0.00     0.738 C 
HETATM    2  N2  UNL     1      23.628  -0.530  53.714  1.00  0.00     0.022 NA
HETATM    3  N3  UNL     1      24.725   0.298  53.358  1.00  0.00    -0.237 N 
HETATM    4  C9  UNL     1      24.547   1.658  53.161  1.00  0.00     0.219 C 
HETATM    5  P1  UNL     1      25.486   2.539  51.776  1.00  0.00     0.001 P 
HETATM    6  C10 UNL     1      24.272   3.819  51.507  1.00  0.00     0.022 C 
HETATM    7  N4  UNL     1      22.995   3.319  52.149  1.00  0.00    -0.344 N 
HETATM    8  C19 UNL     1      23.191   2.014  52.705  1.00  0.00     0.153 C 
HETATM    9  N5  UNL     1      22.207   1.168  52.912  1.00  0.00    -0.046 NA
HETATM   10  H18 UNL     1      22.084   3.849  52.192  1.00  0.00     0.167 HD
ENDROOT
BRANCH   3  11
HETATM   11  C2  UNL     1      25.954  -0.427  53.247  1.00  0.00     0.055 A 
HETATM   12  C3  UNL     1      26.070  -1.638  52.605  1.00  0.00     0.034 A 
HETATM   13  C4  UNL     1      27.213  -2.391  52.466  1.00  0.00     0.045 A 
HETATM   14  C5  UNL     1      28.379  -1.877  53.034  1.00  0.00     0.125 A 
HETATM   15  F1  UNL     1      29.558  -2.538  52.954  1.00  0.00    -0.205 F 
HETATM   16  C6  UNL     1      28.353  -0.675  53.692  1.00  0.00     0.011 A 
HETATM   17  C8  UNL     1      27.164  -0.001  53.776  1.00  0.00     0.044 A 
BRANCH  16  18
HETATM   18  C7  UNL     1      29.601  -0.139  54.293  1.00  0.00     0.264 C 
HETATM   19  F2  UNL     1      30.595   0.008  53.365  1.00  0.00    -0.250 F 
ENDBRANCH  16  18
ENDBRANCH   3  11
BRANCH   1  20
HETATM   20  N1  UNL     1      21.272  -0.902  53.751  1.00  0.00    -0.230 N 
HETATM   21  H1  UNL     1      20.583  -0.405  54.357  1.00  0.00     0.174 HD
HETATM   22  H2  UNL     1      21.320  -1.847  53.310  1.00  0.00     0.174 HD
ENDBRANCH   1  20
BRANCH   6  23
HETATM   23  C11 UNL     1      24.003   5.086  50.646  1.00  0.00     0.063 C 
BRANCH  23  24
HETATM   24  C12 UNL     1      24.290   4.815  49.211  1.00  0.00     0.044 C 
BRANCH  24  25
HETATM   25  C13 UNL     1      25.616   5.424  48.844  1.00  0.00    -0.058 A 
HETATM   26  C14 UNL     1      26.761   4.634  48.928  1.00  0.00     0.007 A 
HETATM   27  C15 UNL     1      28.014   5.159  48.598  1.00  0.00     0.001 A 
HETATM   28  C16 UNL     1      28.110   6.470  48.187  1.00  0.00     0.000 A 
HETATM   29  C17 UNL     1      26.961   7.242  48.109  1.00  0.00     0.001 A 
HETATM   30  C18 UNL     1      25.711   6.720  48.437  1.00  0.00     0.007 A 
ENDBRANCH  24  25
ENDBRANCH  23  24
ENDBRANCH   6  23
TORSDOF 6
ENDMDL
MODEL 2
REMARK VINA RESULT:      -8.7      2.836      6.741
REMARK  6 active torsions:
REMARK  status: ('A' for Active; 'I' for Inactive)
REMARK    1  A    between atoms: N1_1  and  C1_2 
REMARK    2  A    between atoms: N3_4  and  C2_5 
REMARK    3  A    between atoms: C6_10  and  C7_11 
REMARK    4  A    between atoms: C10_16  and  C11_17 
REMARK    5  A    between atoms: C11_17  and  C12_18 
REMARK    6  A    between atoms: C12_18  and  C13_19 
ROOT
HETATM    1  C1  UNL     1      25.012   3.562  51.305  1.00  0.00     0.738 C 
HETATM    2  N2  UNL     1      25.990   2.738  51.441  1.00  0.00     0.022 NA
HETATM    3  N3  UNL     1      25.734   1.500  52.089  1.00  0.00    -0.237 N 
HETATM    4  C9  UNL     1      24.449   0.989  52.151  1.00  0.00     0.219 C 
HETATM    5  P1  UNL     1      23.860   0.110  53.720  1.00  0.00     0.001 P 
HETATM    6  C10 UNL     1      22.131   0.505  53.522  1.00  0.00     0.022 C 
HETATM    7  N4  UNL     1      22.079   1.648  52.531  1.00  0.00    -0.344 N 
HETATM    8  C19 UNL     1      23.401   2.027  52.132  1.00  0.00     0.153 C 
HETATM    9  N5  UNL     1      23.694   3.218  51.662  1.00  0.00    -0.046 NA
HETATM   10  H18 UNL     1      21.200   2.107  52.173  1.00  0.00     0.167 HD
ENDROOT
BRANCH   3  11
HETATM   11  C2  UNL     1      26.918   0.899  52.623  1.00  0.00     0.055 A 
HETATM   12  C3  UNL     1      27.923   1.609  53.239  1.00  0.00     0.034 A 
HETATM   13  C4  UNL     1      29.087   1.101  53.767  1.00  0.00     0.045 A 
HETATM   14  C5  UNL     1      29.274  -0.279  53.670  1.00  0.00     0.125 A 
HETATM   15  F1  UNL     1      30.384  -0.880  54.158  1.00  0.00    -0.205 F 
HETATM   16  C6  UNL     1      28.321  -1.062  53.073  1.00  0.00     0.011 A 
HETATM   17  C8  UNL     1      27.196  -0.459  52.577  1.00  0.00     0.044 A 
BRANCH  16  18
HETATM   18  C7  UNL     1      28.531  -2.529  52.976  1.00  0.00     0.264 C 
HETATM   19  F2  UNL     1      27.475  -3.159  52.376  1.00  0.00    -0.250 F 
ENDBRANCH  16  18
ENDBRANCH   3  11
BRANCH   1  20
HETATM   20  N1  UNL     1      25.186   4.848  50.670  1.00  0.00    -0.230 N 
HETATM   21  H1  UNL     1      25.089   5.655  51.323  1.00  0.00     0.174 HD
HETATM   22  H2  UNL     1      25.382   4.742  49.650  1.00  0.00     0.174 HD
ENDBRANCH   1  20
BRANCH   6  23
HETATM   23  C11 UNL     1      20.744   0.282  54.189  1.00  0.00     0.063 C 
BRANCH  23  24
HETATM   24  C12 UNL     1      20.215  -1.070  53.860  1.00  0.00     0.044 C 
BRANCH  24  25
HETATM   25  C13 UNL     1      18.957  -0.928  53.046  1.00  0.00    -0.058 A 
HETATM   26  C14 UNL     1      18.980  -0.111  51.917  1.00  0.00     0.007 A 
HETATM   27  C15 UNL     1      17.834   0.051  51.132  1.00  0.00     0.001 A 
HETATM   28  C16 UNL     1      16.676  -0.606  51.484  1.00  0.00     0.000 A 
HETATM   29  C17 UNL     1      16.670  -1.414  52.610  1.00  0.00     0.001 A 
HETATM   30  C18 UNL     1      17.812  -1.577  53.394  1.00  0.00     0.007 A 
ENDBRANCH  24  25
ENDBRANCH  23  24
ENDBRANCH   6  23
TORSDOF 6
ENDMDL
MODEL 3
REMARK VINA RESULT:      -8.7      3.578      5.136
REMARK  6 active torsions:
REMARK  status: ('A' for Active; 'I' for Inactive)
REMARK    1  A    between atoms: N1_1  and  C1_2 
REMARK    2  A    between atoms: N3_4  and  C2_5 
REMARK    3  A    between atoms: C6_10  and  C7_11 
REMARK    4  A    between atoms: C10_16  and  C11_17 
REMARK    5  A    between atoms: C11_17  and  C12_18 
REMARK    6  A    between atoms: C12_18  and  C13_19 
ROOT
HETATM    1  C1  UNL     1      26.625   0.525  54.284  1.00  0.00     0.738 C 
HETATM    2  N2  UNL     1      25.494  -0.067  54.137  1.00  0.00     0.022 NA
HETATM    3  N3  UNL     1      24.643   0.369  53.087  1.00  0.00    -0.237 N 
HETATM    4  C9  UNL     1      25.161   1.048  51.996  1.00  0.00     0.219 C 
HETATM    5  P1  UNL     1      24.190   2.480  51.231  1.00  0.00     0.001 P 
HETATM    6  C10 UNL     1      25.611   3.366  50.615  1.00  0.00     0.022 C 
HETATM    7  N4  UNL     1      26.802   2.808  51.365  1.00  0.00    -0.344 N 
HETATM    8  C19 UNL     1      26.383   1.813  52.305  1.00  0.00     0.153 C 
HETATM    9  N5  UNL     1      27.084   1.490  53.368  1.00  0.00    -0.046 NA
HETATM   10  H18 UNL     1      27.807   3.098  51.221  1.00  0.00     0.167 HD
ENDROOT
BRANCH   3  11
HETATM   11  C2  UNL     1      23.272   0.022  53.304  1.00  0.00     0.055 A 
HETATM   12  C3  UNL     1      22.850  -0.844  54.286  1.00  0.00     0.034 A 
HETATM   13  C4  UNL     1      21.554  -1.226  54.546  1.00  0.00     0.045 A 
HETATM   14  C5  UNL     1      20.560  -0.681  53.732  1.00  0.00     0.125 A 
HETATM   15  F1  UNL     1      19.253  -0.991  53.904  1.00  0.00    -0.205 F 
HETATM   16  C6  UNL     1      20.893   0.192  52.730  1.00  0.00     0.011 A 
HETATM   17  C8  UNL     1      22.213   0.510  52.551  1.00  0.00     0.044 A 
BRANCH  16  18
HETATM   18  C7  UNL     1      19.826   0.766  51.870  1.00  0.00     0.264 C 
HETATM   19  F2  UNL     1      19.226  -0.187  51.093  1.00  0.00    -0.250 F 
ENDBRANCH  16  18
ENDBRANCH   3  11
BRANCH   1  20
HETATM   20  N1  UNL     1      27.545   0.154  55.334  1.00  0.00    -0.230 N 
HETATM   21  H1  UNL     1      28.376  -0.378  54.997  1.00  0.00     0.174 HD
HETATM   22  H2  UNL     1      27.211   0.488  56.265  1.00  0.00     0.174 HD
ENDBRANCH   1  20
BRANCH   6  23
HETATM   23  C11 UNL     1      26.003   4.642  49.817  1.00  0.00     0.063 C 
BRANCH  23  24
HETATM   24  C12 UNL     1      27.203   4.385  48.974  1.00  0.00     0.044 C 
BRANCH  24  25
HETATM   25  C13 UNL     1      27.693   5.686  48.396  1.00  0.00    -0.058 A 
HETATM   26  C14 UNL     1      29.040   5.801  48.059  1.00  0.00     0.007 A 
HETATM   27  C15 UNL     1      29.540   6.991  47.520  1.00  0.00     0.001 A 
HETATM   28  C16 UNL     1      28.687   8.054  47.324  1.00  0.00     0.000 A 
HETATM   29  C17 UNL     1      27.350   7.922  47.667  1.00  0.00     0.001 A 
HETATM   30  C18 UNL     1      26.850   6.737  48.203  1.00  0.00     0.007 A 
ENDBRANCH  24  25
ENDBRANCH  23  24
ENDBRANCH   6  23
TORSDOF 6
ENDMDL
MODEL 4
REMARK VINA RESULT:      -8.2      0.941      1.954
REMARK  6 active torsions:
REMARK  status: ('A' for Active; 'I' for Inactive)
REMARK    1  A    between atoms: N1_1  and  C1_2 
REMARK    2  A    between atoms: N3_4  and  C2_5 
REMARK    3  A    between atoms: C6_10  and  C7_11 
REMARK    4  A    between atoms: C10_16  and  C11_17 
REMARK    5  A    between atoms: C11_17  and  C12_18 
REMARK    6  A    between atoms: C12_18  and  C13_19 
ROOT
HETATM    1  C1  UNL     1      22.800  -0.551  53.597  1.00  0.00     0.738 C 
HETATM    2  N2  UNL     1      24.027  -0.527  53.978  1.00  0.00     0.022 NA
HETATM    3  N3  UNL     1      24.835   0.564  53.562  1.00  0.00    -0.237 N 
HETATM    4  C9  UNL     1      24.257   1.762  53.177  1.00  0.00     0.219 C 
HETATM    5  P1  UNL     1      24.984   2.736  51.727  1.00  0.00     0.001 P 
HETATM    6  C10 UNL     1      23.457   3.519  51.238  1.00  0.00     0.022 C 
HETATM    7  N4  UNL     1      22.353   2.711  51.886  1.00  0.00    -0.344 N 
HETATM    8  C19 UNL     1      22.901   1.610  52.619  1.00  0.00     0.153 C 
HETATM    9  N5  UNL     1      22.218   0.522  52.896  1.00  0.00    -0.046 NA
HETATM   10  H18 UNL     1      21.321   2.921  51.819  1.00  0.00     0.167 HD
ENDROOT
BRANCH   3  11
HETATM   11  C2  UNL     1      26.234   0.265  53.601  1.00  0.00     0.055 A 
HETATM   12  C3  UNL     1      27.192   1.151  54.035  1.00  0.00     0.034 A 
HETATM   13  C4  UNL     1      28.550   0.935  54.093  1.00  0.00     0.045 A 
HETATM   14  C5  UNL     1      29.008  -0.313  53.667  1.00  0.00     0.125 A 
HETATM   15  F1  UNL     1      30.324  -0.629  53.684  1.00  0.00    -0.205 F 
HETATM   16  C6  UNL     1      28.120  -1.257  53.220  1.00  0.00     0.011 A 
HETATM   17  C8  UNL     1      26.787  -0.943  53.201  1.00  0.00     0.044 A 
BRANCH  16  18
HETATM   18  C7  UNL     1      28.620  -2.581  52.770  1.00  0.00     0.264 C 
HETATM   19  F2  UNL     1      29.382  -3.194  53.727  1.00  0.00    -0.250 F 
ENDBRANCH  16  18
ENDBRANCH   3  11
BRANCH   1  20
HETATM   20  N1  UNL     1      21.912  -1.630  53.964  1.00  0.00    -0.230 N 
HETATM   21  H1  UNL     1      21.680  -1.655  54.980  1.00  0.00     0.174 HD
HETATM   22  H2  UNL     1      21.654  -2.206  53.133  1.00  0.00     0.174 HD
ENDBRANCH   1  20
BRANCH   6  23
HETATM   23  C11 UNL     1      22.877   4.526  50.205  1.00  0.00     0.063 C 
BRANCH  23  24
HETATM   24  C12 UNL     1      23.509   4.330  48.871  1.00  0.00     0.044 C 
BRANCH  24  25
HETATM   25  C13 UNL     1      24.507   5.430  48.627  1.00  0.00    -0.058 A 
HETATM   26  C14 UNL     1      24.067   6.613  48.036  1.00  0.00     0.007 A 
HETATM   27  C15 UNL     1      24.959   7.661  47.790  1.00  0.00     0.001 A 
HETATM   28  C16 UNL     1      26.284   7.516  48.138  1.00  0.00     0.000 A 
HETATM   29  C17 UNL     1      26.705   6.332  48.724  1.00  0.00     0.001 A 
HETATM   30  C18 UNL     1      25.816   5.287  48.971  1.00  0.00     0.007 A 
ENDBRANCH  24  25
ENDBRANCH  23  24
ENDBRANCH   6  23
TORSDOF 6
ENDMDL
MODEL 5
REMARK VINA RESULT:      -8.1      2.460      3.000
REMARK  6 active torsions:
REMARK  status: ('A' for Active; 'I' for Inactive)
REMARK    1  A    between atoms: N1_1  and  C1_2 
REMARK    2  A    between atoms: N3_4  and  C2_5 
REMARK    3  A    between atoms: C6_10  and  C7_11 
REMARK    4  A    between atoms: C10_16  and  C11_17 
REMARK    5  A    between atoms: C11_17  and  C12_18 
REMARK    6  A    between atoms: C12_18  and  C13_19 
ROOT
HETATM    1  C1  UNL     1      22.403  -0.868  53.945  1.00  0.00     0.738 C 
HETATM    2  N2  UNL     1      23.659  -0.737  54.187  1.00  0.00     0.022 NA
HETATM    3  N3  UNL     1      24.375   0.264  53.479  1.00  0.00    -0.237 N 
HETATM    4  C9  UNL     1      23.712   1.344  52.921  1.00  0.00     0.219 C 
HETATM    5  P1  UNL     1      24.256   2.015  51.238  1.00  0.00     0.001 P 
HETATM    6  C10 UNL     1      22.657   2.646  50.759  1.00  0.00     0.022 C 
HETATM    7  N4  UNL     1      21.655   1.963  51.665  1.00  0.00    -0.344 N 
HETATM    8  C19 UNL     1      22.317   1.048  52.546  1.00  0.00     0.153 C 
HETATM    9  N5  UNL     1      21.711   0.025  53.105  1.00  0.00    -0.046 NA
HETATM   10  H18 UNL     1      20.613   2.130  51.662  1.00  0.00     0.167 HD
ENDROOT
BRANCH   3  11
HETATM   11  C2  UNL     1      25.783   0.011  53.436  1.00  0.00     0.055 A 
HETATM   12  C3  UNL     1      26.336  -1.147  52.941  1.00  0.00     0.034 A 
HETATM   13  C4  UNL     1      27.675  -1.459  52.875  1.00  0.00     0.045 A 
HETATM   14  C5  UNL     1      28.569  -0.503  53.360  1.00  0.00     0.125 A 
HETATM   15  F1  UNL     1      29.907  -0.711  53.341  1.00  0.00    -0.205 F 
HETATM   16  C6  UNL     1      28.103   0.680  53.869  1.00  0.00     0.011 A 
HETATM   17  C8  UNL     1      26.751   0.895  53.891  1.00  0.00     0.044 A 
BRANCH  16  18
HETATM   18  C7  UNL     1      29.065   1.688  54.382  1.00  0.00     0.264 C 
HETATM   19  F2  UNL     1      29.044   2.839  53.643  1.00  0.00    -0.250 F 
ENDBRANCH  16  18
ENDBRANCH   3  11
BRANCH   1  20
HETATM   20  N1  UNL     1      21.601  -1.868  54.611  1.00  0.00    -0.230 N 
HETATM   21  H1  UNL     1      22.160  -2.560  55.156  1.00  0.00     0.174 HD
HETATM   22  H2  UNL     1      20.584  -1.722  54.426  1.00  0.00     0.174 HD
ENDBRANCH   1  20
BRANCH   6  23
HETATM   23  C11 UNL     1      21.938   3.405  49.607  1.00  0.00     0.063 C 
BRANCH  23  24
HETATM   24  C12 UNL     1      22.360   2.870  48.283  1.00  0.00     0.044 C 
BRANCH  24  25
HETATM   25  C13 UNL     1      22.278   3.966  47.255  1.00  0.00    -0.058 A 
HETATM   26  C14 UNL     1      22.680   5.251  47.614  1.00  0.00     0.007 A 
HETATM   27  C15 UNL     1      22.621   6.300  46.691  1.00  0.00     0.001 A 
HETATM   28  C16 UNL     1      22.159   6.053  45.417  1.00  0.00     0.000 A 
HETATM   29  C17 UNL     1      21.762   4.769  45.077  1.00  0.00     0.001 A 
HETATM   30  C18 UNL     1      21.822   3.723  45.996  1.00  0.00     0.007 A 
ENDBRANCH  24  25
ENDBRANCH  23  24
ENDBRANCH   6  23
TORSDOF 6
ENDMDL
MODEL 6
REMARK VINA RESULT:      -8.1      4.162      8.387
REMARK  6 active torsions:
REMARK  status: ('A' for Active; 'I' for Inactive)
REMARK    1  A    between atoms: N1_1  and  C1_2 
REMARK    2  A    between atoms: N3_4  and  C2_5 
REMARK    3  A    between atoms: C6_10  and  C7_11 
REMARK    4  A    between atoms: C10_16  and  C11_17 
REMARK    5  A    between atoms: C11_17  and  C12_18 
REMARK    6  A    between atoms: C12_18  and  C13_19 
ROOT
HETATM    1  C1  UNL     1      25.320  -0.119  53.429  1.00  0.00     0.738 C 
HETATM    2  N2  UNL     1      25.636   1.008  52.896  1.00  0.00     0.022 NA
HETATM    3  N3  UNL     1      24.596   1.797  52.336  1.00  0.00    -0.237 N 
HETATM    4  C9  UNL     1      23.283   1.620  52.739  1.00  0.00     0.219 C 
HETATM    5  P1  UNL     1      21.885   1.733  51.469  1.00  0.00     0.001 P 
HETATM    6  C10 UNL     1      20.764   0.638  52.322  1.00  0.00     0.022 C 
HETATM    7  N4  UNL     1      21.612  -0.133  53.311  1.00  0.00    -0.344 N 
HETATM    8  C19 UNL     1      22.987   0.251  53.200  1.00  0.00     0.153 C 
HETATM    9  N5  UNL     1      23.980  -0.521  53.579  1.00  0.00    -0.046 NA
HETATM   10  H18 UNL     1      21.253  -0.851  53.996  1.00  0.00     0.167 HD
ENDROOT
BRANCH   3  11
HETATM   11  C2  UNL     1      25.073   2.736  51.368  1.00  0.00     0.055 A 
HETATM   12  C3  UNL     1      26.058   2.453  50.450  1.00  0.00     0.034 A 
HETATM   13  C4  UNL     1      26.569   3.306  49.499  1.00  0.00     0.045 A 
HETATM   14  C5  UNL     1      26.034   4.595  49.456  1.00  0.00     0.125 A 
HETATM   15  F1  UNL     1      26.466   5.511  48.559  1.00  0.00    -0.205 F 
HETATM   16  C6  UNL     1      25.048   4.961  50.334  1.00  0.00     0.011 A 
HETATM   17  C8  UNL     1      24.607   4.037  51.245  1.00  0.00     0.044 A 
BRANCH  16  18
HETATM   18  C7  UNL     1      24.487   6.335  50.279  1.00  0.00     0.264 C 
HETATM   19  F2  UNL     1      25.367   7.267  50.758  1.00  0.00    -0.250 F 
ENDBRANCH  16  18
ENDBRANCH   3  11
BRANCH   1  20
HETATM   20  N1  UNL     1      26.317  -0.988  54.010  1.00  0.00    -0.230 N 
HETATM   21  H1  UNL     1      25.944  -1.917  54.304  1.00  0.00     0.174 HD
HETATM   22  H2  UNL     1      27.253  -0.527  54.035  1.00  0.00     0.174 HD
ENDBRANCH   1  20
BRANCH   6  23
HETATM   23  C11 UNL     1      19.337   0.027  52.218  1.00  0.00     0.063 C 
BRANCH  23  24
HETATM   24  C12 UNL     1      19.049  -0.836  53.396  1.00  0.00     0.044 C 
BRANCH  24  25
HETATM   25  C13 UNL     1      17.829  -1.671  53.114  1.00  0.00    -0.058 A 
HETATM   26  C14 UNL     1      17.767  -2.961  53.638  1.00  0.00     0.007 A 
HETATM   27  C15 UNL     1      16.653  -3.773  53.401  1.00  0.00     0.001 A 
HETATM   28  C16 UNL     1      15.612  -3.286  52.643  1.00  0.00     0.000 A 
HETATM   29  C17 UNL     1      15.690  -2.001  52.129  1.00  0.00     0.001 A 
HETATM   30  C18 UNL     1      16.799  -1.190  52.365  1.00  0.00     0.007 A 
ENDBRANCH  24  25
ENDBRANCH  23  24
ENDBRANCH   6  23
TORSDOF 6
ENDMDL
MODEL 7
REMARK VINA RESULT:      -8.0      4.494      8.549
REMARK  6 active torsions:
REMARK  status: ('A' for Active; 'I' for Inactive)
REMARK    1  A    between atoms: N1_1  and  C1_2 
REMARK    2  A    between atoms: N3_4  and  C2_5 
REMARK    3  A    between atoms: C6_10  and  C7_11 
REMARK    4  A    between atoms: C10_16  and  C11_17 
REMARK    5  A    between atoms: C11_17  and  C12_18 
REMARK    6  A    between atoms: C12_18  and  C13_19 
ROOT
HETATM    1  C1  UNL     1      23.729  -0.965  54.877  1.00  0.00     0.738 C 
HETATM    2  N2  UNL     1      24.338  -0.030  54.238  1.00  0.00     0.022 NA
HETATM    3  N3  UNL     1      23.609   0.691  53.255  1.00  0.00    -0.237 N 
HETATM    4  C9  UNL     1      22.225   0.733  53.293  1.00  0.00     0.219 C 
HETATM    5  P1  UNL     1      21.236   0.663  51.682  1.00  0.00     0.001 P 
HETATM    6  C10 UNL     1      19.781  -0.094  52.385  1.00  0.00     0.022 C 
HETATM    7  N4  UNL     1      20.218  -0.678  53.711  1.00  0.00    -0.344 N 
HETATM    8  C19 UNL     1      21.617  -0.455  53.921  1.00  0.00     0.153 C 
HETATM    9  N5  UNL     1      22.350  -1.199  54.718  1.00  0.00    -0.046 NA
HETATM   10  H18 UNL     1      19.591  -1.177  54.397  1.00  0.00     0.167 HD
ENDROOT
BRANCH   3  11
HETATM   11  C2  UNL     1      24.456   1.326  52.292  1.00  0.00     0.055 A 
HETATM   12  C3  UNL     1      25.812   1.112  52.210  1.00  0.00     0.034 A 
HETATM   13  C4  UNL     1      26.685   1.691  51.318  1.00  0.00     0.045 A 
HETATM   14  C5  UNL     1      26.143   2.591  50.398  1.00  0.00     0.125 A 
HETATM   15  F1  UNL     1      26.914   3.215  49.478  1.00  0.00    -0.205 F 
HETATM   16  C6  UNL     1      24.800   2.861  50.410  1.00  0.00     0.011 A 
HETATM   17  C8  UNL     1      24.014   2.232  51.339  1.00  0.00     0.044 A 
BRANCH  16  18
HETATM   18  C7  UNL     1      24.235   3.820  49.427  1.00  0.00     0.264 C 
HETATM   19  F2  UNL     1      23.447   3.198  48.498  1.00  0.00    -0.250 F 
ENDBRANCH  16  18
ENDBRANCH   3  11
BRANCH   1  20
HETATM   20  N1  UNL     1      24.398  -1.756  55.884  1.00  0.00    -0.230 N 
HETATM   21  H1  UNL     1      24.530  -2.754  55.615  1.00  0.00     0.174 HD
HETATM   22  H2  UNL     1      24.637  -1.178  56.720  1.00  0.00     0.174 HD
ENDBRANCH   1  20
BRANCH   6  23
HETATM   23  C11 UNL     1      18.354  -0.582  52.005  1.00  0.00     0.063 C 
BRANCH  23  24
HETATM   24  C12 UNL     1      17.563  -0.892  53.228  1.00  0.00     0.044 C 
BRANCH  24  25
HETATM   25  C13 UNL     1      16.944  -2.258  53.088  1.00  0.00    -0.058 A 
HETATM   26  C14 UNL     1      15.753  -2.381  52.375  1.00  0.00     0.007 A 
HETATM   27  C15 UNL     1      15.143  -3.630  52.220  1.00  0.00     0.001 A 
HETATM   28  C16 UNL     1      15.730  -4.743  52.780  1.00  0.00     0.000 A 
HETATM   29  C17 UNL     1      16.915  -4.601  53.486  1.00  0.00     0.001 A 
HETATM   30  C18 UNL     1      17.525  -3.358  53.641  1.00  0.00     0.007 A 
ENDBRANCH  24  25
ENDBRANCH  23  24
ENDBRANCH   6  23
TORSDOF 6
ENDMDL
MODEL 8
REMARK VINA RESULT:      -7.7      2.901      7.342
REMARK  6 active torsions:
REMARK  status: ('A' for Active; 'I' for Inactive)
REMARK    1  A    between atoms: N1_1  and  C1_2 
REMARK    2  A    between atoms: N3_4  and  C2_5 
REMARK    3  A    between atoms: C6_10  and  C7_11 
REMARK    4  A    between atoms: C10_16  and  C11_17 
REMARK    5  A    between atoms: C11_17  and  C12_18 
REMARK    6  A    between atoms: C12_18  and  C13_19 
ROOT
HETATM    1  C1  UNL     1      20.695   3.650  51.530  1.00  0.00     0.738 C 
HETATM    2  N2  UNL     1      21.495   4.413  50.873  1.00  0.00     0.022 NA
HETATM    3  N3  UNL     1      22.878   4.093  50.879  1.00  0.00    -0.237 N 
HETATM    4  C9  UNL     1      23.302   2.805  51.160  1.00  0.00     0.219 C 
HETATM    5  P1  UNL     1      24.864   2.532  52.193  1.00  0.00     0.001 P 
HETATM    6  C10 UNL     1      24.370   0.958  52.873  1.00  0.00     0.022 C 
HETATM    7  N4  UNL     1      22.873   0.869  52.663  1.00  0.00    -0.344 N 
HETATM    8  C19 UNL     1      22.382   2.060  52.039  1.00  0.00     0.153 C 
HETATM    9  N5  UNL     1      21.133   2.458  52.136  1.00  0.00    -0.046 NA
HETATM   10  H18 UNL     1      22.265   0.049  52.930  1.00  0.00     0.167 HD
ENDROOT
BRANCH   3  11
HETATM   11  C2  UNL     1      23.708   5.217  50.569  1.00  0.00     0.055 A 
HETATM   12  C3  UNL     1      23.453   6.497  51.003  1.00  0.00     0.034 A 
HETATM   13  C4  UNL     1      24.201   7.621  50.738  1.00  0.00     0.045 A 
HETATM   14  C5  UNL     1      25.338   7.451  49.948  1.00  0.00     0.125 A 
HETATM   15  F1  UNL     1      26.143   8.491  49.629  1.00  0.00    -0.205 F 
HETATM   16  C6  UNL     1      25.668   6.208  49.475  1.00  0.00     0.011 A 
HETATM   17  C8  UNL     1      24.857   5.150  49.794  1.00  0.00     0.044 A 
BRANCH  16  18
HETATM   18  C7  UNL     1      26.880   6.038  48.635  1.00  0.00     0.264 C 
HETATM   19  F2  UNL     1      27.220   4.722  48.484  1.00  0.00    -0.250 F 
ENDBRANCH  16  18
ENDBRANCH   3  11
BRANCH   1  20
HETATM   20  N1  UNL     1      19.275   3.910  51.587  1.00  0.00    -0.230 N 
HETATM   21  H1  UNL     1      18.702   3.069  51.818  1.00  0.00     0.174 HD
HETATM   22  H2  UNL     1      19.065   4.912  51.383  1.00  0.00     0.174 HD
ENDBRANCH   1  20
BRANCH   6  23
HETATM   23  C11 UNL     1      24.869  -0.179  53.809  1.00  0.00     0.063 C 
BRANCH  23  24
HETATM   24  C12 UNL     1      26.068   0.261  54.575  1.00  0.00     0.044 C 
BRANCH  24  25
HETATM   25  C13 UNL     1      27.282  -0.463  54.057  1.00  0.00    -0.058 A 
HETATM   26  C14 UNL     1      28.543  -0.019  54.452  1.00  0.00     0.007 A 
HETATM   27  C15 UNL     1      29.698  -0.661  53.995  1.00  0.00     0.001 A 
HETATM   28  C16 UNL     1      29.582  -1.739  53.147  1.00  0.00     0.000 A 
HETATM   29  C17 UNL     1      28.320  -2.167  52.763  1.00  0.00     0.001 A 
HETATM   30  C18 UNL     1      27.167  -1.529  53.218  1.00  0.00     0.007 A 
ENDBRANCH  24  25
ENDBRANCH  23  24
ENDBRANCH   6  23
TORSDOF 6
ENDMDL
MODEL 9
REMARK VINA RESULT:      -7.7      5.248      8.084
REMARK  6 active torsions:
REMARK  status: ('A' for Active; 'I' for Inactive)
REMARK    1  A    between atoms: N1_1  and  C1_2 
REMARK    2  A    between atoms: N3_4  and  C2_5 
REMARK    3  A    between atoms: C6_10  and  C7_11 
REMARK    4  A    between atoms: C10_16  and  C11_17 
REMARK    5  A    between atoms: C11_17  and  C12_18 
REMARK    6  A    between atoms: C12_18  and  C13_19 
ROOT
HETATM    1  C1  UNL     1      19.953  -0.829  53.407  1.00  0.00     0.738 C 
HETATM    2  N2  UNL     1      19.556  -0.088  52.434  1.00  0.00     0.022 NA
HETATM    3  N3  UNL     1      20.500   0.788  51.834  1.00  0.00    -0.237 N 
HETATM    4  C9  UNL     1      21.859   0.543  51.945  1.00  0.00     0.219 C 
HETATM    5  P1  UNL     1      23.059   1.986  52.182  1.00  0.00     0.001 P 
HETATM    6  C10 UNL     1      24.298   1.059  53.071  1.00  0.00     0.022 C 
HETATM    7  N4  UNL     1      23.606  -0.198  53.555  1.00  0.00    -0.344 N 
HETATM    8  C19 UNL     1      22.226  -0.191  53.170  1.00  0.00     0.153 C 
HETATM    9  N5  UNL     1      21.303  -0.882  53.799  1.00  0.00    -0.046 NA
HETATM   10  H18 UNL     1      24.064  -0.979  54.096  1.00  0.00     0.167 HD
ENDROOT
BRANCH   3  11
HETATM   11  C2  UNL     1      19.883   1.879  51.144  1.00  0.00     0.055 A 
HETATM   12  C3  UNL     1      19.187   2.885  51.773  1.00  0.00     0.034 A 
HETATM   13  C4  UNL     1      18.565   3.956  51.175  1.00  0.00     0.045 A 
HETATM   14  C5  UNL     1      18.644   4.035  49.783  1.00  0.00     0.125 A 
HETATM   15  F1  UNL     1      18.067   5.048  49.097  1.00  0.00    -0.205 F 
HETATM   16  C6  UNL     1      19.320   3.075  49.077  1.00  0.00     0.011 A 
HETATM   17  C8  UNL     1      19.906   2.047  49.767  1.00  0.00     0.044 A 
BRANCH  16  18
HETATM   18  C7  UNL     1      19.398   3.169  47.597  1.00  0.00     0.264 C 
HETATM   19  F2  UNL     1      18.217   2.824  46.998  1.00  0.00    -0.250 F 
ENDBRANCH  16  18
ENDBRANCH   3  11
BRANCH   1  20
HETATM   20  N1  UNL     1      19.056  -1.738  54.082  1.00  0.00    -0.230 N 
HETATM   21  H1  UNL     1      18.258  -1.266  54.559  1.00  0.00     0.174 HD
HETATM   22  H2  UNL     1      19.369  -2.728  53.972  1.00  0.00     0.174 HD
ENDBRANCH   1  20
BRANCH   6  23
HETATM   23  C11 UNL     1      25.699   1.211  53.728  1.00  0.00     0.063 C 
BRANCH  23  24
HETATM   24  C12 UNL     1      26.773   1.132  52.699  1.00  0.00     0.044 C 
BRANCH  24  25
HETATM   25  C13 UNL     1      27.544  -0.147  52.881  1.00  0.00    -0.058 A 
HETATM   26  C14 UNL     1      28.851  -0.077  53.360  1.00  0.00     0.007 A 
HETATM   27  C15 UNL     1      29.604  -1.240  53.544  1.00  0.00     0.001 A 
HETATM   28  C16 UNL     1      29.044  -2.463  53.247  1.00  0.00     0.000 A 
HETATM   29  C17 UNL     1      27.743  -2.514  52.771  1.00  0.00     0.001 A 
HETATM   30  C18 UNL     1      26.990  -1.356  52.588  1.00  0.00     0.007 A 
ENDBRANCH  24  25
ENDBRANCH  23  24
ENDBRANCH   6  23
TORSDOF 6
ENDMDL
