MODEL 1
REMARK VINA RESULT:      -8.4      0.000      0.000
REMARK  8 active torsions:
REMARK  status: ('A' for Active; 'I' for Inactive)
REMARK    1  A    between atoms: O1_1  and  C1_2 
REMARK    2  A    between atoms: C4_5  and  C5_6 
REMARK    3  A    between atoms: C5_6  and  N1_7 
REMARK    4  A    between atoms: N1_7  and  C6_8 
REMARK    5  A    between atoms: N1_7  and  C13_18 
REMARK    6  A    between atoms: C6_8  and  C7_9 
REMARK    7  A    between atoms: C12_16  and  O2_17 
REMARK    8  A    between atoms: C13_18  and  N2_19 
ROOT
HETATM    1  N1  UNL     1      23.850   1.970  51.954  1.00  0.00     0.115 N 
ENDROOT
BRANCH   1   2
HETATM    2  C5  UNL     1      23.808   2.295  50.549  1.00  0.00     0.313 C 
BRANCH   2   3
HETATM    3  C4  UNL     1      24.629   3.493  50.223  1.00  0.00    -0.030 A 
HETATM    4  C3  UNL     1      24.434   4.845  50.385  1.00  0.00     0.011 A 
HETATM    5  C2  UNL     1      25.312   5.817  50.030  1.00  0.00     0.037 A 
HETATM    6  C1  UNL     1      26.530   5.497  49.449  1.00  0.00     0.065 A 
HETATM    7  C19 UNL     1      26.801   4.173  49.254  1.00  0.00     0.037 A 
HETATM    8  C18 UNL     1      25.877   3.229  49.631  1.00  0.00     0.011 A 
BRANCH   6   9
HETATM    9  O1  UNL     1      27.331   6.564  49.136  1.00  0.00    -0.361 OA
HETATM   10  H1  UNL     1      27.967   6.609  48.340  1.00  0.00     0.217 HD
ENDBRANCH   6   9
ENDBRANCH   2   3
ENDBRANCH   1   2
BRANCH   1  11
HETATM   11  C6  UNL     1      24.969   2.490  52.640  1.00  0.00     0.316 C 
BRANCH  11  12
HETATM   12  C7  UNL     1      26.008   1.496  52.889  1.00  0.00     0.006 A 
HETATM   13  C8  UNL     1      25.985   0.179  52.483  1.00  0.00     0.035 A 
HETATM   14  C9  UNL     1      26.946  -0.775  52.657  1.00  0.00     0.036 A 
HETATM   15 CL1  UNL     1      26.779  -2.427  52.080  1.00  0.00    -0.084 Cl
HETATM   16  C10 UNL     1      28.107  -0.435  53.316  1.00  0.00     0.050 A 
HETATM   17  C11 UNL     1      28.230   0.860  53.766  1.00  0.00     0.069 A 
HETATM   18 CL2  UNL     1      29.721   1.241  54.597  1.00  0.00    -0.081 Cl
HETATM   19  C12 UNL     1      27.215   1.760  53.550  1.00  0.00     0.095 A 
BRANCH  19  20
HETATM   20  O2  UNL     1      27.514   3.009  54.080  1.00  0.00    -0.358 OA
HETATM   21  H10 UNL     1      27.147   3.865  53.639  1.00  0.00     0.217 HD
ENDBRANCH  19  20
ENDBRANCH  11  12
ENDBRANCH   1  11
BRANCH   1  22
HETATM   22  C13 UNL     1      22.606   2.349  52.552  1.00  0.00     0.409 C 
BRANCH  22  23
HETATM   23  N2  UNL     1      21.900   1.169  53.001  1.00  0.00    -0.301 N 
HETATM   24  C14 UNL     1      22.590   0.185  53.756  1.00  0.00     0.101 A 
HETATM   25  C15 UNL     1      22.102  -0.931  54.251  1.00  0.00     0.018 A 
HETATM   26  C16 UNL     1      20.730  -1.273  54.057  1.00  0.00     0.010 A 
HETATM   27  C17 UNL     1      19.807  -0.614  53.426  1.00  0.00     0.068 A 
HETATM   28  S1  UNL     1      20.208   0.930  52.669  1.00  0.00    -0.025 SA
HETATM   29  S2  UNL     1      19.923   0.805  50.982  1.00  0.00     0.002 SA
ENDBRANCH  22  23
ENDBRANCH   1  22
TORSDOF 8
ENDMDL
MODEL 2
REMARK VINA RESULT:      -8.2      3.611      6.516
REMARK  8 active torsions:
REMARK  status: ('A' for Active; 'I' for Inactive)
REMARK    1  A    between atoms: O1_1  and  C1_2 
REMARK    2  A    between atoms: C4_5  and  C5_6 
REMARK    3  A    between atoms: C5_6  and  N1_7 
REMARK    4  A    between atoms: N1_7  and  C6_8 
REMARK    5  A    between atoms: N1_7  and  C13_18 
REMARK    6  A    between atoms: C6_8  and  C7_9 
REMARK    7  A    between atoms: C12_16  and  O2_17 
REMARK    8  A    between atoms: C13_18  and  N2_19 
ROOT
HETATM    1  N1  UNL     1      25.925   2.318  51.864  1.00  0.00     0.115 N 
ENDROOT
BRANCH   1   2
HETATM    2  C5  UNL     1      27.047   2.006  52.717  1.00  0.00     0.313 C 
BRANCH   2   3
HETATM    3  C4  UNL     1      27.310   0.542  52.787  1.00  0.00    -0.030 A 
HETATM    4  C3  UNL     1      26.594  -0.567  52.401  1.00  0.00     0.011 A 
HETATM    5  C2  UNL     1      26.999  -1.855  52.536  1.00  0.00     0.037 A 
HETATM    6  C1  UNL     1      28.229  -2.157  53.103  1.00  0.00     0.065 A 
HETATM    7  C19 UNL     1      29.003  -1.109  53.513  1.00  0.00     0.037 A 
HETATM    8  C18 UNL     1      28.545   0.175  53.353  1.00  0.00     0.011 A 
BRANCH   6   9
HETATM    9  O1  UNL     1      28.527  -3.492  53.184  1.00  0.00    -0.361 OA
HETATM   10  H1  UNL     1      28.765  -3.991  54.041  1.00  0.00     0.217 HD
ENDBRANCH   6   9
ENDBRANCH   2   3
ENDBRANCH   1   2
BRANCH   1  11
HETATM   11  C6  UNL     1      24.902   3.060  52.495  1.00  0.00     0.316 C 
BRANCH  11  12
HETATM   12  C7  UNL     1      23.643   2.330  52.606  1.00  0.00     0.006 A 
HETATM   13  C8  UNL     1      23.494   1.029  53.033  1.00  0.00     0.035 A 
HETATM   14  C9  UNL     1      22.339   0.318  53.191  1.00  0.00     0.036 A 
HETATM   15 CL1  UNL     1      22.301  -1.347  53.750  1.00  0.00    -0.084 Cl
HETATM   16  C10 UNL     1      21.139   0.930  52.899  1.00  0.00     0.050 A 
HETATM   17  C11 UNL     1      21.178   2.234  52.461  1.00  0.00     0.069 A 
HETATM   18 CL2  UNL     1      19.629   2.964  52.103  1.00  0.00    -0.081 Cl
HETATM   19  C12 UNL     1      22.383   2.878  52.329  1.00  0.00     0.095 A 
BRANCH  19  20
HETATM   20  O2  UNL     1      22.223   4.179  51.869  1.00  0.00    -0.358 OA
HETATM   21  H10 UNL     1      23.028   4.822  51.829  1.00  0.00     0.217 HD
ENDBRANCH  19  20
ENDBRANCH  11  12
ENDBRANCH   1  11
BRANCH   1  22
HETATM   22  C13 UNL     1      26.412   2.944  50.673  1.00  0.00     0.409 C 
BRANCH  22  23
HETATM   23  N2  UNL     1      25.309   3.527  49.942  1.00  0.00    -0.301 N 
HETATM   24  C14 UNL     1      24.338   2.680  49.346  1.00  0.00     0.101 A 
HETATM   25  C15 UNL     1      23.272   3.041  48.665  1.00  0.00     0.018 A 
HETATM   26  C16 UNL     1      22.979   4.421  48.451  1.00  0.00     0.010 A 
HETATM   27  C17 UNL     1      23.639   5.466  48.851  1.00  0.00     0.068 A 
HETATM   28  S1  UNL     1      25.114   5.251  49.794  1.00  0.00    -0.025 SA
HETATM   29  S2  UNL     1      26.424   5.947  48.933  1.00  0.00     0.002 SA
ENDBRANCH  22  23
ENDBRANCH   1  22
TORSDOF 8
ENDMDL
MODEL 3
REMARK VINA RESULT:      -8.0      2.869      6.145
REMARK  8 active torsions:
REMARK  status: ('A' for Active; 'I' for Inactive)
REMARK    1  A    between atoms: O1_1  and  C1_2 
REMARK    2  A    between atoms: C4_5  and  C5_6 
REMARK    3  A    between atoms: C5_6  and  N1_7 
REMARK    4  A    between atoms: N1_7  and  C6_8 
REMARK    5  A    between atoms: N1_7  and  C13_18 
REMARK    6  A    between atoms: C6_8  and  C7_9 
REMARK    7  A    between atoms: C12_16  and  O2_17 
REMARK    8  A    between atoms: C13_18  and  N2_19 
ROOT
HETATM    1  N1  UNL     1      24.727   1.876  51.892  1.00  0.00     0.115 N 
ENDROOT
BRANCH   1   2
HETATM    2  C5  UNL     1      23.836   2.216  52.975  1.00  0.00     0.313 C 
BRANCH   2   3
HETATM    3  C4  UNL     1      23.012   1.056  53.413  1.00  0.00    -0.030 A 
HETATM    4  C3  UNL     1      23.305  -0.116  54.070  1.00  0.00     0.011 A 
HETATM    5  C2  UNL     1      22.409  -1.079  54.404  1.00  0.00     0.037 A 
HETATM    6  C1  UNL     1      21.065  -0.940  54.089  1.00  0.00     0.065 A 
HETATM    7  C19 UNL     1      20.691   0.200  53.435  1.00  0.00     0.037 A 
HETATM    8  C18 UNL     1      21.639   1.143  53.120  1.00  0.00     0.011 A 
BRANCH   6   9
HETATM    9  O1  UNL     1      20.259  -1.976  54.478  1.00  0.00    -0.361 OA
HETATM   10  H1  UNL     1      20.447  -2.964  54.310  1.00  0.00     0.217 HD
ENDBRANCH   6   9
ENDBRANCH   2   3
ENDBRANCH   1   2
BRANCH   1  11
HETATM   11  C6  UNL     1      25.151   0.529  51.887  1.00  0.00     0.316 C 
BRANCH  11  12
HETATM   12  C7  UNL     1      26.490   0.342  52.435  1.00  0.00     0.006 A 
HETATM   13  C8  UNL     1      27.312   1.334  52.925  1.00  0.00     0.035 A 
HETATM   14  C9  UNL     1      28.553   1.205  53.481  1.00  0.00     0.036 A 
HETATM   15 CL1  UNL     1      29.492   2.569  54.068  1.00  0.00    -0.084 Cl
HETATM   16  C10 UNL     1      29.102  -0.054  53.593  1.00  0.00     0.050 A 
HETATM   17  C11 UNL     1      28.360  -1.117  53.130  1.00  0.00     0.069 A 
HETATM   18 CL2  UNL     1      29.102  -2.693  53.293  1.00  0.00    -0.081 Cl
HETATM   19  C12 UNL     1      27.120  -0.901  52.582  1.00  0.00     0.095 A 
BRANCH  19  20
HETATM   20  O2  UNL     1      26.528  -2.087  52.166  1.00  0.00    -0.358 OA
HETATM   21  H10 UNL     1      26.635  -2.411  51.193  1.00  0.00     0.217 HD
ENDBRANCH  19  20
ENDBRANCH  11  12
ENDBRANCH   1  11
BRANCH   1  22
HETATM   22  C13 UNL     1      24.123   2.274  50.657  1.00  0.00     0.409 C 
BRANCH  22  23
HETATM   23  N2  UNL     1      24.851   3.391  50.096  1.00  0.00    -0.301 N 
HETATM   24  C14 UNL     1      26.214   3.228  49.735  1.00  0.00     0.101 A 
HETATM   25  C15 UNL     1      27.014   4.127  49.202  1.00  0.00     0.018 A 
HETATM   26  C16 UNL     1      26.540   5.443  48.920  1.00  0.00     0.010 A 
HETATM   27  C17 UNL     1      25.358   5.943  49.112  1.00  0.00     0.068 A 
HETATM   28  S1  UNL     1      24.094   4.933  49.816  1.00  0.00    -0.025 SA
HETATM   29  S2  UNL     1      23.579   5.643  51.290  1.00  0.00     0.002 SA
ENDBRANCH  22  23
ENDBRANCH   1  22
TORSDOF 8
ENDMDL
MODEL 4
REMARK VINA RESULT:      -8.0      3.289      5.467
REMARK  8 active torsions:
REMARK  status: ('A' for Active; 'I' for Inactive)
REMARK    1  A    between atoms: O1_1  and  C1_2 
REMARK    2  A    between atoms: C4_5  and  C5_6 
REMARK    3  A    between atoms: C5_6  and  N1_7 
REMARK    4  A    between atoms: N1_7  and  C6_8 
REMARK    5  A    between atoms: N1_7  and  C13_18 
REMARK    6  A    between atoms: C6_8  and  C7_9 
REMARK    7  A    between atoms: C12_16  and  O2_17 
REMARK    8  A    between atoms: C13_18  and  N2_19 
ROOT
HETATM    1  N1  UNL     1      24.982   2.630  51.853  1.00  0.00     0.115 N 
ENDROOT
BRANCH   1   2
HETATM    2  C5  UNL     1      24.560   2.949  50.510  1.00  0.00     0.313 C 
BRANCH   2   3
HETATM    3  C4  UNL     1      25.501   3.880  49.830  1.00  0.00    -0.030 A 
HETATM    4  C3  UNL     1      26.792   3.751  49.371  1.00  0.00     0.011 A 
HETATM    5  C2  UNL     1      27.511   4.722  48.753  1.00  0.00     0.037 A 
HETATM    6  C1  UNL     1      26.965   5.977  48.528  1.00  0.00     0.065 A 
HETATM    7  C19 UNL     1      25.684   6.187  48.954  1.00  0.00     0.037 A 
HETATM    8  C18 UNL     1      25.001   5.169  49.575  1.00  0.00     0.011 A 
BRANCH   6   9
HETATM    9  O1  UNL     1      27.786   6.872  47.895  1.00  0.00    -0.361 OA
HETATM   10  H1  UNL     1      27.711   7.887  47.958  1.00  0.00     0.217 HD
ENDBRANCH   6   9
ENDBRANCH   2   3
ENDBRANCH   1   2
BRANCH   1  11
HETATM   11  C6  UNL     1      24.030   2.932  52.851  1.00  0.00     0.316 C 
BRANCH  11  12
HETATM   12  C7  UNL     1      22.860   2.062  52.815  1.00  0.00     0.006 A 
HETATM   13  C8  UNL     1      22.795   0.767  53.283  1.00  0.00     0.035 A 
HETATM   14  C9  UNL     1      21.716  -0.070  53.307  1.00  0.00     0.036 A 
HETATM   15 CL1  UNL     1      21.782  -1.708  53.940  1.00  0.00    -0.084 Cl
HETATM   16  C10 UNL     1      20.513   0.385  52.813  1.00  0.00     0.050 A 
HETATM   17  C11 UNL     1      20.470   1.668  52.319  1.00  0.00     0.069 A 
HETATM   18 CL2  UNL     1      18.921   2.197  51.702  1.00  0.00    -0.081 Cl
HETATM   19  C12 UNL     1      21.602   2.446  52.330  1.00  0.00     0.095 A 
BRANCH  19  20
HETATM   20  O2  UNL     1      21.368   3.702  51.786  1.00  0.00    -0.358 OA
HETATM   21  H10 UNL     1      21.929   4.514  52.083  1.00  0.00     0.217 HD
ENDBRANCH  19  20
ENDBRANCH  11  12
ENDBRANCH   1  11
BRANCH   1  22
HETATM   22  C13 UNL     1      25.414   1.266  51.888  1.00  0.00     0.409 C 
BRANCH  22  23
HETATM   23  N2  UNL     1      26.582   1.145  52.733  1.00  0.00    -0.301 N 
HETATM   24  C14 UNL     1      27.519   2.210  52.789  1.00  0.00     0.101 A 
HETATM   25  C15 UNL     1      28.618   2.271  53.509  1.00  0.00     0.018 A 
HETATM   26  C16 UNL     1      28.988   1.189  54.362  1.00  0.00     0.010 A 
HETATM   27  C17 UNL     1      28.373   0.064  54.566  1.00  0.00     0.068 A 
HETATM   28  S1  UNL     1      26.861  -0.264  53.716  1.00  0.00    -0.025 SA
HETATM   29  S2  UNL     1      27.069  -1.662  52.744  1.00  0.00     0.002 SA
ENDBRANCH  22  23
ENDBRANCH   1  22
TORSDOF 8
ENDMDL
MODEL 5
REMARK VINA RESULT:      -7.8      3.141      5.391
REMARK  8 active torsions:
REMARK  status: ('A' for Active; 'I' for Inactive)
REMARK    1  A    between atoms: O1_1  and  C1_2 
REMARK    2  A    between atoms: C4_5  and  C5_6 
REMARK    3  A    between atoms: C5_6  and  N1_7 
REMARK    4  A    between atoms: N1_7  and  C6_8 
REMARK    5  A    between atoms: N1_7  and  C13_18 
REMARK    6  A    between atoms: C6_8  and  C7_9 
REMARK    7  A    between atoms: C12_16  and  O2_17 
REMARK    8  A    between atoms: C13_18  and  N2_19 
ROOT
HETATM    1  N1  UNL     1      24.335   2.424  52.371  1.00  0.00     0.115 N 
ENDROOT
BRANCH   1   2
HETATM    2  C5  UNL     1      25.603   2.480  51.684  1.00  0.00     0.313 C 
BRANCH   2   3
HETATM    3  C4  UNL     1      26.604   1.549  52.272  1.00  0.00    -0.030 A 
HETATM    4  C3  UNL     1      26.734   0.179  52.275  1.00  0.00     0.011 A 
HETATM    5  C2  UNL     1      27.737  -0.518  52.867  1.00  0.00     0.037 A 
HETATM    6  C1  UNL     1      28.754   0.138  53.545  1.00  0.00     0.065 A 
HETATM    7  C19 UNL     1      28.699   1.502  53.588  1.00  0.00     0.037 A 
HETATM    8  C18 UNL     1      27.661   2.158  52.972  1.00  0.00     0.011 A 
BRANCH   6   9
HETATM    9  O1  UNL     1      29.709  -0.672  54.099  1.00  0.00    -0.361 OA
HETATM   10  H1  UNL     1      30.716  -0.568  53.972  1.00  0.00     0.217 HD
ENDBRANCH   6   9
ENDBRANCH   2   3
ENDBRANCH   1   2
BRANCH   1  11
HETATM   11  C6  UNL     1      23.732   3.683  52.585  1.00  0.00     0.316 C 
BRANCH  11  12
HETATM   12  C7  UNL     1      23.634   4.491  51.375  1.00  0.00     0.006 A 
HETATM   13  C8  UNL     1      23.169   4.065  50.149  1.00  0.00     0.035 A 
HETATM   14  C9  UNL     1      23.023   4.791  49.002  1.00  0.00     0.036 A 
HETATM   15 CL1  UNL     1      22.412   4.109  47.502  1.00  0.00    -0.084 Cl
HETATM   16  C10 UNL     1      23.370   6.124  49.012  1.00  0.00     0.050 A 
HETATM   17  C11 UNL     1      23.848   6.650  50.190  1.00  0.00     0.069 A 
HETATM   18 CL2  UNL     1      24.275   8.346  50.151  1.00  0.00    -0.081 Cl
HETATM   19  C12 UNL     1      23.966   5.851  51.301  1.00  0.00     0.095 A 
BRANCH  19  20
HETATM   20  O2  UNL     1      24.472   6.552  52.388  1.00  0.00    -0.358 OA
HETATM   21  H10 UNL     1      24.972   7.442  52.249  1.00  0.00     0.217 HD
ENDBRANCH  19  20
ENDBRANCH  11  12
ENDBRANCH   1  11
BRANCH   1  22
HETATM   22  C13 UNL     1      23.479   1.505  51.685  1.00  0.00     0.409 C 
BRANCH  22  23
HETATM   23  N2  UNL     1      22.704   0.750  52.645  1.00  0.00    -0.301 N 
HETATM   24  C14 UNL     1      23.358  -0.180  53.495  1.00  0.00     0.101 A 
HETATM   25  C15 UNL     1      22.812  -0.932  54.426  1.00  0.00     0.018 A 
HETATM   26  C16 UNL     1      21.409  -0.871  54.680  1.00  0.00     0.010 A 
HETATM   27  C17 UNL     1      20.507  -0.137  54.103  1.00  0.00     0.068 A 
HETATM   28  S1  UNL     1      20.986   0.970  52.814  1.00  0.00    -0.025 SA
HETATM   29  S2  UNL     1      20.164   0.527  51.375  1.00  0.00     0.002 SA
ENDBRANCH  22  23
ENDBRANCH   1  22
TORSDOF 8
ENDMDL
MODEL 6
REMARK VINA RESULT:      -7.7      3.438      6.167
REMARK  8 active torsions:
REMARK  status: ('A' for Active; 'I' for Inactive)
REMARK    1  A    between atoms: O1_1  and  C1_2 
REMARK    2  A    between atoms: C4_5  and  C5_6 
REMARK    3  A    between atoms: C5_6  and  N1_7 
REMARK    4  A    between atoms: N1_7  and  C6_8 
REMARK    5  A    between atoms: N1_7  and  C13_18 
REMARK    6  A    between atoms: C6_8  and  C7_9 
REMARK    7  A    between atoms: C12_16  and  O2_17 
REMARK    8  A    between atoms: C13_18  and  N2_19 
ROOT
HETATM    1  N1  UNL     1      25.658   2.249  51.911  1.00  0.00     0.115 N 
ENDROOT
BRANCH   1   2
HETATM    2  C5  UNL     1      26.874   1.955  52.631  1.00  0.00     0.313 C 
BRANCH   2   3
HETATM    3  C4  UNL     1      27.175   0.498  52.656  1.00  0.00    -0.030 A 
HETATM    4  C3  UNL     1      26.523  -0.611  52.170  1.00  0.00     0.011 A 
HETATM    5  C2  UNL     1      26.955  -1.893  52.278  1.00  0.00     0.037 A 
HETATM    6  C1  UNL     1      28.149  -2.188  52.920  1.00  0.00     0.065 A 
HETATM    7  C19 UNL     1      28.860  -1.140  53.432  1.00  0.00     0.037 A 
HETATM    8  C18 UNL     1      28.376   0.138  53.295  1.00  0.00     0.011 A 
BRANCH   6   9
HETATM    9  O1  UNL     1      28.481  -3.516  52.964  1.00  0.00    -0.361 OA
HETATM   10  H1  UNL     1      28.260  -4.153  53.729  1.00  0.00     0.217 HD
ENDBRANCH   6   9
ENDBRANCH   2   3
ENDBRANCH   1   2
BRANCH   1  11
HETATM   11  C6  UNL     1      24.560   2.587  52.734  1.00  0.00     0.316 C 
BRANCH  11  12
HETATM   12  C7  UNL     1      23.476   1.613  52.682  1.00  0.00     0.006 A 
HETATM   13  C8  UNL     1      22.419   1.620  51.797  1.00  0.00     0.035 A 
HETATM   14  C9  UNL     1      21.405   0.713  51.684  1.00  0.00     0.036 A 
HETATM   15 CL1  UNL     1      20.116   0.851  50.498  1.00  0.00    -0.084 Cl
HETATM   16  C10 UNL     1      21.386  -0.369  52.537  1.00  0.00     0.050 A 
HETATM   17  C11 UNL     1      22.398  -0.470  53.463  1.00  0.00     0.069 A 
HETATM   18 CL2  UNL     1      22.327  -1.859  54.524  1.00  0.00    -0.081 Cl
HETATM   19  C12 UNL     1      23.381   0.488  53.512  1.00  0.00     0.095 A 
BRANCH  19  20
HETATM   20  O2  UNL     1      24.309   0.222  54.512  1.00  0.00    -0.358 OA
HETATM   21  H10 UNL     1      24.948   0.961  54.842  1.00  0.00     0.217 HD
ENDBRANCH  19  20
ENDBRANCH  11  12
ENDBRANCH   1  11
BRANCH   1  22
HETATM   22  C13 UNL     1      25.938   3.242  50.920  1.00  0.00     0.409 C 
BRANCH  22  23
HETATM   23  N2  UNL     1      24.706   3.660  50.287  1.00  0.00    -0.301 N 
HETATM   24  C14 UNL     1      24.144   2.865  49.254  1.00  0.00     0.101 A 
HETATM   25  C15 UNL     1      23.033   3.088  48.587  1.00  0.00     0.018 A 
HETATM   26  C16 UNL     1      22.235   4.238  48.870  1.00  0.00     0.010 A 
HETATM   27  C17 UNL     1      22.436   5.174  49.746  1.00  0.00     0.068 A 
HETATM   28  S1  UNL     1      23.866   5.104  50.778  1.00  0.00    -0.025 SA
HETATM   29  S2  UNL     1      24.821   6.500  50.490  1.00  0.00     0.002 SA
ENDBRANCH  22  23
ENDBRANCH   1  22
TORSDOF 8
ENDMDL
MODEL 7
REMARK VINA RESULT:      -7.7      2.651      4.061
REMARK  8 active torsions:
REMARK  status: ('A' for Active; 'I' for Inactive)
REMARK    1  A    between atoms: O1_1  and  C1_2 
REMARK    2  A    between atoms: C4_5  and  C5_6 
REMARK    3  A    between atoms: C5_6  and  N1_7 
REMARK    4  A    between atoms: N1_7  and  C6_8 
REMARK    5  A    between atoms: N1_7  and  C13_18 
REMARK    6  A    between atoms: C6_8  and  C7_9 
REMARK    7  A    between atoms: C12_16  and  O2_17 
REMARK    8  A    between atoms: C13_18  and  N2_19 
ROOT
HETATM    1  N1  UNL     1      23.522   4.054  51.331  1.00  0.00     0.115 N 
ENDROOT
BRANCH   1   2
HETATM    2  C5  UNL     1      23.990   5.357  50.927  1.00  0.00     0.313 C 
BRANCH   2   3
HETATM    3  C4  UNL     1      25.248   5.284  50.134  1.00  0.00    -0.030 A 
HETATM    4  C3  UNL     1      26.034   4.240  49.704  1.00  0.00     0.011 A 
HETATM    5  C2  UNL     1      27.167   4.357  48.967  1.00  0.00     0.037 A 
HETATM    6  C1  UNL     1      27.634   5.603  48.574  1.00  0.00     0.065 A 
HETATM    7  C19 UNL     1      26.908   6.694  48.961  1.00  0.00     0.037 A 
HETATM    8  C18 UNL     1      25.768   6.519  49.707  1.00  0.00     0.011 A 
BRANCH   6   9
HETATM    9  O1  UNL     1      28.786   5.593  47.833  1.00  0.00    -0.361 OA
HETATM   10  H1  UNL     1      29.128   6.369  47.266  1.00  0.00     0.217 HD
ENDBRANCH   6   9
ENDBRANCH   2   3
ENDBRANCH   1   2
BRANCH   1  11
HETATM   11  C6  UNL     1      23.792   3.727  52.678  1.00  0.00     0.316 C 
BRANCH  11  12
HETATM   12  C7  UNL     1      24.142   2.325  52.874  1.00  0.00     0.006 A 
HETATM   13  C8  UNL     1      23.257   1.288  53.078  1.00  0.00     0.035 A 
HETATM   14  C9  UNL     1      23.533  -0.041  53.228  1.00  0.00     0.036 A 
HETATM   15 CL1  UNL     1      22.293  -1.259  53.482  1.00  0.00    -0.084 Cl
HETATM   16  C10 UNL     1      24.846  -0.456  53.177  1.00  0.00     0.050 A 
HETATM   17  C11 UNL     1      25.811   0.504  52.978  1.00  0.00     0.069 A 
HETATM   18 CL2  UNL     1      27.462  -0.073  52.923  1.00  0.00    -0.081 Cl
HETATM   19  C12 UNL     1      25.450   1.822  52.838  1.00  0.00     0.095 A 
BRANCH  19  20
HETATM   20  O2  UNL     1      26.556   2.642  52.654  1.00  0.00    -0.358 OA
HETATM   21  H10 UNL     1      26.462   3.667  52.706  1.00  0.00     0.217 HD
ENDBRANCH  19  20
ENDBRANCH  11  12
ENDBRANCH   1  11
BRANCH   1  22
HETATM   22  C13 UNL     1      22.135   3.939  50.998  1.00  0.00     0.409 C 
BRANCH  22  23
HETATM   23  N2  UNL     1      21.992   3.663  49.585  1.00  0.00    -0.301 N 
HETATM   24  C14 UNL     1      22.694   2.571  49.011  1.00  0.00     0.101 A 
HETATM   25  C15 UNL     1      22.668   2.173  47.758  1.00  0.00     0.018 A 
HETATM   26  C16 UNL     1      21.867   2.857  46.795  1.00  0.00     0.010 A 
HETATM   27  C17 UNL     1      21.096   3.889  46.962  1.00  0.00     0.068 A 
HETATM   28  S1  UNL     1      20.953   4.615  48.564  1.00  0.00    -0.025 SA
HETATM   29  S2  UNL     1      21.492   6.241  48.481  1.00  0.00     0.002 SA
ENDBRANCH  22  23
ENDBRANCH   1  22
TORSDOF 8
ENDMDL
MODEL 8
REMARK VINA RESULT:      -7.6      3.838      6.680
REMARK  8 active torsions:
REMARK  status: ('A' for Active; 'I' for Inactive)
REMARK    1  A    between atoms: O1_1  and  C1_2 
REMARK    2  A    between atoms: C4_5  and  C5_6 
REMARK    3  A    between atoms: C5_6  and  N1_7 
REMARK    4  A    between atoms: N1_7  and  C6_8 
REMARK    5  A    between atoms: N1_7  and  C13_18 
REMARK    6  A    between atoms: C6_8  and  C7_9 
REMARK    7  A    between atoms: C12_16  and  O2_17 
REMARK    8  A    between atoms: C13_18  and  N2_19 
ROOT
HETATM    1  N1  UNL     1      23.514   2.966  51.802  1.00  0.00     0.115 N 
ENDROOT
BRANCH   1   2
HETATM    2  C5  UNL     1      24.492   2.812  52.852  1.00  0.00     0.313 C 
BRANCH   2   3
HETATM    3  C4  UNL     1      25.232   1.524  52.748  1.00  0.00    -0.030 A 
HETATM    4  C3  UNL     1      26.203   1.057  51.893  1.00  0.00     0.011 A 
HETATM    5  C2  UNL     1      26.784  -0.167  51.951  1.00  0.00     0.037 A 
HETATM    6  C1  UNL     1      26.420  -1.081  52.929  1.00  0.00     0.065 A 
HETATM    7  C19 UNL     1      25.460  -0.694  53.820  1.00  0.00     0.037 A 
HETATM    8  C18 UNL     1      24.904   0.557  53.716  1.00  0.00     0.011 A 
BRANCH   6   9
HETATM    9  O1  UNL     1      27.077  -2.282  52.885  1.00  0.00    -0.361 OA
HETATM   10  H1  UNL     1      26.795  -3.126  53.384  1.00  0.00     0.217 HD
ENDBRANCH   6   9
ENDBRANCH   2   3
ENDBRANCH   1   2
BRANCH   1  11
HETATM   11  C6  UNL     1      22.204   3.229  52.259  1.00  0.00     0.316 C 
BRANCH  11  12
HETATM   12  C7  UNL     1      21.335   2.058  52.227  1.00  0.00     0.006 A 
HETATM   13  C8  UNL     1      21.385   0.985  53.091  1.00  0.00     0.035 A 
HETATM   14  C9  UNL     1      20.571  -0.111  53.125  1.00  0.00     0.036 A 
HETATM   15 CL1  UNL     1      20.755  -1.411  54.293  1.00  0.00    -0.084 Cl
HETATM   16  C10 UNL     1      19.553  -0.210  52.201  1.00  0.00     0.050 A 
HETATM   17  C11 UNL     1      19.417   0.812  51.290  1.00  0.00     0.069 A 
HETATM   18 CL2  UNL     1      18.110   0.638  50.139  1.00  0.00    -0.081 Cl
HETATM   19  C12 UNL     1      20.279   1.880  51.323  1.00  0.00     0.095 A 
BRANCH  19  20
HETATM   20  O2  UNL     1      19.992   2.803  50.325  1.00  0.00    -0.358 OA
HETATM   21  H10 UNL     1      20.617   3.606  50.159  1.00  0.00     0.217 HD
ENDBRANCH  19  20
ENDBRANCH  11  12
ENDBRANCH   1  11
BRANCH   1  22
HETATM   22  C13 UNL     1      23.987   3.947  50.873  1.00  0.00     0.409 C 
BRANCH  22  23
HETATM   23  N2  UNL     1      23.291   3.800  49.613  1.00  0.00    -0.301 N 
HETATM   24  C14 UNL     1      23.190   2.518  49.014  1.00  0.00     0.101 A 
HETATM   25  C15 UNL     1      22.586   2.206  47.888  1.00  0.00     0.018 A 
HETATM   26  C16 UNL     1      21.928   3.210  47.115  1.00  0.00     0.010 A 
HETATM   27  C17 UNL     1      21.814   4.481  47.356  1.00  0.00     0.068 A 
HETATM   28  S1  UNL     1      22.540   5.154  48.818  1.00  0.00    -0.025 SA
HETATM   29  S2  UNL     1      23.706   6.326  48.362  1.00  0.00     0.002 SA
ENDBRANCH  22  23
ENDBRANCH   1  22
TORSDOF 8
ENDMDL
MODEL 9
REMARK VINA RESULT:      -7.5      3.233      6.558
REMARK  8 active torsions:
REMARK  status: ('A' for Active; 'I' for Inactive)
REMARK    1  A    between atoms: O1_1  and  C1_2 
REMARK    2  A    between atoms: C4_5  and  C5_6 
REMARK    3  A    between atoms: C5_6  and  N1_7 
REMARK    4  A    between atoms: N1_7  and  C6_8 
REMARK    5  A    between atoms: N1_7  and  C13_18 
REMARK    6  A    between atoms: C6_8  and  C7_9 
REMARK    7  A    between atoms: C12_16  and  O2_17 
REMARK    8  A    between atoms: C13_18  and  N2_19 
ROOT
HETATM    1  N1  UNL     1      24.315   2.282  51.268  1.00  0.00     0.115 N 
ENDROOT
BRANCH   1   2
HETATM    2  C5  UNL     1      25.663   2.675  51.602  1.00  0.00     0.313 C 
BRANCH   2   3
HETATM    3  C4  UNL     1      26.449   1.552  52.182  1.00  0.00    -0.030 A 
HETATM    4  C3  UNL     1      26.338   0.183  52.109  1.00  0.00     0.011 A 
HETATM    5  C2  UNL     1      27.166  -0.710  52.707  1.00  0.00     0.037 A 
HETATM    6  C1  UNL     1      28.240  -0.280  53.473  1.00  0.00     0.065 A 
HETATM    7  C19 UNL     1      28.422   1.069  53.595  1.00  0.00     0.037 A 
HETATM    8  C18 UNL     1      27.553   1.928  52.969  1.00  0.00     0.011 A 
BRANCH   6   9
HETATM    9  O1  UNL     1      29.005  -1.274  54.025  1.00  0.00    -0.361 OA
HETATM   10  H1  UNL     1      30.023  -1.264  54.093  1.00  0.00     0.217 HD
ENDBRANCH   6   9
ENDBRANCH   2   3
ENDBRANCH   1   2
BRANCH   1  11
HETATM   11  C6  UNL     1      23.351   2.611  52.248  1.00  0.00     0.316 C 
BRANCH  11  12
HETATM   12  C7  UNL     1      22.598   1.457  52.727  1.00  0.00     0.006 A 
HETATM   13  C8  UNL     1      23.031   0.530  53.650  1.00  0.00     0.035 A 
HETATM   14  C9  UNL     1      22.351  -0.539  54.157  1.00  0.00     0.036 A 
HETATM   15 CL1  UNL     1      23.036  -1.645  55.339  1.00  0.00    -0.084 Cl
HETATM   16  C10 UNL     1      21.062  -0.770  53.727  1.00  0.00     0.050 A 
HETATM   17  C11 UNL     1      20.533   0.100  52.801  1.00  0.00     0.069 A 
HETATM   18 CL2  UNL     1      18.895  -0.237  52.287  1.00  0.00    -0.081 Cl
HETATM   19  C12 UNL     1      21.286   1.152  52.340  1.00  0.00     0.095 A 
BRANCH  19  20
HETATM   20  O2  UNL     1      20.590   1.913  51.409  1.00  0.00    -0.358 OA
HETATM   21  H10 UNL     1      20.954   2.827  51.103  1.00  0.00     0.217 HD
ENDBRANCH  19  20
ENDBRANCH  11  12
ENDBRANCH   1  11
BRANCH   1  22
HETATM   22  C13 UNL     1      23.992   2.800  49.974  1.00  0.00     0.409 C 
BRANCH  22  23
HETATM   23  N2  UNL     1      24.885   3.889  49.647  1.00  0.00    -0.301 N 
HETATM   24  C14 UNL     1      26.232   3.609  49.295  1.00  0.00     0.101 A 
HETATM   25  C15 UNL     1      27.166   4.470  48.958  1.00  0.00     0.018 A 
HETATM   26  C16 UNL     1      26.883   5.869  48.912  1.00  0.00     0.010 A 
HETATM   27  C17 UNL     1      25.767   6.483  49.165  1.00  0.00     0.068 A 
HETATM   28  S1  UNL     1      24.349   5.545  49.638  1.00  0.00    -0.025 SA
HETATM   29  S2  UNL     1      23.860   6.042  51.206  1.00  0.00     0.002 SA
ENDBRANCH  22  23
ENDBRANCH   1  22
TORSDOF 8
ENDMDL
