MODEL 1
REMARK VINA RESULT:      -7.0      0.000      0.000
REMARK  7 active torsions:
REMARK  status: ('A' for Active; 'I' for Inactive)
REMARK    1  A    between atoms: C2_2  and  C3_3 
REMARK    2  A    between atoms: C2_2  and  N1_5 
REMARK    3  A    between atoms: N1_5  and  C4_6 
REMARK    4  A    between atoms: N4_12  and  C8_13 
REMARK    5  A    between atoms: C8_13  and  N5_14 
REMARK    6  A    between atoms: N5_14  and  C9_15 
REMARK    7  A    between atoms: C13_19  and  N6_20 
ROOT
HETATM    1  C4  UNL     1      27.102   2.269  52.269  1.00  0.00     0.093 C 
HETATM    2  C5  UNL     1      27.950   2.029  53.289  1.00  0.00     0.113 A 
HETATM    3  N2  UNL     1      29.087   2.562  54.005  1.00  0.00    -0.239 NA
HETATM    4  C6  UNL     1      29.397   1.762  54.939  1.00  0.00     0.209 A 
HETATM    5  N3  UNL     1      28.528   0.605  54.975  1.00  0.00    -0.334 N 
HETATM    6  C7  UNL     1      27.543   0.735  53.898  1.00  0.00     0.155 A 
HETATM    7  N4  UNL     1      26.892  -0.320  54.126  1.00  0.00    -0.240 NA
HETATM    8  H10 UNL     1      28.936   0.061  55.807  1.00  0.00     0.168 HD
ENDROOT
BRANCH   7   9
HETATM    9  C8  UNL     1      25.725  -0.783  53.492  1.00  0.00     0.420 C 
BRANCH   9  10
HETATM   10  N5  UNL     1      24.632  -0.808  54.500  1.00  0.00     0.107 N 
HETATM   11  H13 UNL     1      24.706  -1.686  55.063  1.00  0.00     0.318 HD
BRANCH  10  12
HETATM   12  C9  UNL     1      23.375  -0.735  53.771  1.00  0.00     0.224 C 
HETATM   13  C10 UNL     1      23.118   0.666  53.325  1.00  0.00     0.036 C 
HETATM   14  C11 UNL     1      21.944   0.718  52.405  1.00  0.00     0.004 C 
HETATM   15  C12 UNL     1      20.942  -0.371  52.669  1.00  0.00     0.035 C 
HETATM   16  C13 UNL     1      20.901  -0.776  54.127  1.00  0.00     0.220 C 
HETATM   17  C14 UNL     1      22.239  -1.348  54.564  1.00  0.00     0.070 C 
BRANCH  16  18
HETATM   18  N6  UNL     1      20.504   0.328  54.975  1.00  0.00     0.083 N 
HETATM   19  H22 UNL     1      21.235   1.084  55.032  1.00  0.00     0.313 HD
HETATM   20  H23 UNL     1      19.598   0.754  54.701  1.00  0.00     0.313 HD
ENDBRANCH  16  18
ENDBRANCH  10  12
ENDBRANCH   9  10
ENDBRANCH   7   9
BRANCH   1  21
HETATM   21  N1  UNL     1      25.962   1.674  51.594  1.00  0.00    -0.295 NA
HETATM   22  H7  UNL     1      26.379   0.922  52.149  1.00  0.00     0.127 HD
BRANCH  21  23
HETATM   23  C2  UNL     1      25.596   2.929  50.931  1.00  0.00     0.069 C 
HETATM   24  C1  UNL     1      26.435   3.149  49.684  1.00  0.00     0.027 C 
BRANCH  23  25
HETATM   25  C3  UNL     1      24.163   3.013  50.522  1.00  0.00     0.134 C 
HETATM   26 CL1  UNL     1      23.349   4.024  51.770  1.00  0.00    -0.129 Cl
ENDBRANCH  23  25
ENDBRANCH  21  23
ENDBRANCH   1  21
TORSDOF 7
ENDMDL
MODEL 2
REMARK VINA RESULT:      -6.9      2.535      5.164
REMARK  7 active torsions:
REMARK  status: ('A' for Active; 'I' for Inactive)
REMARK    1  A    between atoms: C2_2  and  C3_3 
REMARK    2  A    between atoms: C2_2  and  N1_5 
REMARK    3  A    between atoms: N1_5  and  C4_6 
REMARK    4  A    between atoms: N4_12  and  C8_13 
REMARK    5  A    between atoms: C8_13  and  N5_14 
REMARK    6  A    between atoms: N5_14  and  C9_15 
REMARK    7  A    between atoms: C13_19  and  N6_20 
ROOT
HETATM    1  C4  UNL     1      25.591  -0.046  53.195  1.00  0.00     0.093 C 
HETATM    2  C5  UNL     1      26.852   0.163  53.623  1.00  0.00     0.113 A 
HETATM    3  N2  UNL     1      27.875  -0.336  54.514  1.00  0.00    -0.239 NA
HETATM    4  C6  UNL     1      28.910   0.388  54.399  1.00  0.00     0.209 A 
HETATM    5  N3  UNL     1      28.725   1.451  53.435  1.00  0.00    -0.334 N 
HETATM    6  C7  UNL     1      27.372   1.345  52.886  1.00  0.00     0.155 A 
HETATM    7  N4  UNL     1      27.434   2.308  52.075  1.00  0.00    -0.240 NA
HETATM    8  H10 UNL     1      29.681   1.941  53.478  1.00  0.00     0.168 HD
ENDROOT
BRANCH   7   9
HETATM    9  C8  UNL     1      26.473   2.727  51.136  1.00  0.00     0.420 C 
BRANCH   9  10
HETATM   10  N5  UNL     1      25.321   3.300  51.880  1.00  0.00     0.107 N 
HETATM   11  H13 UNL     1      24.714   2.522  52.223  1.00  0.00     0.318 HD
BRANCH  10  12
HETATM   12  C9  UNL     1      24.613   4.179  50.961  1.00  0.00     0.224 C 
HETATM   13  C10 UNL     1      25.585   4.937  50.121  1.00  0.00     0.036 C 
HETATM   14  C11 UNL     1      24.876   5.684  49.041  1.00  0.00     0.004 C 
HETATM   15  C12 UNL     1      23.474   6.072  49.418  1.00  0.00     0.035 C 
HETATM   16  C13 UNL     1      23.323   6.320  50.904  1.00  0.00     0.220 C 
HETATM   17  C14 UNL     1      23.615   5.054  51.692  1.00  0.00     0.070 C 
BRANCH  16  18
HETATM   18  N6  UNL     1      24.160   7.414  51.348  1.00  0.00     0.083 N 
HETATM   19  H22 UNL     1      25.187   7.180  51.328  1.00  0.00     0.313 HD
HETATM   20  H23 UNL     1      24.005   8.294  50.820  1.00  0.00     0.313 HD
ENDBRANCH  16  18
ENDBRANCH  10  12
ENDBRANCH   9  10
ENDBRANCH   7   9
BRANCH   1  21
HETATM   21  N1  UNL     1      24.609   0.511  52.281  1.00  0.00    -0.295 NA
HETATM   22  H7  UNL     1      25.482   0.454  51.750  1.00  0.00     0.127 HD
BRANCH  21  23
HETATM   23  C2  UNL     1      23.533   0.458  53.275  1.00  0.00     0.069 C 
HETATM   24  C1  UNL     1      22.411   1.414  52.910  1.00  0.00     0.027 C 
BRANCH  23  25
HETATM   25  C3  UNL     1      22.924  -0.894  53.451  1.00  0.00     0.134 C 
HETATM   26 CL1  UNL     1      21.939  -0.802  54.956  1.00  0.00    -0.129 Cl
ENDBRANCH  23  25
ENDBRANCH  21  23
ENDBRANCH   1  21
TORSDOF 7
ENDMDL
MODEL 3
REMARK VINA RESULT:      -6.7      2.287      4.796
REMARK  7 active torsions:
REMARK  status: ('A' for Active; 'I' for Inactive)
REMARK    1  A    between atoms: C2_2  and  C3_3 
REMARK    2  A    between atoms: C2_2  and  N1_5 
REMARK    3  A    between atoms: N1_5  and  C4_6 
REMARK    4  A    between atoms: N4_12  and  C8_13 
REMARK    5  A    between atoms: C8_13  and  N5_14 
REMARK    6  A    between atoms: N5_14  and  C9_15 
REMARK    7  A    between atoms: C13_19  and  N6_20 
ROOT
HETATM    1  C4  UNL     1      25.490   0.010  53.333  1.00  0.00     0.093 C 
HETATM    2  C5  UNL     1      26.719   0.195  53.855  1.00  0.00     0.113 A 
HETATM    3  N2  UNL     1      27.639  -0.283  54.862  1.00  0.00    -0.239 NA
HETATM    4  C6  UNL     1      28.712   0.389  54.792  1.00  0.00     0.209 A 
HETATM    5  N3  UNL     1      28.659   1.390  53.749  1.00  0.00    -0.334 N 
HETATM    6  C7  UNL     1      27.353   1.303  53.092  1.00  0.00     0.155 A 
HETATM    7  N4  UNL     1      27.529   2.205  52.229  1.00  0.00    -0.240 NA
HETATM    8  H10 UNL     1      29.629   1.843  53.843  1.00  0.00     0.168 HD
ENDROOT
BRANCH   7   9
HETATM    9  C8  UNL     1      26.671   2.597  51.185  1.00  0.00     0.420 C 
BRANCH   9  10
HETATM   10  N5  UNL     1      25.539   3.357  51.778  1.00  0.00     0.107 N 
HETATM   11  H13 UNL     1      24.885   2.688  52.243  1.00  0.00     0.318 HD
BRANCH  10  12
HETATM   12  C9  UNL     1      24.897   4.084  50.694  1.00  0.00     0.224 C 
HETATM   13  C10 UNL     1      23.869   5.019  51.237  1.00  0.00     0.036 C 
HETATM   14  C11 UNL     1      23.350   5.913  50.161  1.00  0.00     0.004 C 
HETATM   15  C12 UNL     1      23.404   5.283  48.797  1.00  0.00     0.035 C 
HETATM   16  C13 UNL     1      23.237   3.778  48.849  1.00  0.00     0.220 C 
HETATM   17  C14 UNL     1      24.371   3.139  49.632  1.00  0.00     0.070 C 
BRANCH  16  18
HETATM   18  N6  UNL     1      21.950   3.405  49.397  1.00  0.00     0.083 N 
HETATM   19  H22 UNL     1      21.747   3.869  50.320  1.00  0.00     0.313 HD
HETATM   20  H23 UNL     1      21.159   3.580  48.749  1.00  0.00     0.313 HD
ENDBRANCH  16  18
ENDBRANCH  10  12
ENDBRANCH   9  10
ENDBRANCH   7   9
BRANCH   1  21
HETATM   21  N1  UNL     1      24.616   0.542  52.303  1.00  0.00    -0.295 NA
HETATM   22  H7  UNL     1      25.539   0.460  51.868  1.00  0.00     0.127 HD
BRANCH  21  23
HETATM   23  C2  UNL     1      23.442   0.533  53.180  1.00  0.00     0.069 C 
HETATM   24  C1  UNL     1      22.403   1.535  52.705  1.00  0.00     0.027 C 
BRANCH  23  25
HETATM   25  C3  UNL     1      22.763  -0.792  53.285  1.00  0.00     0.134 C 
HETATM   26 CL1  UNL     1      22.190  -0.922  54.987  1.00  0.00    -0.129 Cl
ENDBRANCH  23  25
ENDBRANCH  21  23
ENDBRANCH   1  21
TORSDOF 7
ENDMDL
MODEL 4
REMARK VINA RESULT:      -6.6      2.157      5.750
REMARK  7 active torsions:
REMARK  status: ('A' for Active; 'I' for Inactive)
REMARK    1  A    between atoms: C2_2  and  C3_3 
REMARK    2  A    between atoms: C2_2  and  N1_5 
REMARK    3  A    between atoms: N1_5  and  C4_6 
REMARK    4  A    between atoms: N4_12  and  C8_13 
REMARK    5  A    between atoms: C8_13  and  N5_14 
REMARK    6  A    between atoms: N5_14  and  C9_15 
REMARK    7  A    between atoms: C13_19  and  N6_20 
ROOT
HETATM    1  C4  UNL     1      22.956   3.935  51.997  1.00  0.00     0.093 C 
HETATM    2  C5  UNL     1      22.121   2.946  52.372  1.00  0.00     0.113 A 
HETATM    3  N2  UNL     1      20.728   2.574  52.467  1.00  0.00    -0.239 NA
HETATM    4  C6  UNL     1      20.646   1.399  52.939  1.00  0.00     0.209 A 
HETATM    5  N3  UNL     1      21.949   0.835  53.219  1.00  0.00    -0.334 N 
HETATM    6  C7  UNL     1      22.967   1.823  52.857  1.00  0.00     0.155 A 
HETATM    7  N4  UNL     1      23.987   1.139  53.140  1.00  0.00    -0.240 NA
HETATM    8  H10 UNL     1      21.680  -0.133  53.600  1.00  0.00     0.168 HD
ENDROOT
BRANCH   7   9
HETATM    9  C8  UNL     1      25.342   1.465  52.949  1.00  0.00     0.420 C 
BRANCH   9  10
HETATM   10  N5  UNL     1      25.913   0.508  51.965  1.00  0.00     0.107 N 
HETATM   11  H13 UNL     1      25.361  -0.379  51.991  1.00  0.00     0.318 HD
BRANCH  10  12
HETATM   12  C9  UNL     1      27.304   0.295  52.334  1.00  0.00     0.224 C 
HETATM   13  C10 UNL     1      27.438  -0.949  53.147  1.00  0.00     0.036 C 
HETATM   14  C11 UNL     1      28.876  -1.288  53.356  1.00  0.00     0.004 C 
HETATM   15  C12 UNL     1      29.772  -0.081  53.352  1.00  0.00     0.035 C 
HETATM   16  C13 UNL     1      29.074   1.157  53.876  1.00  0.00     0.220 C 
HETATM   17  C14 UNL     1      27.897   1.526  52.988  1.00  0.00     0.070 C 
BRANCH  16  18
HETATM   18  N6  UNL     1      28.656   0.989  55.252  1.00  0.00     0.083 N 
HETATM   19  H22 UNL     1      28.282   1.877  55.678  1.00  0.00     0.313 HD
HETATM   20  H23 UNL     1      27.958   0.233  55.382  1.00  0.00     0.313 HD
ENDBRANCH  16  18
ENDBRANCH  10  12
ENDBRANCH   9  10
ENDBRANCH   7   9
BRANCH   1  21
HETATM   21  N1  UNL     1      24.374   4.244  51.932  1.00  0.00    -0.295 NA
HETATM   22  H7  UNL     1      24.184   4.013  52.911  1.00  0.00     0.127 HD
BRANCH  21  23
HETATM   23  C2  UNL     1      24.334   4.506  50.490  1.00  0.00     0.069 C 
HETATM   24  C1  UNL     1      25.272   5.643  50.120  1.00  0.00     0.027 C 
BRANCH  23  25
HETATM   25  C3  UNL     1      24.702   3.335  49.642  1.00  0.00     0.134 C 
HETATM   26 CL1  UNL     1      26.502   3.294  49.605  1.00  0.00    -0.129 Cl
ENDBRANCH  23  25
ENDBRANCH  21  23
ENDBRANCH   1  21
TORSDOF 7
ENDMDL
MODEL 5
REMARK VINA RESULT:      -6.5      1.510      5.749
REMARK  7 active torsions:
REMARK  status: ('A' for Active; 'I' for Inactive)
REMARK    1  A    between atoms: C2_2  and  C3_3 
REMARK    2  A    between atoms: C2_2  and  N1_5 
REMARK    3  A    between atoms: N1_5  and  C4_6 
REMARK    4  A    between atoms: N4_12  and  C8_13 
REMARK    5  A    between atoms: C8_13  and  N5_14 
REMARK    6  A    between atoms: N5_14  and  C9_15 
REMARK    7  A    between atoms: C13_19  and  N6_20 
ROOT
HETATM    1  C4  UNL     1      22.358   1.100  51.719  1.00  0.00     0.093 C 
HETATM    2  C5  UNL     1      21.660   0.378  52.618  1.00  0.00     0.113 A 
HETATM    3  N2  UNL     1      20.325   0.073  53.079  1.00  0.00    -0.239 NA
HETATM    4  C6  UNL     1      20.399  -0.763  54.031  1.00  0.00     0.209 A 
HETATM    5  N3  UNL     1      21.768  -1.124  54.331  1.00  0.00    -0.334 N 
HETATM    6  C7  UNL     1      22.649  -0.395  53.416  1.00  0.00     0.155 A 
HETATM    7  N4  UNL     1      23.748  -0.866  53.815  1.00  0.00    -0.240 NA
HETATM    8  H10 UNL     1      21.629  -1.819  55.139  1.00  0.00     0.168 HD
ENDROOT
BRANCH   7   9
HETATM    9  C8  UNL     1      25.036  -0.645  53.295  1.00  0.00     0.420 C 
BRANCH   9  10
HETATM   10  N5  UNL     1      26.000  -0.666  54.426  1.00  0.00     0.107 N 
HETATM   11  H13 UNL     1      25.471  -0.635  55.327  1.00  0.00     0.318 HD
BRANCH  10  12
HETATM   12  C9  UNL     1      26.871   0.489  54.267  1.00  0.00     0.224 C 
HETATM   13  C10 UNL     1      26.987   0.853  52.825  1.00  0.00     0.036 C 
HETATM   14  C11 UNL     1      27.707   2.150  52.666  1.00  0.00     0.004 C 
HETATM   15  C12 UNL     1      28.688   2.417  53.774  1.00  0.00     0.035 C 
HETATM   16  C13 UNL     1      29.283   1.144  54.337  1.00  0.00     0.220 C 
HETATM   17  C14 UNL     1      28.202   0.275  54.959  1.00  0.00     0.070 C 
BRANCH  16  18
HETATM   18  N6  UNL     1      30.024   0.412  53.331  1.00  0.00     0.083 N 
HETATM   19  H22 UNL     1      29.493  -0.414  52.951  1.00  0.00     0.313 HD
HETATM   20  H23 UNL     1      30.340   1.004  52.539  1.00  0.00     0.313 HD
ENDBRANCH  16  18
ENDBRANCH  10  12
ENDBRANCH   9  10
ENDBRANCH   7   9
BRANCH   1  21
HETATM   21  N1  UNL     1      23.726   1.363  51.308  1.00  0.00    -0.295 NA
HETATM   22  H7  UNL     1      23.719   0.398  51.651  1.00  0.00     0.127 HD
BRANCH  21  23
HETATM   23  C2  UNL     1      23.422   2.733  50.883  1.00  0.00     0.069 C 
HETATM   24  C1  UNL     1      24.660   3.416  50.330  1.00  0.00     0.027 C 
BRANCH  23  25
HETATM   25  C3  UNL     1      22.358   2.831  49.840  1.00  0.00     0.134 C 
HETATM   26 CL1  UNL     1      23.111   3.683  48.444  1.00  0.00    -0.129 Cl
ENDBRANCH  23  25
ENDBRANCH  21  23
ENDBRANCH   1  21
TORSDOF 7
ENDMDL
MODEL 6
REMARK VINA RESULT:      -6.5      2.625      6.258
REMARK  7 active torsions:
REMARK  status: ('A' for Active; 'I' for Inactive)
REMARK    1  A    between atoms: C2_2  and  C3_3 
REMARK    2  A    between atoms: C2_2  and  N1_5 
REMARK    3  A    between atoms: N1_5  and  C4_6 
REMARK    4  A    between atoms: N4_12  and  C8_13 
REMARK    5  A    between atoms: C8_13  and  N5_14 
REMARK    6  A    between atoms: N5_14  and  C9_15 
REMARK    7  A    between atoms: C13_19  and  N6_20 
ROOT
HETATM    1  C4  UNL     1      24.855  -0.448  54.544  1.00  0.00     0.093 C 
HETATM    2  C5  UNL     1      23.564  -0.832  54.489  1.00  0.00     0.113 A 
HETATM    3  N2  UNL     1      22.565  -1.647  55.141  1.00  0.00    -0.239 NA
HETATM    4  C6  UNL     1      21.467  -1.530  54.517  1.00  0.00     0.209 A 
HETATM    5  N3  UNL     1      21.578  -0.637  53.383  1.00  0.00    -0.334 N 
HETATM    6  C7  UNL     1      22.955  -0.142  53.320  1.00  0.00     0.155 A 
HETATM    7  N4  UNL     1      22.826   0.614  52.320  1.00  0.00    -0.240 NA
HETATM    8  H10 UNL     1      20.577  -0.666  52.994  1.00  0.00     0.168 HD
ENDROOT
BRANCH   7   9
HETATM    9  C8  UNL     1      23.773   1.485  51.751  1.00  0.00     0.420 C 
BRANCH   9  10
HETATM   10  N5  UNL     1      23.199   2.035  50.496  1.00  0.00     0.107 N 
HETATM   11  H13 UNL     1      22.950   1.245  49.858  1.00  0.00     0.318 HD
BRANCH  10  12
HETATM   12  C9  UNL     1      24.205   2.909  49.912  1.00  0.00     0.224 C 
HETATM   13  C10 UNL     1      25.453   2.877  50.729  1.00  0.00     0.036 C 
HETATM   14  C11 UNL     1      26.555   3.603  50.034  1.00  0.00     0.004 C 
HETATM   15  C12 UNL     1      26.060   4.704  49.137  1.00  0.00     0.035 C 
HETATM   16  C13 UNL     1      24.777   5.328  49.645  1.00  0.00     0.220 C 
HETATM   17  C14 UNL     1      23.657   4.302  49.677  1.00  0.00     0.070 C 
BRANCH  16  18
HETATM   18  N6  UNL     1      24.961   5.940  50.944  1.00  0.00     0.083 N 
HETATM   19  H22 UNL     1      24.165   6.573  51.216  1.00  0.00     0.313 HD
HETATM   20  H23 UNL     1      25.120   5.253  51.706  1.00  0.00     0.313 HD
ENDBRANCH  16  18
ENDBRANCH  10  12
ENDBRANCH   9  10
ENDBRANCH   7   9
BRANCH   1  21
HETATM   21  N1  UNL     1      25.808   0.390  53.838  1.00  0.00    -0.295 NA
HETATM   22  H7  UNL     1      25.004   0.991  54.034  1.00  0.00     0.127 HD
BRANCH  21  23
HETATM   23  C2  UNL     1      26.791  -0.691  53.716  1.00  0.00     0.069 C 
HETATM   24  C1  UNL     1      26.711  -1.345  52.348  1.00  0.00     0.027 C 
BRANCH  23  25
HETATM   25  C3  UNL     1      28.206  -0.262  53.919  1.00  0.00     0.134 C 
HETATM   26 CL1  UNL     1      29.227  -1.622  53.328  1.00  0.00    -0.129 Cl
ENDBRANCH  23  25
ENDBRANCH  21  23
ENDBRANCH   1  21
TORSDOF 7
ENDMDL
MODEL 7
REMARK VINA RESULT:      -6.4      2.595      5.874
REMARK  7 active torsions:
REMARK  status: ('A' for Active; 'I' for Inactive)
REMARK    1  A    between atoms: C2_2  and  C3_3 
REMARK    2  A    between atoms: C2_2  and  N1_5 
REMARK    3  A    between atoms: N1_5  and  C4_6 
REMARK    4  A    between atoms: N4_12  and  C8_13 
REMARK    5  A    between atoms: C8_13  and  N5_14 
REMARK    6  A    between atoms: N5_14  and  C9_15 
REMARK    7  A    between atoms: C13_19  and  N6_20 
ROOT
HETATM    1  C4  UNL     1      26.155  -0.407  53.879  1.00  0.00     0.093 C 
HETATM    2  C5  UNL     1      24.816  -0.492  54.013  1.00  0.00     0.113 A 
HETATM    3  N2  UNL     1      23.762  -1.112  54.781  1.00  0.00    -0.239 NA
HETATM    4  C6  UNL     1      22.641  -0.709  54.344  1.00  0.00     0.209 A 
HETATM    5  N3  UNL     1      22.790   0.218  53.243  1.00  0.00    -0.334 N 
HETATM    6  C7  UNL     1      24.219   0.400  52.983  1.00  0.00     0.155 A 
HETATM    7  N4  UNL     1      24.124   1.238  52.046  1.00  0.00    -0.240 NA
HETATM    8  H10 UNL     1      21.763   0.440  53.015  1.00  0.00     0.168 HD
ENDROOT
BRANCH   7   9
HETATM    9  C8  UNL     1      25.153   1.917  51.370  1.00  0.00     0.420 C 
BRANCH   9  10
HETATM   10  N5  UNL     1      25.250   3.289  51.935  1.00  0.00     0.107 N 
HETATM   11  H13 UNL     1      24.855   3.289  52.903  1.00  0.00     0.318 HD
BRANCH  10  12
HETATM   12  C9  UNL     1      24.510   4.171  51.045  1.00  0.00     0.224 C 
HETATM   13  C10 UNL     1      25.449   4.897  50.141  1.00  0.00     0.036 C 
HETATM   14  C11 UNL     1      24.696   5.645  49.092  1.00  0.00     0.004 C 
HETATM   15  C12 UNL     1      23.325   6.069  49.542  1.00  0.00     0.035 C 
HETATM   16  C13 UNL     1      23.266   6.340  51.031  1.00  0.00     0.220 C 
HETATM   17  C14 UNL     1      23.575   5.078  51.819  1.00  0.00     0.070 C 
BRANCH  16  18
HETATM   18  N6  UNL     1      24.150   7.421  51.411  1.00  0.00     0.083 N 
HETATM   19  H22 UNL     1      24.951   7.551  50.740  1.00  0.00     0.313 HD
HETATM   20  H23 UNL     1      23.663   8.329  51.535  1.00  0.00     0.313 HD
ENDBRANCH  16  18
ENDBRANCH  10  12
ENDBRANCH   9  10
ENDBRANCH   7   9
BRANCH   1  21
HETATM   21  N1  UNL     1      27.163   0.249  53.065  1.00  0.00    -0.295 NA
HETATM   22  H7  UNL     1      26.276   0.385  52.572  1.00  0.00     0.127 HD
BRANCH  21  23
HETATM   23  C2  UNL     1      28.249  -0.095  53.988  1.00  0.00     0.069 C 
HETATM   24  C1  UNL     1      29.114  -1.206  53.418  1.00  0.00     0.027 C 
BRANCH  23  25
HETATM   25  C3  UNL     1      29.154   1.044  54.322  1.00  0.00     0.134 C 
HETATM   26 CL1  UNL     1      28.409   2.505  53.578  1.00  0.00    -0.129 Cl
ENDBRANCH  23  25
ENDBRANCH  21  23
ENDBRANCH   1  21
TORSDOF 7
ENDMDL
MODEL 8
REMARK VINA RESULT:      -6.3      2.391      4.175
REMARK  7 active torsions:
REMARK  status: ('A' for Active; 'I' for Inactive)
REMARK    1  A    between atoms: C2_2  and  C3_3 
REMARK    2  A    between atoms: C2_2  and  N1_5 
REMARK    3  A    between atoms: N1_5  and  C4_6 
REMARK    4  A    between atoms: N4_12  and  C8_13 
REMARK    5  A    between atoms: C8_13  and  N5_14 
REMARK    6  A    between atoms: N5_14  and  C9_15 
REMARK    7  A    between atoms: C13_19  and  N6_20 
ROOT
HETATM    1  C4  UNL     1      26.570   1.628  51.603  1.00  0.00     0.093 C 
HETATM    2  C5  UNL     1      26.336   2.738  50.876  1.00  0.00     0.113 A 
HETATM    3  N2  UNL     1      26.940   3.675  49.957  1.00  0.00    -0.239 NA
HETATM    4  C6  UNL     1      26.078   4.546  49.629  1.00  0.00     0.209 A 
HETATM    5  N3  UNL     1      24.803   4.316  50.273  1.00  0.00    -0.334 N 
HETATM    6  C7  UNL     1      24.919   3.122  51.113  1.00  0.00     0.155 A 
HETATM    7  N4  UNL     1      23.732   3.088  51.536  1.00  0.00    -0.240 NA
HETATM    8  H10 UNL     1      24.221   5.131  49.883  1.00  0.00     0.168 HD
ENDROOT
BRANCH   7   9
HETATM    9  C8  UNL     1      23.119   2.116  52.349  1.00  0.00     0.420 C 
BRANCH   9  10
HETATM   10  N5  UNL     1      22.998   0.863  51.558  1.00  0.00     0.107 N 
HETATM   11  H13 UNL     1      22.830   1.106  50.555  1.00  0.00     0.318 HD
BRANCH  10  12
HETATM   12  C9  UNL     1      21.895   0.104  52.126  1.00  0.00     0.224 C 
HETATM   13  C10 UNL     1      20.647   0.921  52.116  1.00  0.00     0.036 C 
HETATM   14  C11 UNL     1      19.470   0.089  52.503  1.00  0.00     0.004 C 
HETATM   15  C12 UNL     1      19.829  -1.046  53.421  1.00  0.00     0.035 C 
HETATM   16  C13 UNL     1      21.006  -0.715  54.315  1.00  0.00     0.220 C 
HETATM   17  C14 UNL     1      22.254  -0.457  53.487  1.00  0.00     0.070 C 
BRANCH  16  18
HETATM   18  N6  UNL     1      20.715   0.407  55.182  1.00  0.00     0.083 N 
HETATM   19  H22 UNL     1      20.940   1.336  54.740  1.00  0.00     0.313 HD
HETATM   20  H23 UNL     1      19.735   0.424  55.523  1.00  0.00     0.313 HD
ENDBRANCH  16  18
ENDBRANCH  10  12
ENDBRANCH   9  10
ENDBRANCH   7   9
BRANCH   1  21
HETATM   21  N1  UNL     1      25.900   0.727  52.525  1.00  0.00    -0.295 NA
HETATM   22  H7  UNL     1      25.413   0.623  51.631  1.00  0.00     0.127 HD
BRANCH  21  23
HETATM   23  C2  UNL     1      26.784   1.080  53.640  1.00  0.00     0.069 C 
HETATM   24  C1  UNL     1      26.510   0.199  54.847  1.00  0.00     0.027 C 
BRANCH  23  25
HETATM   25  C3  UNL     1      28.240   0.967  53.330  1.00  0.00     0.134 C 
HETATM   26 CL1  UNL     1      28.739  -0.671  53.887  1.00  0.00    -0.129 Cl
ENDBRANCH  23  25
ENDBRANCH  21  23
ENDBRANCH   1  21
TORSDOF 7
ENDMDL
MODEL 9
REMARK VINA RESULT:      -6.3      2.061      6.071
REMARK  7 active torsions:
REMARK  status: ('A' for Active; 'I' for Inactive)
REMARK    1  A    between atoms: C2_2  and  C3_3 
REMARK    2  A    between atoms: C2_2  and  N1_5 
REMARK    3  A    between atoms: N1_5  and  C4_6 
REMARK    4  A    between atoms: N4_12  and  C8_13 
REMARK    5  A    between atoms: C8_13  and  N5_14 
REMARK    6  A    between atoms: N5_14  and  C9_15 
REMARK    7  A    between atoms: C13_19  and  N6_20 
ROOT
HETATM    1  C4  UNL     1      20.789   1.116  52.836  1.00  0.00     0.093 C 
HETATM    2  C5  UNL     1      19.958   0.084  53.085  1.00  0.00     0.113 A 
HETATM    3  N2  UNL     1      18.647  -0.449  52.794  1.00  0.00    -0.239 NA
HETATM    4  C6  UNL     1      18.508  -1.554  53.402  1.00  0.00     0.209 A 
HETATM    5  N3  UNL     1      19.683  -1.904  54.170  1.00  0.00    -0.334 N 
HETATM    6  C7  UNL     1      20.682  -0.848  53.991  1.00  0.00     0.155 A 
HETATM    7  N4  UNL     1      21.601  -1.352  54.690  1.00  0.00    -0.240 NA
HETATM    8  H10 UNL     1      19.382  -2.841  54.600  1.00  0.00     0.168 HD
ENDROOT
BRANCH   7   9
HETATM    9  C8  UNL     1      22.912  -0.881  54.887  1.00  0.00     0.420 C 
BRANCH   9  10
HETATM   10  N5  UNL     1      23.621  -0.929  53.581  1.00  0.00     0.107 N 
HETATM   11  H13 UNL     1      23.924  -1.912  53.393  1.00  0.00     0.318 HD
BRANCH  10  12
HETATM   12  C9  UNL     1      24.751  -0.018  53.674  1.00  0.00     0.224 C 
HETATM   13  C10 UNL     1      25.475   0.040  52.371  1.00  0.00     0.036 C 
HETATM   14  C11 UNL     1      26.506   1.119  52.390  1.00  0.00     0.004 C 
HETATM   15  C12 UNL     1      27.047   1.390  53.766  1.00  0.00     0.035 C 
HETATM   16  C13 UNL     1      27.052   0.152  54.639  1.00  0.00     0.220 C 
HETATM   17  C14 UNL     1      25.636  -0.356  54.857  1.00  0.00     0.070 C 
BRANCH  16  18
HETATM   18  N6  UNL     1      27.898  -0.885  54.087  1.00  0.00     0.083 N 
HETATM   19  H22 UNL     1      28.828  -0.957  54.575  1.00  0.00     0.313 HD
HETATM   20  H23 UNL     1      27.450  -1.821  54.074  1.00  0.00     0.313 HD
ENDBRANCH  16  18
ENDBRANCH  10  12
ENDBRANCH   9  10
ENDBRANCH   7   9
BRANCH   1  21
HETATM   21  N1  UNL     1      22.118   1.594  53.173  1.00  0.00    -0.295 NA
HETATM   22  H7  UNL     1      21.821   1.018  53.965  1.00  0.00     0.127 HD
BRANCH  21  23
HETATM   23  C2  UNL     1      22.260   2.333  51.915  1.00  0.00     0.069 C 
HETATM   24  C1  UNL     1      23.429   3.300  51.984  1.00  0.00     0.027 C 
BRANCH  23  25
HETATM   25  C3  UNL     1      22.469   1.470  50.715  1.00  0.00     0.134 C 
HETATM   26 CL1  UNL     1      23.066   2.564  49.415  1.00  0.00    -0.129 Cl
ENDBRANCH  23  25
ENDBRANCH  21  23
ENDBRANCH   1  21
TORSDOF 7
ENDMDL
