MODEL 1
REMARK VINA RESULT:      -8.2      0.000      0.000
REMARK  6 active torsions:
REMARK  status: ('A' for Active; 'I' for Inactive)
REMARK    1  A    between atoms: N1_1  and  C1_2 
REMARK    2  A    between atoms: C1_2  and  C2_3 
REMARK    3  A    between atoms: C2_3  and  C3_4 
REMARK    4  A    between atoms: C3_4  and  N2_5 
REMARK       I    between atoms: N2_5  and  C4_6 
REMARK    5  A    between atoms: C4_6  and  C5_8 
REMARK    6  A    between atoms: C9_12  and  C10_13 
ROOT
HETATM    1  C5  UNL     1      25.250   0.458  52.928  1.00  0.00     0.032 A 
HETATM    2  C6  UNL     1      25.503   1.542  52.113  1.00  0.00     0.017 A 
HETATM    3  C7  UNL     1      24.479   2.219  51.442  1.00  0.00     0.002 A 
HETATM    4  C8  UNL     1      23.179   1.828  51.570  1.00  0.00     0.015 A 
HETATM    5  C9  UNL     1      22.909   0.746  52.382  1.00  0.00     0.013 A 
HETATM    6  C19 UNL     1      23.928   0.088  53.038  1.00  0.00     0.032 A 
ENDROOT
BRANCH   5   7
HETATM    7  C10 UNL     1      21.532   0.292  52.549  1.00  0.00     0.159 A 
HETATM    8  N3  UNL     1      21.237  -0.642  53.471  1.00  0.00    -0.240 NA
HETATM    9  C11 UNL     1      19.956  -1.083  53.645  1.00  0.00     0.128 A 
HETATM   10  C12 UNL     1      18.921  -0.565  52.859  1.00  0.00    -0.012 A 
HETATM   11  C13 UNL     1      19.259   0.390  51.924  1.00  0.00     0.049 A 
HETATM   12  C18 UNL     1      17.802  -1.328  53.413  1.00  0.00     0.070 C 
HETATM   13  N4  UNL     1      20.552   0.803  51.783  1.00  0.00    -0.232 NA
HETATM   14  C14 UNL     1      18.454   1.135  50.952  1.00  0.00     0.106 C 
HETATM   15  C15 UNL     1      17.624   0.307  50.063  1.00  0.00     0.095 C 
HETATM   16  N5  UNL     1      16.685  -0.559  50.248  1.00  0.00    -0.277 NA
HETATM   17  C16 UNL     1      16.048  -1.085  51.400  1.00  0.00     0.112 C 
HETATM   18  C17 UNL     1      16.581  -1.352  52.604  1.00  0.00    -0.003 C 
ENDBRANCH   5   7
BRANCH   1  19
HETATM   19  C4  UNL     1      26.369  -0.189  53.590  1.00  0.00     0.251 C 
HETATM   20  N2  UNL     1      27.660   0.386  53.728  1.00  0.00    -0.357 N 
HETATM   21  H9  UNL     1      27.737   1.336  53.302  1.00  0.00     0.162 HD
HETATM   22  O1  UNL     1      26.151  -1.331  54.064  1.00  0.00    -0.268 OA
BRANCH  20  23
HETATM   23  C3  UNL     1      28.791  -0.238  54.383  1.00  0.00     0.124 C 
BRANCH  23  24
HETATM   24  C2  UNL     1      29.632  -0.939  53.325  1.00  0.00     0.049 C 
BRANCH  24  25
HETATM   25  C1  UNL     1      29.713  -2.422  53.625  1.00  0.00     0.268 C 
BRANCH  25  26
HETATM   26  N1  UNL     1      28.530  -3.089  53.153  1.00  0.00     0.078 N 
HETATM   27  H1  UNL     1      27.711  -2.464  53.016  1.00  0.00     0.312 HD
HETATM   28  H2  UNL     1      28.302  -3.929  53.712  1.00  0.00     0.312 HD
ENDBRANCH  25  26
ENDBRANCH  24  25
ENDBRANCH  23  24
ENDBRANCH  20  23
ENDBRANCH   1  19
TORSDOF 6
ENDMDL
MODEL 2
REMARK VINA RESULT:      -8.1      5.196      7.774
REMARK  6 active torsions:
REMARK  status: ('A' for Active; 'I' for Inactive)
REMARK    1  A    between atoms: N1_1  and  C1_2 
REMARK    2  A    between atoms: C1_2  and  C2_3 
REMARK    3  A    between atoms: C2_3  and  C3_4 
REMARK    4  A    between atoms: C3_4  and  N2_5 
REMARK       I    between atoms: N2_5  and  C4_6 
REMARK    5  A    between atoms: C4_6  and  C5_8 
REMARK    6  A    between atoms: C9_12  and  C10_13 
ROOT
HETATM    1  C5  UNL     1      27.448   5.587  48.616  1.00  0.00     0.032 A 
HETATM    2  C6  UNL     1      26.512   6.509  48.198  1.00  0.00     0.017 A 
HETATM    3  C7  UNL     1      25.160   6.404  48.545  1.00  0.00     0.002 A 
HETATM    4  C8  UNL     1      24.714   5.373  49.318  1.00  0.00     0.015 A 
HETATM    5  C9  UNL     1      25.637   4.441  49.746  1.00  0.00     0.013 A 
HETATM    6  C19 UNL     1      26.966   4.558  49.396  1.00  0.00     0.032 A 
ENDROOT
BRANCH   5   7
HETATM    7  C10 UNL     1      25.205   3.321  50.575  1.00  0.00     0.159 A 
HETATM    8  N3  UNL     1      23.898   3.138  50.833  1.00  0.00    -0.240 NA
HETATM    9  C11 UNL     1      23.470   2.097  51.607  1.00  0.00     0.128 A 
HETATM   10  C12 UNL     1      24.394   1.196  52.148  1.00  0.00    -0.012 A 
HETATM   11  C13 UNL     1      25.725   1.414  51.863  1.00  0.00     0.049 A 
HETATM   12  C18 UNL     1      23.470   0.312  52.860  1.00  0.00     0.070 C 
HETATM   13  N4  UNL     1      26.110   2.467  51.085  1.00  0.00    -0.232 NA
HETATM   14  C14 UNL     1      26.939   0.690  52.251  1.00  0.00     0.106 C 
HETATM   15  C15 UNL     1      27.104   0.474  53.697  1.00  0.00     0.095 C 
HETATM   16  N5  UNL     1      26.405  -0.113  54.609  1.00  0.00    -0.277 NA
HETATM   17  C16 UNL     1      25.170  -0.808  54.604  1.00  0.00     0.112 C 
HETATM   18  C17 UNL     1      24.070  -0.558  53.873  1.00  0.00    -0.003 C 
ENDBRANCH   5   7
BRANCH   1  19
HETATM   19  C4  UNL     1      28.831   5.769  48.213  1.00  0.00     0.251 C 
HETATM   20  N2  UNL     1      29.441   7.031  47.991  1.00  0.00    -0.357 N 
HETATM   21  H9  UNL     1      28.794   7.836  48.146  1.00  0.00     0.162 HD
HETATM   22  O1  UNL     1      29.508   4.723  48.060  1.00  0.00    -0.268 OA
BRANCH  20  23
HETATM   23  C3  UNL     1      30.817   7.239  47.589  1.00  0.00     0.124 C 
BRANCH  23  24
HETATM   24  C2  UNL     1      31.636   7.560  48.831  1.00  0.00     0.049 C 
BRANCH  24  25
HETATM   25  C1  UNL     1      32.324   6.308  49.336  1.00  0.00     0.268 C 
BRANCH  25  26
HETATM   26  N1  UNL     1      31.592   5.750  50.441  1.00  0.00     0.078 N 
HETATM   27  H1  UNL     1      30.989   6.432  50.943  1.00  0.00     0.312 HD
HETATM   28  H2  UNL     1      32.197   5.206  51.080  1.00  0.00     0.312 HD
ENDBRANCH  25  26
ENDBRANCH  24  25
ENDBRANCH  23  24
ENDBRANCH  20  23
ENDBRANCH   1  19
TORSDOF 6
ENDMDL
MODEL 3
REMARK VINA RESULT:      -8.1      3.577      6.187
REMARK  6 active torsions:
REMARK  status: ('A' for Active; 'I' for Inactive)
REMARK    1  A    between atoms: N1_1  and  C1_2 
REMARK    2  A    between atoms: C1_2  and  C2_3 
REMARK    3  A    between atoms: C2_3  and  C3_4 
REMARK    4  A    between atoms: C3_4  and  N2_5 
REMARK       I    between atoms: N2_5  and  C4_6 
REMARK    5  A    between atoms: C4_6  and  C5_8 
REMARK    6  A    between atoms: C9_12  and  C10_13 
ROOT
HETATM    1  C5  UNL     1      24.791   0.523  53.534  1.00  0.00     0.032 A 
HETATM    2  C6  UNL     1      23.672  -0.278  53.618  1.00  0.00     0.017 A 
HETATM    3  C7  UNL     1      22.415   0.157  53.182  1.00  0.00     0.002 A 
HETATM    4  C8  UNL     1      22.250   1.403  52.652  1.00  0.00     0.015 A 
HETATM    5  C9  UNL     1      23.360   2.217  52.561  1.00  0.00     0.013 A 
HETATM    6  C19 UNL     1      24.592   1.775  52.994  1.00  0.00     0.032 A 
ENDROOT
BRANCH   5   7
HETATM    7  C10 UNL     1      23.231   3.558  52.002  1.00  0.00     0.159 A 
HETATM    8  N3  UNL     1      22.091   4.253  52.170  1.00  0.00    -0.240 NA
HETATM    9  C11 UNL     1      21.946   5.509  51.655  1.00  0.00     0.128 A 
HETATM   10  C12 UNL     1      22.993   6.100  50.938  1.00  0.00    -0.012 A 
HETATM   11  C13 UNL     1      24.146   5.361  50.784  1.00  0.00     0.049 A 
HETATM   12  C18 UNL     1      22.364   7.382  50.619  1.00  0.00     0.070 C 
HETATM   13  N4  UNL     1      24.249   4.108  51.315  1.00  0.00    -0.232 NA
HETATM   14  C14 UNL     1      25.414   5.654  50.110  1.00  0.00     0.106 C 
HETATM   15  C15 UNL     1      25.291   6.078  48.706  1.00  0.00     0.095 C 
HETATM   16  N5  UNL     1      24.691   7.049  48.104  1.00  0.00    -0.277 NA
HETATM   17  C16 UNL     1      23.886   8.130  48.543  1.00  0.00     0.112 C 
HETATM   18  C17 UNL     1      22.996   8.157  49.550  1.00  0.00    -0.003 C 
ENDBRANCH   5   7
BRANCH   1  19
HETATM   19  C4  UNL     1      26.059  -0.004  54.008  1.00  0.00     0.251 C 
HETATM   20  N2  UNL     1      27.133   0.796  54.478  1.00  0.00    -0.357 N 
HETATM   21  H9  UNL     1      26.928   1.819  54.454  1.00  0.00     0.162 HD
HETATM   22  O1  UNL     1      26.184  -1.253  53.989  1.00  0.00    -0.268 OA
BRANCH  20  23
HETATM   23  C3  UNL     1      28.406   0.295  54.956  1.00  0.00     0.124 C 
BRANCH  23  24
HETATM   24  C2  UNL     1      29.392   0.305  53.796  1.00  0.00     0.049 C 
BRANCH  24  25
HETATM   25  C1  UNL     1      30.019  -1.064  53.636  1.00  0.00     0.268 C 
BRANCH  25  26
HETATM   26  N1  UNL     1      29.002  -2.054  53.408  1.00  0.00     0.078 N 
HETATM   27  H1  UNL     1      28.067  -1.661  53.179  1.00  0.00     0.312 HD
HETATM   28  H2  UNL     1      28.965  -2.761  54.162  1.00  0.00     0.312 HD
ENDBRANCH  25  26
ENDBRANCH  24  25
ENDBRANCH  23  24
ENDBRANCH  20  23
ENDBRANCH   1  19
TORSDOF 6
ENDMDL
MODEL 4
REMARK VINA RESULT:      -7.9      1.714      3.084
REMARK  6 active torsions:
REMARK  status: ('A' for Active; 'I' for Inactive)
REMARK    1  A    between atoms: N1_1  and  C1_2 
REMARK    2  A    between atoms: C1_2  and  C2_3 
REMARK    3  A    between atoms: C2_3  and  C3_4 
REMARK    4  A    between atoms: C3_4  and  N2_5 
REMARK       I    between atoms: N2_5  and  C4_6 
REMARK    5  A    between atoms: C4_6  and  C5_8 
REMARK    6  A    between atoms: C9_12  and  C10_13 
ROOT
HETATM    1  C5  UNL     1      24.181  -0.402  53.746  1.00  0.00     0.032 A 
HETATM    2  C6  UNL     1      23.946  -1.045  54.944  1.00  0.00     0.017 A 
HETATM    3  C7  UNL     1      22.654  -1.388  55.359  1.00  0.00     0.002 A 
HETATM    4  C8  UNL     1      21.569  -1.097  54.586  1.00  0.00     0.015 A 
HETATM    5  C9  UNL     1      21.787  -0.454  53.385  1.00  0.00     0.013 A 
HETATM    6  C19 UNL     1      23.065  -0.122  52.988  1.00  0.00     0.032 A 
ENDROOT
BRANCH   5   7
HETATM    7  C10 UNL     1      20.656  -0.122  52.526  1.00  0.00     0.159 A 
HETATM    8  N3  UNL     1      20.818   0.724  51.493  1.00  0.00    -0.240 NA
HETATM    9  C11 UNL     1      19.774   1.050  50.675  1.00  0.00     0.128 A 
HETATM   10  C12 UNL     1      18.507   0.502  50.901  1.00  0.00    -0.012 A 
HETATM   11  C13 UNL     1      18.375  -0.362  51.967  1.00  0.00     0.049 A 
HETATM   12  C18 UNL     1      17.778   1.138  49.802  1.00  0.00     0.070 C 
HETATM   13  N4  UNL     1      19.445  -0.660  52.760  1.00  0.00    -0.232 NA
HETATM   14  C14 UNL     1      17.224  -1.104  52.489  1.00  0.00     0.106 C 
HETATM   15  C15 UNL     1      16.034  -0.290  52.777  1.00  0.00     0.095 C 
HETATM   16  N5  UNL     1      15.276   0.485  52.076  1.00  0.00    -0.277 NA
HETATM   17  C16 UNL     1      15.271   0.884  50.716  1.00  0.00     0.112 C 
HETATM   18  C17 UNL     1      16.317   1.116  49.906  1.00  0.00    -0.003 C 
ENDBRANCH   5   7
BRANCH   1  19
HETATM   19  C4  UNL     1      25.551  -0.082  53.388  1.00  0.00     0.251 C 
HETATM   20  N2  UNL     1      26.689  -0.788  53.860  1.00  0.00    -0.357 N 
HETATM   21  H9  UNL     1      26.450  -1.576  54.501  1.00  0.00     0.162 HD
HETATM   22  O1  UNL     1      25.710   0.888  52.607  1.00  0.00    -0.268 OA
BRANCH  20  23
HETATM   23  C3  UNL     1      28.064  -0.488  53.517  1.00  0.00     0.124 C 
BRANCH  23  24
HETATM   24  C2  UNL     1      28.651   0.392  54.613  1.00  0.00     0.049 C 
BRANCH  24  25
HETATM   25  C1  UNL     1      29.026   1.745  54.046  1.00  0.00     0.268 C 
BRANCH  25  26
HETATM   26  N1  UNL     1      27.868   2.593  53.976  1.00  0.00     0.078 N 
HETATM   27  H1  UNL     1      27.380   2.576  53.058  1.00  0.00     0.312 HD
HETATM   28  H2  UNL     1      28.061   3.554  54.307  1.00  0.00     0.312 HD
ENDBRANCH  25  26
ENDBRANCH  24  25
ENDBRANCH  23  24
ENDBRANCH  20  23
ENDBRANCH   1  19
TORSDOF 6
ENDMDL
MODEL 5
REMARK VINA RESULT:      -7.9      4.955      8.728
REMARK  6 active torsions:
REMARK  status: ('A' for Active; 'I' for Inactive)
REMARK    1  A    between atoms: N1_1  and  C1_2 
REMARK    2  A    between atoms: C1_2  and  C2_3 
REMARK    3  A    between atoms: C2_3  and  C3_4 
REMARK    4  A    between atoms: C3_4  and  N2_5 
REMARK       I    between atoms: N2_5  and  C4_6 
REMARK    5  A    between atoms: C4_6  and  C5_8 
REMARK    6  A    between atoms: C9_12  and  C10_13 
ROOT
HETATM    1  C5  UNL     1      24.861   1.682  51.898  1.00  0.00     0.032 A 
HETATM    2  C6  UNL     1      23.609   1.471  51.360  1.00  0.00     0.017 A 
HETATM    3  C7  UNL     1      23.127   2.226  50.285  1.00  0.00     0.002 A 
HETATM    4  C8  UNL     1      23.887   3.209  49.723  1.00  0.00     0.015 A 
HETATM    5  C9  UNL     1      25.142   3.434  50.249  1.00  0.00     0.013 A 
HETATM    6  C19 UNL     1      25.604   2.681  51.308  1.00  0.00     0.032 A 
ENDROOT
BRANCH   5   7
HETATM    7  C10 UNL     1      25.990   4.476  49.680  1.00  0.00     0.159 A 
HETATM    8  N3  UNL     1      27.141   4.148  49.065  1.00  0.00    -0.240 NA
HETATM    9  C11 UNL     1      27.951   5.106  48.525  1.00  0.00     0.128 A 
HETATM   10  C12 UNL     1      27.593   6.456  48.604  1.00  0.00    -0.012 A 
HETATM   11  C13 UNL     1      26.407   6.756  49.241  1.00  0.00     0.049 A 
HETATM   12  C18 UNL     1      28.739   7.044  47.910  1.00  0.00     0.070 C 
HETATM   13  N4  UNL     1      25.627   5.768  49.767  1.00  0.00    -0.232 NA
HETATM   14  C14 UNL     1      25.733   8.031  49.503  1.00  0.00     0.106 C 
HETATM   15  C15 UNL     1      26.556   9.045  50.180  1.00  0.00     0.095 C 
HETATM   16  N5  UNL     1      27.670   9.637  49.907  1.00  0.00    -0.277 NA
HETATM   17  C16 UNL     1      28.583   9.558  48.825  1.00  0.00     0.112 C 
HETATM   18  C17 UNL     1      28.936   8.482  48.102  1.00  0.00    -0.003 C 
ENDBRANCH   5   7
BRANCH   1  19
HETATM   19  C4  UNL     1      25.287   0.854  53.012  1.00  0.00     0.251 C 
HETATM   20  N2  UNL     1      26.480   1.060  53.753  1.00  0.00    -0.357 N 
HETATM   21  H9  UNL     1      27.039   1.876  53.419  1.00  0.00     0.162 HD
HETATM   22  O1  UNL     1      24.528  -0.098  53.320  1.00  0.00    -0.268 OA
BRANCH  20  23
HETATM   23  C3  UNL     1      26.926   0.250  54.868  1.00  0.00     0.124 C 
BRANCH  23  24
HETATM   24  C2  UNL     1      28.436   0.085  54.768  1.00  0.00     0.049 C 
BRANCH  24  25
HETATM   25  C1  UNL     1      29.013   1.139  53.846  1.00  0.00     0.268 C 
BRANCH  25  26
HETATM   26  N1  UNL     1      29.628   2.188  54.613  1.00  0.00     0.078 N 
HETATM   27  H1  UNL     1      29.094   2.467  55.461  1.00  0.00     0.312 HD
HETATM   28  H2  UNL     1      29.899   2.997  54.028  1.00  0.00     0.312 HD
ENDBRANCH  25  26
ENDBRANCH  24  25
ENDBRANCH  23  24
ENDBRANCH  20  23
ENDBRANCH   1  19
TORSDOF 6
ENDMDL
MODEL 6
REMARK VINA RESULT:      -7.8      6.484      8.695
REMARK  6 active torsions:
REMARK  status: ('A' for Active; 'I' for Inactive)
REMARK    1  A    between atoms: N1_1  and  C1_2 
REMARK    2  A    between atoms: C1_2  and  C2_3 
REMARK    3  A    between atoms: C2_3  and  C3_4 
REMARK    4  A    between atoms: C3_4  and  N2_5 
REMARK       I    between atoms: N2_5  and  C4_6 
REMARK    5  A    between atoms: C4_6  and  C5_8 
REMARK    6  A    between atoms: C9_12  and  C10_13 
ROOT
HETATM    1  C5  UNL     1      29.593   6.005  47.909  1.00  0.00     0.032 A 
HETATM    2  C6  UNL     1      29.108   7.203  47.428  1.00  0.00     0.017 A 
HETATM    3  C7  UNL     1      27.757   7.554  47.537  1.00  0.00     0.002 A 
HETATM    4  C8  UNL     1      26.861   6.714  48.129  1.00  0.00     0.015 A 
HETATM    5  C9  UNL     1      27.329   5.512  48.617  1.00  0.00     0.013 A 
HETATM    6  C19 UNL     1      28.663   5.179  48.503  1.00  0.00     0.032 A 
ENDROOT
BRANCH   5   7
HETATM    7  C10 UNL     1      26.407   4.582  49.259  1.00  0.00     0.159 A 
HETATM    8  N3  UNL     1      25.086   4.670  49.021  1.00  0.00    -0.240 NA
HETATM    9  C11 UNL     1      24.203   3.810  49.610  1.00  0.00     0.128 A 
HETATM   10  C12 UNL     1      24.663   2.815  50.479  1.00  0.00    -0.012 A 
HETATM   11  C13 UNL     1      26.023   2.753  50.700  1.00  0.00     0.049 A 
HETATM   12  C18 UNL     1      23.384   2.195  50.824  1.00  0.00     0.070 C 
HETATM   13  N4  UNL     1      26.870   3.632  50.091  1.00  0.00    -0.232 NA
HETATM   14  C14 UNL     1      26.839   1.862  51.529  1.00  0.00     0.106 C 
HETATM   15  C15 UNL     1      26.430   1.769  52.938  1.00  0.00     0.095 C 
HETATM   16  N5  UNL     1      25.346   1.417  53.544  1.00  0.00    -0.277 NA
HETATM   17  C16 UNL     1      24.077   0.965  53.103  1.00  0.00     0.112 C 
HETATM   18  C17 UNL     1      23.388   1.337  52.011  1.00  0.00    -0.003 C 
ENDBRANCH   5   7
BRANCH   1  19
HETATM   19  C4  UNL     1      31.008   5.717  47.757  1.00  0.00     0.251 C 
HETATM   20  N2  UNL     1      31.910   6.512  47.003  1.00  0.00    -0.357 N 
HETATM   21  H9  UNL     1      31.459   7.341  46.557  1.00  0.00     0.162 HD
HETATM   22  O1  UNL     1      31.433   4.692  48.344  1.00  0.00    -0.268 OA
BRANCH  20  23
HETATM   23  C3  UNL     1      33.325   6.247  46.837  1.00  0.00     0.124 C 
BRANCH  23  24
HETATM   24  C2  UNL     1      34.091   7.065  47.867  1.00  0.00     0.049 C 
BRANCH  24  25
HETATM   25  C1  UNL     1      35.076   6.181  48.604  1.00  0.00     0.268 C 
BRANCH  25  26
HETATM   26  N1  UNL     1      34.473   4.913  48.911  1.00  0.00     0.078 N 
HETATM   27  H1  UNL     1      35.094   4.257  49.425  1.00  0.00     0.312 HD
HETATM   28  H2  UNL     1      34.028   4.477  48.085  1.00  0.00     0.312 HD
ENDBRANCH  25  26
ENDBRANCH  24  25
ENDBRANCH  23  24
ENDBRANCH  20  23
ENDBRANCH   1  19
TORSDOF 6
ENDMDL
MODEL 7
REMARK VINA RESULT:      -7.6      5.576      7.759
REMARK  6 active torsions:
REMARK  status: ('A' for Active; 'I' for Inactive)
REMARK    1  A    between atoms: N1_1  and  C1_2 
REMARK    2  A    between atoms: C1_2  and  C2_3 
REMARK    3  A    between atoms: C2_3  and  C3_4 
REMARK    4  A    between atoms: C3_4  and  N2_5 
REMARK       I    between atoms: N2_5  and  C4_6 
REMARK    5  A    between atoms: C4_6  and  C5_8 
REMARK    6  A    between atoms: C9_12  and  C10_13 
ROOT
HETATM    1  C5  UNL     1      27.160   6.644  48.346  1.00  0.00     0.032 A 
HETATM    2  C6  UNL     1      26.000   7.186  47.834  1.00  0.00     0.017 A 
HETATM    3  C7  UNL     1      24.740   6.653  48.130  1.00  0.00     0.002 A 
HETATM    4  C8  UNL     1      24.612   5.567  48.944  1.00  0.00     0.015 A 
HETATM    5  C9  UNL     1      25.763   5.013  49.465  1.00  0.00     0.013 A 
HETATM    6  C19 UNL     1      26.998   5.549  49.166  1.00  0.00     0.032 A 
ENDROOT
BRANCH   5   7
HETATM    7  C10 UNL     1      25.675   3.850  50.341  1.00  0.00     0.159 A 
HETATM    8  N3  UNL     1      26.719   3.010  50.455  1.00  0.00    -0.240 NA
HETATM    9  C11 UNL     1      26.660   1.915  51.269  1.00  0.00     0.128 A 
HETATM   10  C12 UNL     1      25.500   1.647  52.004  1.00  0.00    -0.012 A 
HETATM   11  C13 UNL     1      24.449   2.528  51.864  1.00  0.00     0.049 A 
HETATM   12  C18 UNL     1      25.929   0.423  52.682  1.00  0.00     0.070 C 
HETATM   13  N4  UNL     1      24.550   3.611  51.039  1.00  0.00    -0.232 NA
HETATM   14  C14 UNL     1      23.113   2.561  52.466  1.00  0.00     0.106 C 
HETATM   15  C15 UNL     1      22.327   1.327  52.312  1.00  0.00     0.095 C 
HETATM   16  N5  UNL     1      22.502   0.094  52.652  1.00  0.00    -0.277 NA
HETATM   17  C16 UNL     1      23.537  -0.600  53.327  1.00  0.00     0.112 C 
HETATM   18  C17 UNL     1      24.863  -0.391  53.270  1.00  0.00    -0.003 C 
ENDBRANCH   5   7
BRANCH   1  19
HETATM   19  C4  UNL     1      28.428   7.257  47.991  1.00  0.00     0.251 C 
HETATM   20  N2  UNL     1      29.364   7.763  48.931  1.00  0.00    -0.357 N 
HETATM   21  H9  UNL     1      29.055   7.654  49.922  1.00  0.00     0.162 HD
HETATM   22  O1  UNL     1      28.687   7.329  46.765  1.00  0.00    -0.268 OA
BRANCH  20  23
HETATM   23  C3  UNL     1      30.634   8.378  48.603  1.00  0.00     0.124 C 
BRANCH  23  24
HETATM   24  C2  UNL     1      31.693   7.822  49.544  1.00  0.00     0.049 C 
BRANCH  24  25
HETATM   25  C1  UNL     1      31.787   6.318  49.389  1.00  0.00     0.268 C 
BRANCH  25  26
HETATM   26  N1  UNL     1      31.620   5.676  50.664  1.00  0.00     0.078 N 
HETATM   27  H1  UNL     1      32.511   5.450  51.150  1.00  0.00     0.312 HD
HETATM   28  H2  UNL     1      30.975   4.868  50.617  1.00  0.00     0.312 HD
ENDBRANCH  25  26
ENDBRANCH  24  25
ENDBRANCH  23  24
ENDBRANCH  20  23
ENDBRANCH   1  19
TORSDOF 6
ENDMDL
MODEL 8
REMARK VINA RESULT:      -7.5      2.801      4.620
REMARK  6 active torsions:
REMARK  status: ('A' for Active; 'I' for Inactive)
REMARK    1  A    between atoms: N1_1  and  C1_2 
REMARK    2  A    between atoms: C1_2  and  C2_3 
REMARK    3  A    between atoms: C2_3  and  C3_4 
REMARK    4  A    between atoms: C3_4  and  N2_5 
REMARK       I    between atoms: N2_5  and  C4_6 
REMARK    5  A    between atoms: C4_6  and  C5_8 
REMARK    6  A    between atoms: C9_12  and  C10_13 
ROOT
HETATM    1  C5  UNL     1      23.642  -0.327  53.969  1.00  0.00     0.032 A 
HETATM    2  C6  UNL     1      22.890  -1.201  54.727  1.00  0.00     0.017 A 
HETATM    3  C7  UNL     1      21.495  -1.111  54.796  1.00  0.00     0.002 A 
HETATM    4  C8  UNL     1      20.821  -0.146  54.109  1.00  0.00     0.015 A 
HETATM    5  C9  UNL     1      21.557   0.737  53.346  1.00  0.00     0.013 A 
HETATM    6  C19 UNL     1      22.931   0.637  53.287  1.00  0.00     0.032 A 
ENDROOT
BRANCH   5   7
HETATM    7  C10 UNL     1      20.877   1.786  52.595  1.00  0.00     0.159 A 
HETATM    8  N3  UNL     1      19.632   1.584  52.128  1.00  0.00    -0.240 NA
HETATM    9  C11 UNL     1      18.976   2.552  51.422  1.00  0.00     0.128 A 
HETATM   10  C12 UNL     1      19.595   3.781  51.170  1.00  0.00    -0.012 A 
HETATM   11  C13 UNL     1      20.871   3.955  51.663  1.00  0.00     0.049 A 
HETATM   12  C18 UNL     1      18.525   4.433  50.415  1.00  0.00     0.070 C 
HETATM   13  N4  UNL     1      21.491   2.961  52.364  1.00  0.00    -0.232 NA
HETATM   14  C14 UNL     1      21.801   5.085  51.592  1.00  0.00     0.106 C 
HETATM   15  C15 UNL     1      22.068   5.592  50.237  1.00  0.00     0.095 C 
HETATM   16  N5  UNL     1      21.334   6.075  49.292  1.00  0.00    -0.277 NA
HETATM   17  C16 UNL     1      19.945   6.326  49.157  1.00  0.00     0.112 C 
HETATM   18  C17 UNL     1      18.914   5.613  49.641  1.00  0.00    -0.003 C 
ENDBRANCH   5   7
BRANCH   1  19
HETATM   19  C4  UNL     1      25.085  -0.488  53.950  1.00  0.00     0.251 C 
HETATM   20  N2  UNL     1      25.905  -0.223  52.822  1.00  0.00    -0.357 N 
HETATM   21  H9  UNL     1      25.370   0.106  51.989  1.00  0.00     0.162 HD
HETATM   22  O1  UNL     1      25.614  -0.889  55.015  1.00  0.00    -0.268 OA
BRANCH  20  23
HETATM   23  C3  UNL     1      27.346  -0.375  52.778  1.00  0.00     0.124 C 
BRANCH  23  24
HETATM   24  C2  UNL     1      27.980   0.980  53.056  1.00  0.00     0.049 C 
BRANCH  24  25
HETATM   25  C1  UNL     1      29.047   0.845  54.123  1.00  0.00     0.268 C 
BRANCH  25  26
HETATM   26  N1  UNL     1      29.507   2.143  54.533  1.00  0.00     0.078 N 
HETATM   27  H1  UNL     1      30.540   2.225  54.616  1.00  0.00     0.312 HD
HETATM   28  H2  UNL     1      29.011   2.490  55.372  1.00  0.00     0.312 HD
ENDBRANCH  25  26
ENDBRANCH  24  25
ENDBRANCH  23  24
ENDBRANCH  20  23
ENDBRANCH   1  19
TORSDOF 6
ENDMDL
MODEL 9
REMARK VINA RESULT:      -7.5      3.552      4.982
REMARK  6 active torsions:
REMARK  status: ('A' for Active; 'I' for Inactive)
REMARK    1  A    between atoms: N1_1  and  C1_2 
REMARK    2  A    between atoms: C1_2  and  C2_3 
REMARK    3  A    between atoms: C2_3  and  C3_4 
REMARK    4  A    between atoms: C3_4  and  N2_5 
REMARK       I    between atoms: N2_5  and  C4_6 
REMARK    5  A    between atoms: C4_6  and  C5_8 
REMARK    6  A    between atoms: C9_12  and  C10_13 
ROOT
HETATM    1  C5  UNL     1      25.369   3.374  50.660  1.00  0.00     0.032 A 
HETATM    2  C6  UNL     1      26.594   2.787  50.896  1.00  0.00     0.017 A 
HETATM    3  C7  UNL     1      26.715   1.576  51.587  1.00  0.00     0.002 A 
HETATM    4  C8  UNL     1      25.614   0.925  52.058  1.00  0.00     0.015 A 
HETATM    5  C9  UNL     1      24.380   1.499  51.830  1.00  0.00     0.013 A 
HETATM    6  C19 UNL     1      24.275   2.693  51.148  1.00  0.00     0.032 A 
ENDROOT
BRANCH   5   7
HETATM    7  C10 UNL     1      23.173   0.838  52.316  1.00  0.00     0.159 A 
HETATM    8  N3  UNL     1      23.269  -0.264  53.082  1.00  0.00    -0.240 NA
HETATM    9  C11 UNL     1      22.154  -0.900  53.549  1.00  0.00     0.128 A 
HETATM   10  C12 UNL     1      20.882  -0.410  53.233  1.00  0.00    -0.012 A 
HETATM   11  C13 UNL     1      20.820   0.720  52.446  1.00  0.00     0.049 A 
HETATM   12  C18 UNL     1      20.068  -1.400  53.940  1.00  0.00     0.070 C 
HETATM   13  N4  UNL     1      21.960   1.325  52.001  1.00  0.00    -0.232 NA
HETATM   14  C14 UNL     1      19.686   1.492  51.931  1.00  0.00     0.106 C 
HETATM   15  C15 UNL     1      18.682   0.711  51.193  1.00  0.00     0.095 C 
HETATM   16  N5  UNL     1      17.926  -0.294  51.482  1.00  0.00    -0.277 NA
HETATM   17  C16 UNL     1      17.742  -1.081  52.646  1.00  0.00     0.112 C 
HETATM   18  C17 UNL     1      18.657  -1.462  53.554  1.00  0.00    -0.003 C 
ENDBRANCH   5   7
BRANCH   1  19
HETATM   19  C4  UNL     1      25.329   4.632  49.935  1.00  0.00     0.251 C 
HETATM   20  N2  UNL     1      26.291   5.667  50.073  1.00  0.00    -0.357 N 
HETATM   21  H9  UNL     1      27.046   5.441  50.756  1.00  0.00     0.162 HD
HETATM   22  O1  UNL     1      24.370   4.785  49.139  1.00  0.00    -0.268 OA
BRANCH  20  23
HETATM   23  C3  UNL     1      26.274   6.929  49.361  1.00  0.00     0.124 C 
BRANCH  23  24
HETATM   24  C2  UNL     1      27.120   6.782  48.104  1.00  0.00     0.049 C 
BRANCH  24  25
HETATM   25  C1  UNL     1      28.268   5.828  48.361  1.00  0.00     0.268 C 
BRANCH  25  26
HETATM   26  N1  UNL     1      29.414   6.548  48.846  1.00  0.00     0.078 N 
HETATM   27  H1  UNL     1      30.259   5.961  48.990  1.00  0.00     0.312 HD
HETATM   28  H2  UNL     1      29.191   7.136  49.667  1.00  0.00     0.312 HD
ENDBRANCH  25  26
ENDBRANCH  24  25
ENDBRANCH  23  24
ENDBRANCH  20  23
ENDBRANCH   1  19
TORSDOF 6
ENDMDL
