MODEL 1
REMARK VINA RESULT:      -8.9      0.000      0.000
REMARK  3 active torsions:
REMARK  status: ('A' for Active; 'I' for Inactive)
REMARK    1  A    between atoms: N1_9  and  C7_10 
REMARK    2  A    between atoms: C15_21  and  N4_22 
REMARK    3  A    between atoms: C22_30  and  O2_31 
ROOT
HETATM    1  C7  UNL     1      24.202   3.972  50.714  1.00  0.00     0.203 C 
HETATM    2  N2  UNL     1      24.832   3.263  51.844  1.00  0.00    -0.260 NA
HETATM    3  C8  UNL     1      25.064   1.983  51.763  1.00  0.00     0.272 C 
HETATM    4  N3  UNL     1      25.573   0.812  52.400  1.00  0.00    -0.270 NA
HETATM    5  C9  UNL     1      24.753   0.006  53.028  1.00  0.00     0.113 C 
HETATM    6  C10 UNL     1      23.330   0.314  53.041  1.00  0.00     0.024 C 
HETATM    7  C11 UNL     1      22.223   0.941  52.667  1.00  0.00    -0.054 C 
HETATM    8  C12 UNL     1      20.828   1.495  52.443  1.00  0.00     0.116 C 
HETATM    9  C13 UNL     1      21.087   3.007  52.331  1.00  0.00     0.155 C 
HETATM   10  O1  UNL     1      20.026   3.518  52.735  1.00  0.00    -0.295 OA
HETATM   11  C14 UNL     1      22.427   3.260  51.814  1.00  0.00     0.190 C 
HETATM   12  C15 UNL     1      22.896   4.524  51.254  1.00  0.00     0.307 C 
HETATM   13  N5  UNL     1      22.665   2.300  50.760  1.00  0.00    -0.367 N 
HETATM   14  C21 UNL     1      22.623   1.000  51.196  1.00  0.00     0.155 C 
HETATM   15  C22 UNL     1      23.648   2.795  49.889  1.00  0.00     0.270 C 
ENDROOT
BRANCH   1  16
HETATM   16  N1  UNL     1      25.076   4.767  49.992  1.00  0.00    -0.329 N 
HETATM   17  C2  UNL     1      25.168   6.138  49.546  1.00  0.00     0.162 A 
HETATM   18  C1  UNL     1      24.977   7.158  50.597  1.00  0.00     0.065 C 
HETATM   19 CL1  UNL     1      23.914   6.356  48.266  1.00  0.00    -0.088 Cl
HETATM   20  C3  UNL     1      26.442   6.427  48.835  1.00  0.00     0.137 A 
HETATM   21  F1  UNL     1      26.475   7.749  48.463  1.00  0.00    -0.207 F 
HETATM   22  C4  UNL     1      27.472   5.656  48.531  1.00  0.00     0.043 A 
HETATM   23  C5  UNL     1      27.292   4.268  48.998  1.00  0.00     0.020 A 
HETATM   24  C6  UNL     1      26.189   3.894  49.658  1.00  0.00     0.091 A 
ENDBRANCH   1  16
BRANCH  12  25
HETATM   25  N4  UNL     1      22.063   5.205  50.336  1.00  0.00     0.100 N 
HETATM   26  C16 UNL     1      21.564   6.455  50.978  1.00  0.00     0.273 C 
HETATM   27  C17 UNL     1      21.094   7.353  49.897  1.00  0.00     0.030 C 
HETATM   28  C18 UNL     1      20.488   6.739  48.692  1.00  0.00     0.003 C 
HETATM   29  C19 UNL     1      20.497   5.259  48.587  1.00  0.00     0.030 C 
HETATM   30  C20 UNL     1      20.822   4.601  49.942  1.00  0.00     0.273 C 
ENDBRANCH  12  25
BRANCH  15  31
HETATM   31  O2  UNL     1      23.180   3.130  48.668  1.00  0.00    -0.372 OA
HETATM   32  H27 UNL     1      22.210   3.302  48.601  1.00  0.00     0.212 HD
ENDBRANCH  15  31
TORSDOF 3
ENDMDL
MODEL 2
REMARK VINA RESULT:      -8.3      6.212     10.067
REMARK  3 active torsions:
REMARK  status: ('A' for Active; 'I' for Inactive)
REMARK    1  A    between atoms: N1_9  and  C7_10 
REMARK    2  A    between atoms: C15_21  and  N4_22 
REMARK    3  A    between atoms: C22_30  and  O2_31 
ROOT
HETATM    1  C7  UNL     1      30.544   7.164  47.652  1.00  0.00     0.203 C 
HETATM    2  N2  UNL     1      31.194   5.994  47.031  1.00  0.00    -0.260 NA
HETATM    3  C8  UNL     1      31.935   5.201  47.754  1.00  0.00     0.272 C 
HETATM    4  N3  UNL     1      32.762   4.037  47.797  1.00  0.00    -0.270 NA
HETATM    5  C9  UNL     1      34.061   4.162  47.693  1.00  0.00     0.113 C 
HETATM    6  C10 UNL     1      34.637   5.492  47.560  1.00  0.00     0.024 C 
HETATM    7  C11 UNL     1      34.643   6.817  47.586  1.00  0.00    -0.054 C 
HETATM    8  C12 UNL     1      34.924   8.308  47.529  1.00  0.00     0.116 C 
HETATM    9  C13 UNL     1      33.663   8.856  46.841  1.00  0.00     0.155 C 
HETATM   10  O1  UNL     1      34.067   9.880  46.258  1.00  0.00    -0.295 OA
HETATM   11  C14 UNL     1      32.514   8.002  47.120  1.00  0.00     0.190 C 
HETATM   12  C15 UNL     1      31.115   8.375  46.938  1.00  0.00     0.307 C 
HETATM   13  N5  UNL     1      32.598   7.618  48.511  1.00  0.00    -0.367 N 
HETATM   14  C21 UNL     1      33.732   6.906  48.806  1.00  0.00     0.155 C 
HETATM   15  C22 UNL     1      31.320   7.273  48.978  1.00  0.00     0.270 C 
ENDROOT
BRANCH   1  16
HETATM   16  N1  UNL     1      29.181   7.015  47.839  1.00  0.00    -0.329 N 
HETATM   17  C2  UNL     1      27.973   7.775  47.616  1.00  0.00     0.162 A 
HETATM   18  C1  UNL     1      27.810   8.314  46.250  1.00  0.00     0.065 C 
HETATM   19 CL1  UNL     1      27.986   9.138  48.800  1.00  0.00    -0.088 Cl
HETATM   20  C3  UNL     1      26.743   7.018  47.973  1.00  0.00     0.137 A 
HETATM   21  F1  UNL     1      25.634   7.786  47.712  1.00  0.00    -0.207 F 
HETATM   22  C4  UNL     1      26.573   5.804  48.468  1.00  0.00     0.043 A 
HETATM   23  C5  UNL     1      27.852   5.103  48.691  1.00  0.00     0.020 A 
HETATM   24  C6  UNL     1      29.022   5.682  48.397  1.00  0.00     0.091 A 
ENDBRANCH   1  16
BRANCH  12  25
HETATM   25  N4  UNL     1      30.691   9.644  47.396  1.00  0.00     0.100 N 
HETATM   26  C16 UNL     1      30.352  10.491  46.215  1.00  0.00     0.273 C 
HETATM   27  C17 UNL     1      29.502  11.605  46.698  1.00  0.00     0.030 C 
HETATM   28  C18 UNL     1      29.752  12.138  48.057  1.00  0.00     0.003 C 
HETATM   29  C19 UNL     1      30.758  11.446  48.900  1.00  0.00     0.030 C 
HETATM   30  C20 UNL     1      31.635  10.494  48.064  1.00  0.00     0.273 C 
ENDBRANCH  12  25
BRANCH  15  31
HETATM   31  O2  UNL     1      30.804   8.151  49.864  1.00  0.00    -0.372 OA
HETATM   32  H27 UNL     1      31.213   8.159  50.764  1.00  0.00     0.212 HD
ENDBRANCH  15  31
TORSDOF 3
ENDMDL
MODEL 3
REMARK VINA RESULT:      -8.2      2.410      4.846
REMARK  3 active torsions:
REMARK  status: ('A' for Active; 'I' for Inactive)
REMARK    1  A    between atoms: N1_9  and  C7_10 
REMARK    2  A    between atoms: C15_21  and  N4_22 
REMARK    3  A    between atoms: C22_30  and  O2_31 
ROOT
HETATM    1  C7  UNL     1      22.527   3.212  51.079  1.00  0.00     0.203 C 
HETATM    2  N2  UNL     1      22.633   1.742  51.147  1.00  0.00    -0.260 NA
HETATM    3  C8  UNL     1      22.834   1.156  52.294  1.00  0.00     0.272 C 
HETATM    4  N3  UNL     1      23.020  -0.072  52.999  1.00  0.00    -0.270 NA
HETATM    5  C9  UNL     1      24.233  -0.492  53.260  1.00  0.00     0.113 C 
HETATM    6  C10 UNL     1      25.368   0.319  52.843  1.00  0.00     0.024 C 
HETATM    7  C11 UNL     1      25.980   1.405  52.394  1.00  0.00    -0.054 C 
HETATM    8  C12 UNL     1      26.922   2.488  51.897  1.00  0.00     0.116 C 
HETATM    9  C13 UNL     1      26.145   3.081  50.710  1.00  0.00     0.155 C 
HETATM   10  O1  UNL     1      27.041   3.500  49.953  1.00  0.00    -0.295 OA
HETATM   11  C14 UNL     1      24.708   2.933  50.911  1.00  0.00     0.190 C 
HETATM   12  C15 UNL     1      23.670   3.663  50.191  1.00  0.00     0.307 C 
HETATM   13  N5  UNL     1      24.441   3.223  52.302  1.00  0.00    -0.367 N 
HETATM   14  C21 UNL     1      25.076   2.364  53.163  1.00  0.00     0.155 C 
HETATM   15  C22 UNL     1      23.104   3.621  52.447  1.00  0.00     0.270 C 
ENDROOT
BRANCH   1  16
HETATM   16  N1  UNL     1      21.236   3.673  50.882  1.00  0.00    -0.329 N 
HETATM   17  C2  UNL     1      20.545   4.607  50.023  1.00  0.00     0.162 A 
HETATM   18  C1  UNL     1      20.793   4.437  48.577  1.00  0.00     0.065 C 
HETATM   19 CL1  UNL     1      21.060   6.262  50.529  1.00  0.00    -0.088 Cl
HETATM   20  C3  UNL     1      19.075   4.616  50.251  1.00  0.00     0.137 A 
HETATM   21  F1  UNL     1      18.479   5.503  49.386  1.00  0.00    -0.207 F 
HETATM   22  C4  UNL     1      18.314   3.947  51.099  1.00  0.00     0.043 A 
HETATM   23  C5  UNL     1      19.095   3.035  51.956  1.00  0.00     0.020 A 
HETATM   24  C6  UNL     1      20.424   2.935  51.835  1.00  0.00     0.091 A 
ENDBRANCH   1  16
BRANCH  12  25
HETATM   25  N4  UNL     1      23.828   5.058  50.013  1.00  0.00     0.100 N 
HETATM   26  C16 UNL     1      24.024   5.336  48.560  1.00  0.00     0.273 C 
HETATM   27  C17 UNL     1      23.731   6.772  48.340  1.00  0.00     0.030 C 
HETATM   28  C18 UNL     1      24.067   7.728  49.421  1.00  0.00     0.003 C 
HETATM   29  C19 UNL     1      24.564   7.177  50.706  1.00  0.00     0.030 C 
HETATM   30  C20 UNL     1      24.988   5.703  50.560  1.00  0.00     0.273 C 
ENDBRANCH  12  25
BRANCH  15  31
HETATM   31  O2  UNL     1      22.950   4.925  52.759  1.00  0.00    -0.372 OA
HETATM   32  H27 UNL     1      23.767   5.480  52.742  1.00  0.00     0.212 HD
ENDBRANCH  15  31
TORSDOF 3
ENDMDL
MODEL 4
REMARK VINA RESULT:      -8.1      2.141      3.030
REMARK  3 active torsions:
REMARK  status: ('A' for Active; 'I' for Inactive)
REMARK    1  A    between atoms: N1_9  and  C7_10 
REMARK    2  A    between atoms: C15_21  and  N4_22 
REMARK    3  A    between atoms: C22_30  and  O2_31 
ROOT
HETATM    1  C7  UNL     1      23.465   2.890  51.958  1.00  0.00     0.203 C 
HETATM    2  N2  UNL     1      24.415   2.790  53.082  1.00  0.00    -0.260 NA
HETATM    3  C8  UNL     1      25.361   1.893  53.060  1.00  0.00     0.272 C 
HETATM    4  N3  UNL     1      26.479   1.309  53.728  1.00  0.00    -0.270 NA
HETATM    5  C9  UNL     1      26.310   0.232  54.455  1.00  0.00     0.113 C 
HETATM    6  C10 UNL     1      24.983  -0.360  54.545  1.00  0.00     0.024 C 
HETATM    7  C11 UNL     1      23.713  -0.543  54.211  1.00  0.00    -0.054 C 
HETATM    8  C12 UNL     1      22.258  -0.942  54.048  1.00  0.00     0.116 C 
HETATM    9  C13 UNL     1      21.566   0.414  53.832  1.00  0.00     0.155 C 
HETATM   10  O1  UNL     1      20.416   0.233  54.277  1.00  0.00    -0.295 OA
HETATM   11  C14 UNL     1      22.483   1.365  53.213  1.00  0.00     0.190 C 
HETATM   12  C15 UNL     1      22.098   2.607  52.551  1.00  0.00     0.307 C 
HETATM   13  N5  UNL     1      23.224   0.644  52.203  1.00  0.00    -0.367 N 
HETATM   14  C21 UNL     1      23.971  -0.386  52.715  1.00  0.00     0.155 C 
HETATM   15  C22 UNL     1      23.703   1.547  51.242  1.00  0.00     0.270 C 
ENDROOT
BRANCH   1  16
HETATM   16  N1  UNL     1      23.682   3.982  51.135  1.00  0.00    -0.329 N 
HETATM   17  C2  UNL     1      23.902   4.248  49.732  1.00  0.00     0.162 A 
HETATM   18  C1  UNL     1      22.912   3.648  48.814  1.00  0.00     0.065 C 
HETATM   19 CL1  UNL     1      25.546   3.621  49.333  1.00  0.00    -0.088 Cl
HETATM   20  C3  UNL     1      24.002   5.701  49.432  1.00  0.00     0.137 A 
HETATM   21  F1  UNL     1      24.183   5.883  48.082  1.00  0.00    -0.207 F 
HETATM   22  C4  UNL     1      23.947   6.765  50.215  1.00  0.00     0.043 A 
HETATM   23  C5  UNL     1      23.746   6.410  51.632  1.00  0.00     0.020 A 
HETATM   24  C6  UNL     1      23.632   5.133  52.020  1.00  0.00     0.091 A 
ENDBRANCH   1  16
BRANCH  12  25
HETATM   25  N4  UNL     1      21.005   2.582  51.653  1.00  0.00     0.100 N 
HETATM   26  C16 UNL     1      20.365   3.930  51.640  1.00  0.00     0.273 C 
HETATM   27  C17 UNL     1      19.552   4.022  50.404  1.00  0.00     0.030 C 
HETATM   28  C18 UNL     1      18.903   2.789  49.899  1.00  0.00     0.003 C 
HETATM   29  C19 UNL     1      19.204   1.513  50.592  1.00  0.00     0.030 C 
HETATM   30  C20 UNL     1      19.871   1.758  51.960  1.00  0.00     0.273 C 
ENDBRANCH  12  25
BRANCH  15  31
HETATM   31  O2  UNL     1      23.104   1.435  50.037  1.00  0.00    -0.372 OA
HETATM   32  H27 UNL     1      23.697   1.458  49.247  1.00  0.00     0.212 HD
ENDBRANCH  15  31
TORSDOF 3
ENDMDL
MODEL 5
REMARK VINA RESULT:      -8.0      2.802      4.576
REMARK  3 active torsions:
REMARK  status: ('A' for Active; 'I' for Inactive)
REMARK    1  A    between atoms: N1_9  and  C7_10 
REMARK    2  A    between atoms: C15_21  and  N4_22 
REMARK    3  A    between atoms: C22_30  and  O2_31 
ROOT
HETATM    1  C7  UNL     1      21.803   1.513  52.383  1.00  0.00     0.203 C 
HETATM    2  N2  UNL     1      20.906   0.880  53.369  1.00  0.00    -0.260 NA
HETATM    3  C8  UNL     1      20.317  -0.248  53.084  1.00  0.00     0.272 C 
HETATM    4  N3  UNL     1      19.430  -1.281  53.513  1.00  0.00    -0.270 NA
HETATM    5  C9  UNL     1      18.168  -1.235  53.168  1.00  0.00     0.113 C 
HETATM    6  C10 UNL     1      17.701  -0.138  52.333  1.00  0.00     0.024 C 
HETATM    7  C11 UNL     1      17.823   0.911  51.532  1.00  0.00    -0.054 C 
HETATM    8  C12 UNL     1      17.674   2.119  50.624  1.00  0.00     0.116 C 
HETATM    9  C13 UNL     1      18.749   3.075  51.166  1.00  0.00     0.155 C 
HETATM   10  O1  UNL     1      18.298   4.206  50.900  1.00  0.00    -0.295 OA
HETATM   11  C14 UNL     1      19.847   2.326  51.765  1.00  0.00     0.190 C 
HETATM   12  C15 UNL     1      21.175   2.856  52.062  1.00  0.00     0.307 C 
HETATM   13  N5  UNL     1      20.106   1.192  50.907  1.00  0.00    -0.367 N 
HETATM   14  C21 UNL     1      19.033   0.345  50.795  1.00  0.00     0.155 C 
HETATM   15  C22 UNL     1      21.425   0.753  51.098  1.00  0.00     0.270 C 
ENDROOT
BRANCH   1  16
HETATM   16  N1  UNL     1      23.147   1.403  52.695  1.00  0.00    -0.329 N 
HETATM   17  C2  UNL     1      24.320   2.247  52.720  1.00  0.00     0.162 A 
HETATM   18  C1  UNL     1      24.167   3.517  53.458  1.00  0.00     0.065 C 
HETATM   19 CL1  UNL     1      24.748   2.599  51.002  1.00  0.00    -0.088 Cl
HETATM   20  C3  UNL     1      25.523   1.542  53.240  1.00  0.00     0.137 A 
HETATM   21  F1  UNL     1      26.591   2.406  53.262  1.00  0.00    -0.207 F 
HETATM   22  C4  UNL     1      25.702   0.300  53.652  1.00  0.00     0.043 A 
HETATM   23  C5  UNL     1      24.467  -0.503  53.573  1.00  0.00     0.020 A 
HETATM   24  C6  UNL     1      23.320   0.028  53.130  1.00  0.00     0.091 A 
ENDBRANCH   1  16
BRANCH  12  25
HETATM   25  N4  UNL     1      21.820   3.644  51.080  1.00  0.00     0.100 N 
HETATM   26  C16 UNL     1      21.893   5.052  51.570  1.00  0.00     0.273 C 
HETATM   27  C17 UNL     1      22.939   5.743  50.778  1.00  0.00     0.030 C 
HETATM   28  C18 UNL     1      23.123   5.344  49.363  1.00  0.00     0.003 C 
HETATM   29  C19 UNL     1      22.332   4.196  48.856  1.00  0.00     0.030 C 
HETATM   30  C20 UNL     1      21.177   3.842  49.813  1.00  0.00     0.273 C 
ENDBRANCH  12  25
BRANCH  15  31
HETATM   31  O2  UNL     1      22.238   0.983  50.045  1.00  0.00    -0.372 OA
HETATM   32  H27 UNL     1      22.389   0.222  49.433  1.00  0.00     0.212 HD
ENDBRANCH  15  31
TORSDOF 3
ENDMDL
MODEL 6
REMARK VINA RESULT:      -7.6      2.940      5.537
REMARK  3 active torsions:
REMARK  status: ('A' for Active; 'I' for Inactive)
REMARK    1  A    between atoms: N1_9  and  C7_10 
REMARK    2  A    between atoms: C15_21  and  N4_22 
REMARK    3  A    between atoms: C22_30  and  O2_31 
ROOT
HETATM    1  C7  UNL     1      23.276   2.633  50.764  1.00  0.00     0.203 C 
HETATM    2  N2  UNL     1      24.571   2.512  50.066  1.00  0.00    -0.260 NA
HETATM    3  C8  UNL     1      25.563   3.293  50.394  1.00  0.00     0.272 C 
HETATM    4  N3  UNL     1      26.917   3.676  50.159  1.00  0.00    -0.270 NA
HETATM    5  C9  UNL     1      27.177   4.690  49.371  1.00  0.00     0.113 C 
HETATM    6  C10 UNL     1      26.070   5.420  48.769  1.00  0.00     0.024 C 
HETATM    7  C11 UNL     1      24.806   5.780  48.601  1.00  0.00    -0.054 C 
HETATM    8  C12 UNL     1      23.462   6.357  48.195  1.00  0.00     0.116 C 
HETATM    9  C13 UNL     1      22.553   5.117  48.204  1.00  0.00     0.155 C 
HETATM   10  O1  UNL     1      21.679   5.387  47.358  1.00  0.00    -0.295 OA
HETATM   11  C14 UNL     1      23.040   4.132  49.163  1.00  0.00     0.190 C 
HETATM   12  C15 UNL     1      22.269   3.012  49.694  1.00  0.00     0.307 C 
HETATM   13  N5  UNL     1      23.463   4.857  50.340  1.00  0.00    -0.367 N 
HETATM   14  C21 UNL     1      24.483   5.739  50.092  1.00  0.00     0.155 C 
HETATM   15  C22 UNL     1      23.429   4.002  51.452  1.00  0.00     0.270 C 
ENDROOT
BRANCH   1  16
HETATM   16  N1  UNL     1      23.024   1.607  51.659  1.00  0.00    -0.329 N 
HETATM   17  C2  UNL     1      21.928   0.739  52.022  1.00  0.00     0.162 A 
HETATM   18  C1  UNL     1      21.290   0.024  50.897  1.00  0.00     0.065 C 
HETATM   19 CL1  UNL     1      20.699   1.767  52.852  1.00  0.00    -0.088 Cl
HETATM   20  C3  UNL     1      22.305  -0.258  53.060  1.00  0.00     0.137 A 
HETATM   21  F1  UNL     1      21.228  -1.066  53.337  1.00  0.00    -0.207 F 
HETATM   22  C4  UNL     1      23.438  -0.466  53.707  1.00  0.00     0.043 A 
HETATM   23  C5  UNL     1      24.498   0.475  53.299  1.00  0.00     0.020 A 
HETATM   24  C6  UNL     1      24.278   1.409  52.366  1.00  0.00     0.091 A 
ENDBRANCH   1  16
BRANCH  12  25
HETATM   25  N4  UNL     1      20.942   3.250  50.122  1.00  0.00     0.100 N 
HETATM   26  C16 UNL     1      20.007   2.551  49.193  1.00  0.00     0.273 C 
HETATM   27  C17 UNL     1      18.704   2.423  49.889  1.00  0.00     0.030 C 
HETATM   28  C18 UNL     1      18.299   3.502  50.820  1.00  0.00     0.003 C 
HETATM   29  C19 UNL     1      19.273   4.587  51.092  1.00  0.00     0.030 C 
HETATM   30  C20 UNL     1      20.420   4.585  50.063  1.00  0.00     0.273 C 
ENDBRANCH  12  25
BRANCH  15  31
HETATM   31  O2  UNL     1      22.460   4.298  52.343  1.00  0.00    -0.372 OA
HETATM   32  H27 UNL     1      21.528   4.174  52.037  1.00  0.00     0.212 HD
ENDBRANCH  15  31
TORSDOF 3
ENDMDL
MODEL 7
REMARK VINA RESULT:      -7.6      2.721      5.513
REMARK  3 active torsions:
REMARK  status: ('A' for Active; 'I' for Inactive)
REMARK    1  A    between atoms: N1_9  and  C7_10 
REMARK    2  A    between atoms: C15_21  and  N4_22 
REMARK    3  A    between atoms: C22_30  and  O2_31 
ROOT
HETATM    1  C7  UNL     1      23.586   2.668  50.806  1.00  0.00     0.203 C 
HETATM    2  N2  UNL     1      24.752   2.943  49.946  1.00  0.00    -0.260 NA
HETATM    3  C8  UNL     1      25.447   4.032  50.118  1.00  0.00     0.272 C 
HETATM    4  N3  UNL     1      26.551   4.832  49.695  1.00  0.00    -0.270 NA
HETATM    5  C9  UNL     1      26.353   5.817  48.854  1.00  0.00     0.113 C 
HETATM    6  C10 UNL     1      25.001   6.087  48.386  1.00  0.00     0.024 C 
HETATM    7  C11 UNL     1      23.679   5.988  48.379  1.00  0.00    -0.054 C 
HETATM    8  C12 UNL     1      22.181   6.049  48.141  1.00  0.00     0.116 C 
HETATM    9  C13 UNL     1      21.760   4.579  48.303  1.00  0.00     0.155 C 
HETATM   10  O1  UNL     1      20.755   4.478  47.575  1.00  0.00    -0.295 OA
HETATM   11  C14 UNL     1      22.664   3.884  49.214  1.00  0.00     0.190 C 
HETATM   12  C15 UNL     1      22.392   2.610  49.871  1.00  0.00     0.307 C 
HETATM   13  N5  UNL     1      22.947   4.789  50.305  1.00  0.00    -0.367 N 
HETATM   14  C21 UNL     1      23.566   5.944  49.900  1.00  0.00     0.155 C 
HETATM   15  C22 UNL     1      23.339   4.052  51.433  1.00  0.00     0.270 C 
ENDROOT
BRANCH   1  16
HETATM   16  N1  UNL     1      23.807   1.682  51.753  1.00  0.00    -0.329 N 
HETATM   17  C2  UNL     1      24.845   1.289  52.677  1.00  0.00     0.162 A 
HETATM   18  C1  UNL     1      25.345   2.364  53.559  1.00  0.00     0.065 C 
HETATM   19 CL1  UNL     1      26.210   0.644  51.687  1.00  0.00    -0.088 Cl
HETATM   20  C3  UNL     1      24.452   0.130  53.523  1.00  0.00     0.137 A 
HETATM   21  F1  UNL     1      25.471  -0.173  54.395  1.00  0.00    -0.207 F 
HETATM   22  C4  UNL     1      23.350  -0.597  53.558  1.00  0.00     0.043 A 
HETATM   23  C5  UNL     1      22.350  -0.150  52.570  1.00  0.00     0.020 A 
HETATM   24  C6  UNL     1      22.589   0.890  51.761  1.00  0.00     0.091 A 
ENDBRANCH   1  16
BRANCH  12  25
HETATM   25  N4  UNL     1      21.124   2.416  50.466  1.00  0.00     0.100 N 
HETATM   26  C16 UNL     1      20.342   1.461  49.627  1.00  0.00     0.273 C 
HETATM   27  C17 UNL     1      19.245   0.926  50.468  1.00  0.00     0.030 C 
HETATM   28  C18 UNL     1      18.646   1.819  51.488  1.00  0.00     0.003 C 
HETATM   29  C19 UNL     1      19.260   3.155  51.688  1.00  0.00     0.030 C 
HETATM   30  C20 UNL     1      20.208   3.518  50.528  1.00  0.00     0.273 C 
ENDBRANCH  12  25
BRANCH  15  31
HETATM   31  O2  UNL     1      22.437   4.066  52.437  1.00  0.00    -0.372 OA
HETATM   32  H27 UNL     1      21.494   4.213  52.180  1.00  0.00     0.212 HD
ENDBRANCH  15  31
TORSDOF 3
ENDMDL
MODEL 8
REMARK VINA RESULT:      -7.5      1.716      2.277
REMARK  3 active torsions:
REMARK  status: ('A' for Active; 'I' for Inactive)
REMARK    1  A    between atoms: N1_9  and  C7_10 
REMARK    2  A    between atoms: C15_21  and  N4_22 
REMARK    3  A    between atoms: C22_30  and  O2_31 
ROOT
HETATM    1  C7  UNL     1      22.600   3.359  51.157  1.00  0.00     0.203 C 
HETATM    2  N2  UNL     1      22.991   2.801  52.466  1.00  0.00    -0.260 NA
HETATM    3  C8  UNL     1      23.497   1.602  52.538  1.00  0.00     0.272 C 
HETATM    4  N3  UNL     1      24.021   0.567  53.371  1.00  0.00    -0.270 NA
HETATM    5  C9  UNL     1      23.235  -0.397  53.778  1.00  0.00     0.113 C 
HETATM    6  C10 UNL     1      21.843  -0.405  53.351  1.00  0.00     0.024 C 
HETATM    7  C11 UNL     1      20.796  -0.032  52.629  1.00  0.00    -0.054 C 
HETATM    8  C12 UNL     1      19.451   0.207  51.969  1.00  0.00     0.116 C 
HETATM    9  C13 UNL     1      19.413   1.739  51.842  1.00  0.00     0.155 C 
HETATM   10  O1  UNL     1      18.197   2.008  51.882  1.00  0.00    -0.295 OA
HETATM   11  C14 UNL     1      20.763   2.278  51.728  1.00  0.00     0.190 C 
HETATM   12  C15 UNL     1      21.107   3.614  51.252  1.00  0.00     0.307 C 
HETATM   13  N5  UNL     1      21.502   1.393  50.855  1.00  0.00    -0.367 N 
HETATM   14  C21 UNL     1      21.600   0.115  51.341  1.00  0.00     0.155 C 
HETATM   15  C22 UNL     1      22.576   2.092  50.283  1.00  0.00     0.270 C 
ENDROOT
BRANCH   1  16
HETATM   16  N1  UNL     1      23.466   4.326  50.677  1.00  0.00    -0.329 N 
HETATM   17  C2  UNL     1      24.216   4.599  49.472  1.00  0.00     0.162 A 
HETATM   18  C1  UNL     1      23.433   4.561  48.220  1.00  0.00     0.065 C 
HETATM   19 CL1  UNL     1      25.538   3.373  49.390  1.00  0.00    -0.088 Cl
HETATM   20  C3  UNL     1      24.946   5.893  49.532  1.00  0.00     0.137 A 
HETATM   21  F1  UNL     1      25.613   6.103  48.349  1.00  0.00    -0.207 F 
HETATM   22  C4  UNL     1      25.042   6.804  50.484  1.00  0.00     0.043 A 
HETATM   23  C5  UNL     1      24.270   6.442  51.688  1.00  0.00     0.020 A 
HETATM   24  C6  UNL     1      23.566   5.305  51.746  1.00  0.00     0.091 A 
ENDBRANCH   1  16
BRANCH  12  25
HETATM   25  N4  UNL     1      20.467   4.100  50.088  1.00  0.00     0.100 N 
HETATM   26  C16 UNL     1      20.348   5.584  50.191  1.00  0.00     0.273 C 
HETATM   27  C17 UNL     1      20.112   6.106  48.823  1.00  0.00     0.030 C 
HETATM   28  C18 UNL     1      19.329   5.272  47.881  1.00  0.00     0.003 C 
HETATM   29  C19 UNL     1      18.929   3.914  48.324  1.00  0.00     0.030 C 
HETATM   30  C20 UNL     1      19.099   3.744  49.846  1.00  0.00     0.273 C 
ENDBRANCH  12  25
BRANCH  15  31
HETATM   31  O2  UNL     1      22.440   2.320  48.960  1.00  0.00    -0.372 OA
HETATM   32  H27 UNL     1      22.476   3.264  48.670  1.00  0.00     0.212 HD
ENDBRANCH  15  31
TORSDOF 3
ENDMDL
MODEL 9
REMARK VINA RESULT:      -7.4      2.655      5.617
REMARK  3 active torsions:
REMARK  status: ('A' for Active; 'I' for Inactive)
REMARK    1  A    between atoms: N1_9  and  C7_10 
REMARK    2  A    between atoms: C15_21  and  N4_22 
REMARK    3  A    between atoms: C22_30  and  O2_31 
ROOT
HETATM    1  C7  UNL     1      23.948   4.808  49.773  1.00  0.00     0.203 C 
HETATM    2  N2  UNL     1      25.120   4.232  49.087  1.00  0.00    -0.260 NA
HETATM    3  C8  UNL     1      26.323   4.558  49.469  1.00  0.00     0.272 C 
HETATM    4  N3  UNL     1      27.729   4.402  49.272  1.00  0.00    -0.270 NA
HETATM    5  C9  UNL     1      28.381   5.273  48.543  1.00  0.00     0.113 C 
HETATM    6  C10 UNL     1      27.658   6.397  47.966  1.00  0.00     0.024 C 
HETATM    7  C11 UNL     1      26.633   7.222  47.801  1.00  0.00    -0.054 C 
HETATM    8  C12 UNL     1      25.626   8.288  47.409  1.00  0.00     0.116 C 
HETATM    9  C13 UNL     1      24.311   7.492  47.341  1.00  0.00     0.155 C 
HETATM   10  O1  UNL     1      23.635   8.112  46.500  1.00  0.00    -0.295 OA
HETATM   11  C14 UNL     1      24.354   6.353  48.252  1.00  0.00     0.190 C 
HETATM   12  C15 UNL     1      23.197   5.592  48.713  1.00  0.00     0.307 C 
HETATM   13  N5  UNL     1      24.984   6.807  49.471  1.00  0.00    -0.367 N 
HETATM   14  C21 UNL     1      26.271   7.242  49.283  1.00  0.00     0.155 C 
HETATM   15  C22 UNL     1      24.590   5.982  50.536  1.00  0.00     0.270 C 
ENDROOT
BRANCH   1  16
HETATM   16  N1  UNL     1      23.294   3.919  50.609  1.00  0.00    -0.329 N 
HETATM   17  C2  UNL     1      21.953   3.424  50.819  1.00  0.00     0.162 A 
HETATM   18  C1  UNL     1      21.272   2.916  49.610  1.00  0.00     0.065 C 
HETATM   19 CL1  UNL     1      20.996   4.786  51.518  1.00  0.00    -0.088 Cl
HETATM   20  C3  UNL     1      21.886   2.376  51.873  1.00  0.00     0.137 A 
HETATM   21  F1  UNL     1      20.592   1.932  52.001  1.00  0.00    -0.207 F 
HETATM   22  C4  UNL     1      22.818   1.849  52.646  1.00  0.00     0.043 A 
HETATM   23  C5  UNL     1      24.153   2.423  52.390  1.00  0.00     0.020 A 
HETATM   24  C6  UNL     1      24.336   3.366  51.458  1.00  0.00     0.091 A 
ENDBRANCH   1  16
BRANCH  12  25
HETATM   25  N4  UNL     1      22.049   6.301  49.136  1.00  0.00     0.100 N 
HETATM   26  C16 UNL     1      20.963   6.097  48.133  1.00  0.00     0.273 C 
HETATM   27  C17 UNL     1      19.680   6.441  48.791  1.00  0.00     0.030 C 
HETATM   28  C18 UNL     1      19.682   7.522  49.805  1.00  0.00     0.003 C 
HETATM   29  C19 UNL     1      20.988   8.112  50.189  1.00  0.00     0.030 C 
HETATM   30  C20 UNL     1      22.094   7.734  49.184  1.00  0.00     0.273 C 
ENDBRANCH  12  25
BRANCH  15  31
HETATM   31  O2  UNL     1      23.779   6.588  51.429  1.00  0.00    -0.372 OA
HETATM   32  H27 UNL     1      22.918   6.927  51.082  1.00  0.00     0.212 HD
ENDBRANCH  15  31
TORSDOF 3
ENDMDL
