MODEL 1
REMARK VINA RESULT:      -8.0      0.000      0.000
REMARK  3 active torsions:
REMARK  status: ('A' for Active; 'I' for Inactive)
REMARK    1  A    between atoms: C8_10  and  O2_11 
REMARK    2  A    between atoms: O2_11  and  C9_12 
REMARK    3  A    between atoms: C17_22  and  S1_23 
ROOT
HETATM    1  C1  UNL     1      26.075   5.683  48.667  1.00  0.00     0.019 C 
HETATM    2  C2  UNL     1      25.659   5.547  50.094  1.00  0.00     0.061 C 
HETATM    3  C3  UNL     1      24.580   6.620  50.425  1.00  0.00     0.043 C 
HETATM    4 CL1  UNL     1      23.777   8.129  50.692  1.00  0.00    -0.086 Cl
HETATM    5  C4  UNL     1      23.390   6.019  50.738  1.00  0.00     0.053 C 
HETATM    6  C5  UNL     1      23.114   5.348  49.419  1.00  0.00     0.227 C 
HETATM    7  O1  UNL     1      23.854   4.201  49.655  1.00  0.00    -0.375 OA
HETATM    8  C6  UNL     1      24.955   4.390  50.505  1.00  0.00     0.156 C 
HETATM    9  C7  UNL     1      25.257   3.020  50.790  1.00  0.00     0.042 C 
HETATM   10  C8  UNL     1      24.809   2.299  51.832  1.00  0.00     0.069 C 
HETATM   11  C14 UNL     1      24.133   1.881  53.049  1.00  0.00     0.050 C 
HETATM   12  C15 UNL     1      22.910   1.370  52.981  1.00  0.00    -0.004 C 
HETATM   13  C16 UNL     1      22.063   2.129  52.297  1.00  0.00     0.132 C 
HETATM   14  N2  UNL     1      22.548   3.440  52.301  1.00  0.00    -0.236 NA
HETATM   15  C17 UNL     1      21.874   4.395  51.766  1.00  0.00     0.163 C 
HETATM   16  N3  UNL     1      22.372   5.763  51.750  1.00  0.00    -0.336 N 
HETATM   17  H22 UNL     1      22.084   6.558  52.370  1.00  0.00     0.168 HD
ENDROOT
BRANCH  10  18
HETATM   18  O2  UNL     1      25.323   0.981  51.771  1.00  0.00    -0.346 OA
BRANCH  18  19
HETATM   19  C9  UNL     1      26.587   0.561  52.083  1.00  0.00     0.132 C 
HETATM   20  C10 UNL     1      26.638  -0.909  52.531  1.00  0.00     0.062 C 
HETATM   21  C11 UNL     1      28.040  -1.207  53.016  1.00  0.00     0.272 C 
HETATM   22  N1  UNL     1      28.311  -0.589  54.298  1.00  0.00     0.083 N 
HETATM   23  C12 UNL     1      27.361   0.497  54.440  1.00  0.00     0.272 C 
HETATM   24  H14 UNL     1      29.262  -0.168  54.351  1.00  0.00     0.315 HD
HETATM   25  C13 UNL     1      27.290   1.326  53.171  1.00  0.00     0.062 C 
ENDBRANCH  18  19
ENDBRANCH  10  18
BRANCH  15  26
HETATM   26  S1  UNL     1      20.280   4.146  50.979  1.00  0.00    -0.105 SA
HETATM   27  H21 UNL     1      20.375   4.513  49.606  1.00  0.00     0.110 HD
ENDBRANCH  15  26
TORSDOF 3
ENDMDL
MODEL 2
REMARK VINA RESULT:      -8.0      3.302      6.565
REMARK  3 active torsions:
REMARK  status: ('A' for Active; 'I' for Inactive)
REMARK    1  A    between atoms: C8_10  and  O2_11 
REMARK    2  A    between atoms: O2_11  and  C9_12 
REMARK    3  A    between atoms: C17_22  and  S1_23 
ROOT
HETATM    1  C1  UNL     1      28.976   2.494  53.801  1.00  0.00     0.019 C 
HETATM    2  C2  UNL     1      28.134   1.638  52.915  1.00  0.00     0.061 C 
HETATM    3  C3  UNL     1      28.325   0.142  53.305  1.00  0.00     0.043 C 
HETATM    4 CL1  UNL     1      29.017  -1.419  53.581  1.00  0.00    -0.086 Cl
HETATM    5  C4  UNL     1      27.149  -0.381  53.773  1.00  0.00     0.053 C 
HETATM    6  C5  UNL     1      26.974   0.488  54.989  1.00  0.00     0.227 C 
HETATM    7  O1  UNL     1      26.349   1.547  54.352  1.00  0.00    -0.375 OA
HETATM    8  C6  UNL     1      26.725   1.715  53.010  1.00  0.00     0.156 C 
HETATM    9  C7  UNL     1      25.689   2.613  52.597  1.00  0.00     0.042 C 
HETATM   10  C8  UNL     1      24.515   2.281  52.036  1.00  0.00     0.069 C 
HETATM   11  C14 UNL     1      23.401   1.536  51.473  1.00  0.00     0.050 C 
HETATM   12  C15 UNL     1      22.421   1.117  52.265  1.00  0.00    -0.004 C 
HETATM   13  C16 UNL     1      22.855   0.445  53.323  1.00  0.00     0.132 C 
HETATM   14  N2  UNL     1      24.124  -0.063  53.030  1.00  0.00    -0.236 NA
HETATM   15  C17 UNL     1      24.742  -0.819  53.865  1.00  0.00     0.163 C 
HETATM   16  N3  UNL     1      26.070  -1.344  53.580  1.00  0.00    -0.336 N 
HETATM   17  H22 UNL     1      26.324  -2.310  53.262  1.00  0.00     0.168 HD
ENDROOT
BRANCH  10  18
HETATM   18  O2  UNL     1      23.753   3.445  51.771  1.00  0.00    -0.346 OA
BRANCH  18  19
HETATM   19  C9  UNL     1      24.176   4.606  51.183  1.00  0.00     0.132 C 
HETATM   20  C10 UNL     1      23.189   5.769  51.371  1.00  0.00     0.062 C 
HETATM   21  C11 UNL     1      23.668   6.937  50.537  1.00  0.00     0.272 C 
HETATM   22  N1  UNL     1      23.457   6.711  49.121  1.00  0.00     0.083 N 
HETATM   23  C12 UNL     1      23.335   5.277  48.946  1.00  0.00     0.272 C 
HETATM   24  H14 UNL     1      24.263   7.021  48.538  1.00  0.00     0.315 HD
HETATM   25  C13 UNL     1      24.429   4.543  49.701  1.00  0.00     0.062 C 
ENDBRANCH  18  19
ENDBRANCH  10  18
BRANCH  15  26
HETATM   26  S1  UNL     1      24.053  -1.290  55.455  1.00  0.00    -0.105 SA
HETATM   27  H21 UNL     1      24.539  -2.582  55.809  1.00  0.00     0.110 HD
ENDBRANCH  15  26
TORSDOF 3
ENDMDL
MODEL 3
REMARK VINA RESULT:      -7.9      1.899      2.378
REMARK  3 active torsions:
REMARK  status: ('A' for Active; 'I' for Inactive)
REMARK    1  A    between atoms: C8_10  and  O2_11 
REMARK    2  A    between atoms: O2_11  and  C9_12 
REMARK    3  A    between atoms: C17_22  and  S1_23 
ROOT
HETATM    1  C1  UNL     1      24.552   4.114  49.370  1.00  0.00     0.019 C 
HETATM    2  C2  UNL     1      24.155   3.894  50.792  1.00  0.00     0.061 C 
HETATM    3  C3  UNL     1      22.735   4.488  51.032  1.00  0.00     0.043 C 
HETATM    4 CL1  UNL     1      21.408   5.586  51.189  1.00  0.00    -0.086 Cl
HETATM    5  C4  UNL     1      21.850   3.493  51.351  1.00  0.00     0.053 C 
HETATM    6  C5  UNL     1      21.910   2.708  50.068  1.00  0.00     0.227 C 
HETATM    7  O1  UNL     1      23.019   1.943  50.390  1.00  0.00    -0.375 OA
HETATM    8  C6  UNL     1      23.926   2.577  51.253  1.00  0.00     0.156 C 
HETATM    9  C7  UNL     1      24.712   1.440  51.627  1.00  0.00     0.042 C 
HETATM   10  C8  UNL     1      24.525   0.651  52.698  1.00  0.00     0.069 C 
HETATM   11  C14 UNL     1      24.005   0.062  53.921  1.00  0.00     0.050 C 
HETATM   12  C15 UNL     1      23.072  -0.880  53.853  1.00  0.00    -0.004 C 
HETATM   13  C16 UNL     1      22.033  -0.534  53.105  1.00  0.00     0.132 C 
HETATM   14  N2  UNL     1      21.981   0.861  53.043  1.00  0.00    -0.236 NA
HETATM   15  C17 UNL     1      21.021   1.461  52.436  1.00  0.00     0.163 C 
HETATM   16  N3  UNL     1      20.961   2.914  52.351  1.00  0.00    -0.336 N 
HETATM   17  H22 UNL     1      20.364   3.566  52.916  1.00  0.00     0.168 HD
ENDROOT
BRANCH  10  18
HETATM   18  O2  UNL     1      25.503  -0.372  52.728  1.00  0.00    -0.346 OA
BRANCH  18  19
HETATM   19  C9  UNL     1      26.865  -0.229  52.705  1.00  0.00     0.132 C 
HETATM   20  C10 UNL     1      27.610  -1.528  53.053  1.00  0.00     0.062 C 
HETATM   21  C11 UNL     1      29.085  -1.209  53.170  1.00  0.00     0.272 C 
HETATM   22  N1  UNL     1      29.382  -0.468  54.379  1.00  0.00     0.083 N 
HETATM   23  C12 UNL     1      28.139   0.148  54.800  1.00  0.00     0.272 C 
HETATM   24  H14 UNL     1      30.065   0.303  54.223  1.00  0.00     0.315 HD
HETATM   25  C13 UNL     1      27.437   0.810  53.628  1.00  0.00     0.062 C 
ENDBRANCH  18  19
ENDBRANCH  10  18
BRANCH  15  26
HETATM   26  S1  UNL     1      19.677   0.587  51.627  1.00  0.00    -0.105 SA
HETATM   27  H21 UNL     1      18.507   0.681  52.434  1.00  0.00     0.110 HD
ENDBRANCH  15  26
TORSDOF 3
ENDMDL
MODEL 4
REMARK VINA RESULT:      -7.7      2.639      4.439
REMARK  3 active torsions:
REMARK  status: ('A' for Active; 'I' for Inactive)
REMARK    1  A    between atoms: C8_10  and  O2_11 
REMARK    2  A    between atoms: O2_11  and  C9_12 
REMARK    3  A    between atoms: C17_22  and  S1_23 
ROOT
HETATM    1  C1  UNL     1      20.908  -0.500  54.170  1.00  0.00     0.019 C 
HETATM    2  C2  UNL     1      21.526  -0.285  52.828  1.00  0.00     0.061 C 
HETATM    3  C3  UNL     1      20.433   0.189  51.824  1.00  0.00     0.043 C 
HETATM    4 CL1  UNL     1      19.034   0.245  50.809  1.00  0.00    -0.086 Cl
HETATM    5  C4  UNL     1      20.705   1.459  51.389  1.00  0.00     0.053 C 
HETATM    6  C5  UNL     1      20.596   2.184  52.704  1.00  0.00     0.227 C 
HETATM    7  O1  UNL     1      21.896   1.959  53.128  1.00  0.00    -0.375 OA
HETATM    8  C6  UNL     1      22.459   0.764  52.653  1.00  0.00     0.156 C 
HETATM    9  C7  UNL     1      23.830   1.018  52.976  1.00  0.00     0.042 C 
HETATM   10  C8  UNL     1      24.757   1.563  52.170  1.00  0.00     0.069 C 
HETATM   11  C14 UNL     1      25.437   2.159  51.033  1.00  0.00     0.050 C 
HETATM   12  C15 UNL     1      25.453   3.479  50.893  1.00  0.00    -0.004 C 
HETATM   13  C16 UNL     1      24.247   4.027  50.968  1.00  0.00     0.132 C 
HETATM   14  N2  UNL     1      23.300   3.049  50.654  1.00  0.00    -0.236 NA
HETATM   15  C17 UNL     1      22.050   3.338  50.582  1.00  0.00     0.163 C 
HETATM   16  N3  UNL     1      21.050   2.327  50.269  1.00  0.00    -0.336 N 
HETATM   17  H22 UNL     1      20.567   2.163  49.352  1.00  0.00     0.168 HD
ENDROOT
BRANCH  10  18
HETATM   18  O2  UNL     1      25.998   1.656  52.847  1.00  0.00    -0.346 OA
BRANCH  18  19
HETATM   19  C9  UNL     1      27.103   0.865  52.682  1.00  0.00     0.132 C 
HETATM   20  C10 UNL     1      26.877  -0.584  53.142  1.00  0.00     0.062 C 
HETATM   21  C11 UNL     1      28.202  -1.311  53.082  1.00  0.00     0.272 C 
HETATM   22  N1  UNL     1      29.096  -0.892  54.143  1.00  0.00     0.083 N 
HETATM   23  C12 UNL     1      28.633   0.409  54.582  1.00  0.00     0.272 C 
HETATM   24  H14 UNL     1      30.079  -0.772  53.820  1.00  0.00     0.315 HD
HETATM   25  C13 UNL     1      28.349   1.312  53.396  1.00  0.00     0.062 C 
ENDBRANCH  18  19
ENDBRANCH  10  18
BRANCH  15  26
HETATM   26  S1  UNL     1      21.410   4.991  50.869  1.00  0.00    -0.105 SA
HETATM   27  H21 UNL     1      22.019   5.529  52.039  1.00  0.00     0.110 HD
ENDBRANCH  15  26
TORSDOF 3
ENDMDL
MODEL 5
REMARK VINA RESULT:      -7.4      4.187      6.150
REMARK  3 active torsions:
REMARK  status: ('A' for Active; 'I' for Inactive)
REMARK    1  A    between atoms: C8_10  and  O2_11 
REMARK    2  A    between atoms: O2_11  and  C9_12 
REMARK    3  A    between atoms: C17_22  and  S1_23 
ROOT
HETATM    1  C1  UNL     1      21.294   0.735  53.430  1.00  0.00     0.019 C 
HETATM    2  C2  UNL     1      21.115   0.374  51.993  1.00  0.00     0.061 C 
HETATM    3  C3  UNL     1      19.608   0.101  51.710  1.00  0.00     0.043 C 
HETATM    4 CL1  UNL     1      18.022  -0.589  51.726  1.00  0.00    -0.086 Cl
HETATM    5  C4  UNL     1      19.115   1.024  50.827  1.00  0.00     0.053 C 
HETATM    6  C5  UNL     1      19.304   2.265  51.657  1.00  0.00     0.227 C 
HETATM    7  O1  UNL     1      20.622   2.505  51.304  1.00  0.00    -0.375 OA
HETATM    8  C6  UNL     1      21.356   1.349  50.997  1.00  0.00     0.156 C 
HETATM    9  C7  UNL     1      22.490   1.962  50.375  1.00  0.00     0.042 C 
HETATM   10  C8  UNL     1      22.658   2.197  49.063  1.00  0.00     0.069 C 
HETATM   11  C14 UNL     1      22.462   2.272  47.625  1.00  0.00     0.050 C 
HETATM   12  C15 UNL     1      21.871   3.337  47.096  1.00  0.00    -0.004 C 
HETATM   13  C16 UNL     1      20.714   3.633  47.672  1.00  0.00     0.132 C 
HETATM   14  N2  UNL     1      20.220   2.478  48.284  1.00  0.00    -0.236 NA
HETATM   15  C17 UNL     1      19.069   2.474  48.855  1.00  0.00     0.163 C 
HETATM   16  N3  UNL     1      18.546   1.282  49.509  1.00  0.00    -0.336 N 
HETATM   17  H22 UNL     1      17.827   0.611  49.143  1.00  0.00     0.168 HD
ENDROOT
BRANCH  10  18
HETATM   18  O2  UNL     1      23.908   2.823  48.835  1.00  0.00    -0.346 OA
BRANCH  18  19
HETATM   19  C9  UNL     1      24.576   3.686  49.661  1.00  0.00     0.132 C 
HETATM   20  C10 UNL     1      24.333   5.162  49.308  1.00  0.00     0.062 C 
HETATM   21  C11 UNL     1      25.251   6.009  50.162  1.00  0.00     0.272 C 
HETATM   22  N1  UNL     1      26.630   5.916  49.729  1.00  0.00     0.083 N 
HETATM   23  C12 UNL     1      26.742   4.683  48.973  1.00  0.00     0.272 C 
HETATM   24  H14 UNL     1      27.300   5.846  50.524  1.00  0.00     0.315 HD
HETATM   25  C13 UNL     1      26.071   3.535  49.706  1.00  0.00     0.062 C 
ENDBRANCH  18  19
ENDBRANCH  10  18
BRANCH  15  26
HETATM   26  S1  UNL     1      18.003   3.917  48.921  1.00  0.00    -0.105 SA
HETATM   27  H21 UNL     1      17.145   3.812  50.053  1.00  0.00     0.110 HD
ENDBRANCH  15  26
TORSDOF 3
ENDMDL
MODEL 6
REMARK VINA RESULT:      -7.1      7.708     10.498
REMARK  3 active torsions:
REMARK  status: ('A' for Active; 'I' for Inactive)
REMARK    1  A    between atoms: C8_10  and  O2_11 
REMARK    2  A    between atoms: O2_11  and  C9_12 
REMARK    3  A    between atoms: C17_22  and  S1_23 
ROOT
HETATM    1  C1  UNL     1      31.723   2.600  46.392  1.00  0.00     0.019 C 
HETATM    2  C2  UNL     1      32.309   3.544  47.390  1.00  0.00     0.061 C 
HETATM    3  C3  UNL     1      33.818   3.765  47.070  1.00  0.00     0.043 C 
HETATM    4 CL1  UNL     1      35.511   3.508  46.830  1.00  0.00    -0.086 Cl
HETATM    5  C4  UNL     1      34.045   5.071  46.727  1.00  0.00     0.053 C 
HETATM    6  C5  UNL     1      33.203   5.135  45.482  1.00  0.00     0.227 C 
HETATM    7  O1  UNL     1      31.999   5.419  46.106  1.00  0.00    -0.375 OA
HETATM    8  C6  UNL     1      31.884   4.893  47.402  1.00  0.00     0.156 C 
HETATM    9  C7  UNL     1      30.741   5.632  47.844  1.00  0.00     0.042 C 
HETATM   10  C8  UNL     1      30.747   6.797  48.514  1.00  0.00     0.069 C 
HETATM   11  C14 UNL     1      31.168   8.004  49.204  1.00  0.00     0.050 C 
HETATM   12  C15 UNL     1      31.354   9.125  48.517  1.00  0.00    -0.004 C 
HETATM   13  C16 UNL     1      32.151   8.968  47.468  1.00  0.00     0.132 C 
HETATM   14  N2  UNL     1      32.950   7.843  47.687  1.00  0.00    -0.236 NA
HETATM   15  C17 UNL     1      33.866   7.510  46.850  1.00  0.00     0.163 C 
HETATM   16  N3  UNL     1      34.698   6.332  47.058  1.00  0.00    -0.336 N 
HETATM   17  H22 UNL     1      35.685   6.298  47.410  1.00  0.00     0.168 HD
ENDROOT
BRANCH  10  18
HETATM   18  O2  UNL     1      29.420   7.219  48.772  1.00  0.00    -0.346 OA
BRANCH  18  19
HETATM   19  C9  UNL     1      28.318   7.048  47.979  1.00  0.00     0.132 C 
HETATM   20  C10 UNL     1      27.594   8.367  47.664  1.00  0.00     0.062 C 
HETATM   21  C11 UNL     1      26.306   8.039  46.940  1.00  0.00     0.272 C 
HETATM   22  N1  UNL     1      25.318   7.465  47.831  1.00  0.00     0.083 N 
HETATM   23  C12 UNL     1      26.045   6.938  48.969  1.00  0.00     0.272 C 
HETATM   24  H14 UNL     1      24.803   6.667  47.404  1.00  0.00     0.315 HD
HETATM   25  C13 UNL     1      27.251   6.135  48.517  1.00  0.00     0.062 C 
ENDBRANCH  18  19
ENDBRANCH  10  18
BRANCH  15  26
HETATM   26  S1  UNL     1      34.204   8.435  45.349  1.00  0.00    -0.105 SA
HETATM   27  H21 UNL     1      33.170   9.395  45.151  1.00  0.00     0.110 HD
ENDBRANCH  15  26
TORSDOF 3
ENDMDL
MODEL 7
REMARK VINA RESULT:      -7.0      3.006      3.577
REMARK  3 active torsions:
REMARK  status: ('A' for Active; 'I' for Inactive)
REMARK    1  A    between atoms: C8_10  and  O2_11 
REMARK    2  A    between atoms: O2_11  and  C9_12 
REMARK    3  A    between atoms: C17_22  and  S1_23 
ROOT
HETATM    1  C1  UNL     1      22.471   3.246  48.193  1.00  0.00     0.019 C 
HETATM    2  C2  UNL     1      22.092   3.389  49.630  1.00  0.00     0.061 C 
HETATM    3  C3  UNL     1      20.615   3.872  49.731  1.00  0.00     0.043 C 
HETATM    4 CL1  UNL     1      19.175   4.823  49.611  1.00  0.00    -0.086 Cl
HETATM    5  C4  UNL     1      19.842   2.917  50.336  1.00  0.00     0.053 C 
HETATM    6  C5  UNL     1      19.994   1.817  49.320  1.00  0.00     0.227 C 
HETATM    7  O1  UNL     1      21.178   1.294  49.813  1.00  0.00    -0.375 OA
HETATM    8  C6  UNL     1      22.006   2.236  50.444  1.00  0.00     0.156 C 
HETATM    9  C7  UNL     1      22.908   1.338  51.098  1.00  0.00     0.042 C 
HETATM   10  C8  UNL     1      22.803   0.863  52.350  1.00  0.00     0.069 C 
HETATM   11  C14 UNL     1      22.343   0.586  53.701  1.00  0.00     0.050 C 
HETATM   12  C15 UNL     1      21.519  -0.432  53.920  1.00  0.00    -0.004 C 
HETATM   13  C16 UNL     1      20.452  -0.420  53.131  1.00  0.00     0.132 C 
HETATM   14  N2  UNL     1      20.249   0.889  52.686  1.00  0.00    -0.236 NA
HETATM   15  C17 UNL     1      19.233   1.191  51.961  1.00  0.00     0.163 C 
HETATM   16  N3  UNL     1      19.015   2.548  51.479  1.00  0.00    -0.336 N 
HETATM   17  H22 UNL     1      18.348   3.264  51.855  1.00  0.00     0.168 HD
ENDROOT
BRANCH  10  18
HETATM   18  O2  UNL     1      23.887  -0.002  52.638  1.00  0.00    -0.346 OA
BRANCH  18  19
HETATM   19  C9  UNL     1      25.090   0.325  53.203  1.00  0.00     0.132 C 
HETATM   20  C10 UNL     1      26.096   0.890  52.188  1.00  0.00     0.062 C 
HETATM   21  C11 UNL     1      27.432   1.044  52.881  1.00  0.00     0.272 C 
HETATM   22  N1  UNL     1      28.069  -0.236  53.116  1.00  0.00     0.083 N 
HETATM   23  C12 UNL     1      27.018  -1.233  53.074  1.00  0.00     0.272 C 
HETATM   24  H14 UNL     1      28.513  -0.301  54.056  1.00  0.00     0.315 HD
HETATM   25  C13 UNL     1      25.820  -0.793  53.896  1.00  0.00     0.062 C 
ENDBRANCH  18  19
ENDBRANCH  10  18
BRANCH  15  26
HETATM   26  S1  UNL     1      17.997  -0.011  51.460  1.00  0.00    -0.105 SA
HETATM   27  H21 UNL     1      16.700   0.550  51.643  1.00  0.00     0.110 HD
ENDBRANCH  15  26
TORSDOF 3
ENDMDL
MODEL 8
REMARK VINA RESULT:      -6.9      2.710      4.262
REMARK  3 active torsions:
REMARK  status: ('A' for Active; 'I' for Inactive)
REMARK    1  A    between atoms: C8_10  and  O2_11 
REMARK    2  A    between atoms: O2_11  and  C9_12 
REMARK    3  A    between atoms: C17_22  and  S1_23 
ROOT
HETATM    1  C1  UNL     1      19.371   0.533  51.992  1.00  0.00     0.019 C 
HETATM    2  C2  UNL     1      20.195   0.956  50.821  1.00  0.00     0.061 C 
HETATM    3  C3  UNL     1      19.341   1.864  49.887  1.00  0.00     0.043 C 
HETATM    4 CL1  UNL     1      18.122   2.436  48.802  1.00  0.00    -0.086 Cl
HETATM    5  C4  UNL     1      19.868   3.127  49.840  1.00  0.00     0.053 C 
HETATM    6  C5  UNL     1      19.696   3.507  51.286  1.00  0.00     0.227 C 
HETATM    7  O1  UNL     1      20.872   2.941  51.751  1.00  0.00    -0.375 OA
HETATM    8  C6  UNL     1      21.298   1.818  51.023  1.00  0.00     0.156 C 
HETATM    9  C7  UNL     1      22.634   1.719  51.526  1.00  0.00     0.042 C 
HETATM   10  C8  UNL     1      23.739   2.261  50.987  1.00  0.00     0.069 C 
HETATM   11  C14 UNL     1      24.655   2.983  50.120  1.00  0.00     0.050 C 
HETATM   12  C15 UNL     1      24.900   4.269  50.346  1.00  0.00    -0.004 C 
HETATM   13  C16 UNL     1      23.798   4.999  50.456  1.00  0.00     0.132 C 
HETATM   14  N2  UNL     1      22.760   4.328  49.803  1.00  0.00    -0.236 NA
HETATM   15  C17 UNL     1      21.594   4.858  49.698  1.00  0.00     0.163 C 
HETATM   16  N3  UNL     1      20.499   4.166  49.033  1.00  0.00    -0.336 N 
HETATM   17  H22 UNL     1      20.127   4.331  48.066  1.00  0.00     0.168 HD
ENDROOT
BRANCH  10  18
HETATM   18  O2  UNL     1      24.873   1.946  51.774  1.00  0.00    -0.346 OA
BRANCH  18  19
HETATM   19  C9  UNL     1      25.258   0.715  52.232  1.00  0.00     0.132 C 
HETATM   20  C10 UNL     1      25.201   0.600  53.764  1.00  0.00     0.062 C 
HETATM   21  C11 UNL     1      25.812  -0.727  54.161  1.00  0.00     0.272 C 
HETATM   22  N1  UNL     1      27.252  -0.726  54.005  1.00  0.00     0.083 N 
HETATM   23  C12 UNL     1      27.564   0.332  53.064  1.00  0.00     0.272 C 
HETATM   24  H14 UNL     1      27.615  -1.612  53.596  1.00  0.00     0.315 HD
HETATM   25  C13 UNL     1      26.646   0.273  51.857  1.00  0.00     0.062 C 
ENDBRANCH  18  19
ENDBRANCH  10  18
BRANCH  15  26
HETATM   26  S1  UNL     1      21.191   6.476  50.363  1.00  0.00    -0.105 SA
HETATM   27  H21 UNL     1      22.131   6.810  51.381  1.00  0.00     0.110 HD
ENDBRANCH  15  26
TORSDOF 3
ENDMDL
MODEL 9
REMARK VINA RESULT:      -6.8      4.425      6.208
REMARK  3 active torsions:
REMARK  status: ('A' for Active; 'I' for Inactive)
REMARK    1  A    between atoms: C8_10  and  O2_11 
REMARK    2  A    between atoms: O2_11  and  C9_12 
REMARK    3  A    between atoms: C17_22  and  S1_23 
ROOT
HETATM    1  C1  UNL     1      17.013  -0.845  52.821  1.00  0.00     0.019 C 
HETATM    2  C2  UNL     1      17.939  -0.795  51.652  1.00  0.00     0.061 C 
HETATM    3  C3  UNL     1      17.178  -0.243  50.410  1.00  0.00     0.043 C 
HETATM    4 CL1  UNL     1      16.064  -0.065  49.099  1.00  0.00    -0.086 Cl
HETATM    5  C4  UNL     1      17.718   0.952  50.013  1.00  0.00     0.053 C 
HETATM    6  C5  UNL     1      17.422   1.763  51.246  1.00  0.00     0.227 C 
HETATM    7  O1  UNL     1      18.548   1.395  51.964  1.00  0.00    -0.375 OA
HETATM    8  C6  UNL     1      19.027   0.109  51.666  1.00  0.00     0.156 C 
HETATM    9  C7  UNL     1      20.313   0.200  52.289  1.00  0.00     0.042 C 
HETATM   10  C8  UNL     1      21.465   0.568  51.703  1.00  0.00     0.069 C 
HETATM   11  C14 UNL     1      22.460   0.999  50.735  1.00  0.00     0.050 C 
HETATM   12  C15 UNL     1      22.694   2.294  50.565  1.00  0.00    -0.004 C 
HETATM   13  C16 UNL     1      21.593   3.000  50.344  1.00  0.00     0.132 C 
HETATM   14  N2  UNL     1      20.611   2.138  49.849  1.00  0.00    -0.236 NA
HETATM   15  C17 UNL     1      19.463   2.584  49.483  1.00  0.00     0.163 C 
HETATM   16  N3  UNL     1      18.425   1.696  48.978  1.00  0.00    -0.336 N 
HETATM   17  H22 UNL     1      18.142   1.542  47.980  1.00  0.00     0.168 HD
ENDROOT
BRANCH  10  18
HETATM   18  O2  UNL     1      22.523   0.538  52.643  1.00  0.00    -0.346 OA
BRANCH  18  19
HETATM   19  C9  UNL     1      23.003  -0.545  53.330  1.00  0.00     0.132 C 
HETATM   20  C10 UNL     1      22.602  -0.542  54.813  1.00  0.00     0.062 C 
HETATM   21  C11 UNL     1      23.329  -1.675  55.502  1.00  0.00     0.272 C 
HETATM   22  N1  UNL     1      24.740  -1.390  55.668  1.00  0.00     0.083 N 
HETATM   23  C12 UNL     1      25.072  -0.371  54.691  1.00  0.00     0.272 C 
HETATM   24  H14 UNL     1      25.346  -2.213  55.466  1.00  0.00     0.315 HD
HETATM   25  C13 UNL     1      24.497  -0.719  53.329  1.00  0.00     0.062 C 
ENDBRANCH  18  19
ENDBRANCH  10  18
BRANCH  15  26
HETATM   26  S1  UNL     1      19.016   4.321  49.566  1.00  0.00    -0.105 SA
HETATM   27  H21 UNL     1      19.495   4.867  50.792  1.00  0.00     0.110 HD
ENDBRANCH  15  26
TORSDOF 3
ENDMDL
