MODEL 1
REMARK VINA RESULT:      -7.9      0.000      0.000
REMARK  7 active torsions:
REMARK  status: ('A' for Active; 'I' for Inactive)
REMARK    1  A    between atoms: C2_2  and  C3_3 
REMARK    2  A    between atoms: C3_3  and  C4_4 
REMARK    3  A    between atoms: C10_11  and  O2_12 
REMARK    4  A    between atoms: C13_15  and  C14_16 
REMARK    5  A    between atoms: C14_16  and  C15_17 
REMARK    6  A    between atoms: C17_20  and  N2_21 
REMARK    7  A    between atoms: C18_23  and  N4_24 
ROOT
HETATM    1  C4  UNL     1      22.504   0.410  52.635  1.00  0.00     0.019 C 
HETATM    2  C5  UNL     1      21.398   0.942  53.456  1.00  0.00    -0.025 C 
HETATM    3  C6  UNL     1      20.340   1.461  52.866  1.00  0.00    -0.030 C 
HETATM    4  C7  UNL     1      20.049   1.616  51.398  1.00  0.00     0.030 C 
HETATM    5  O1  UNL     1      19.925   3.061  51.266  1.00  0.00     0.000 OA
HETATM    6  C8  UNL     1      21.153   3.734  51.582  1.00  0.00    -0.000 C 
HETATM    7  C9  UNL     1      20.207   4.485  51.098  1.00  0.00     0.027 C 
HETATM    8  C10 UNL     1      22.489   3.536  52.107  1.00  0.00     0.075 C 
HETATM    9  C12 UNL     1      23.365   2.676  52.577  1.00  0.00     0.016 C 
HETATM   10  C13 UNL     1      23.700   1.286  52.940  1.00  0.00     0.023 C 
ENDROOT
BRANCH  10  11
HETATM   11  C14 UNL     1      24.950   0.813  52.257  1.00  0.00     0.053 C 
BRANCH  11  12
HETATM   12  C15 UNL     1      26.227   1.226  52.829  1.00  0.00     0.007 A 
HETATM   13  C16 UNL     1      26.712   0.608  53.988  1.00  0.00     0.147 A 
HETATM   14  N1  UNL     1      27.871   0.902  54.603  1.00  0.00    -0.075 NA
HETATM   15  C17 UNL     1      28.669   1.865  54.100  1.00  0.00     0.721 A 
HETATM   16  N3  UNL     1      28.270   2.505  52.989  1.00  0.00    -0.045 NA
HETATM   17  C18 UNL     1      27.108   2.195  52.393  1.00  0.00     0.148 A 
BRANCH  15  18
HETATM   18  N2  UNL     1      29.908   2.244  54.679  1.00  0.00    -0.231 N 
HETATM   19  H21 UNL     1      29.947   2.398  55.721  1.00  0.00     0.174 HD
HETATM   20  H22 UNL     1      30.755   2.359  54.061  1.00  0.00     0.174 HD
ENDBRANCH  15  18
BRANCH  17  21
HETATM   21  N4  UNL     1      26.791   2.955  51.241  1.00  0.00    -0.383 N 
HETATM   22  H23 UNL     1      26.035   3.305  50.631  1.00  0.00     0.157 HD
HETATM   23  H24 UNL     1      27.588   3.367  50.737  1.00  0.00     0.157 HD
ENDBRANCH  17  21
ENDBRANCH  11  12
ENDBRANCH  10  11
BRANCH   1  24
HETATM   24  C3  UNL     1      22.717  -1.015  53.101  1.00  0.00     0.035 C 
BRANCH  24  25
HETATM   25  C2  UNL     1      22.556  -1.115  54.601  1.00  0.00    -0.036 C 
HETATM   26  C1  UNL     1      23.448  -1.345  55.588  1.00  0.00     0.007 C 
ENDBRANCH  24  25
ENDBRANCH   1  24
BRANCH   8  27
HETATM   27  O2  UNL     1      22.766   4.882  51.975  1.00  0.00    -0.355 OA
HETATM   28  C11 UNL     1      23.896   5.362  51.281  1.00  0.00     0.210 C 
ENDBRANCH   8  27
TORSDOF 7
ENDMDL
MODEL 2
REMARK VINA RESULT:      -7.8      1.886      4.037
REMARK  7 active torsions:
REMARK  status: ('A' for Active; 'I' for Inactive)
REMARK    1  A    between atoms: C2_2  and  C3_3 
REMARK    2  A    between atoms: C3_3  and  C4_4 
REMARK    3  A    between atoms: C10_11  and  O2_12 
REMARK    4  A    between atoms: C13_15  and  C14_16 
REMARK    5  A    between atoms: C14_16  and  C15_17 
REMARK    6  A    between atoms: C17_20  and  N2_21 
REMARK    7  A    between atoms: C18_23  and  N4_24 
ROOT
HETATM    1  C4  UNL     1      23.430   2.632  51.847  1.00  0.00     0.019 C 
HETATM    2  C5  UNL     1      22.732   2.065  50.675  1.00  0.00    -0.025 C 
HETATM    3  C6  UNL     1      21.415   2.018  50.662  1.00  0.00    -0.030 C 
HETATM    4  C7  UNL     1      20.436   2.473  51.709  1.00  0.00     0.030 C 
HETATM    5  O1  UNL     1      19.748   1.232  52.038  1.00  0.00     0.000 OA
HETATM    6  C8  UNL     1      20.639   0.262  52.608  1.00  0.00    -0.000 C 
HETATM    7  C9  UNL     1      19.378  -0.057  52.618  1.00  0.00     0.027 C 
HETATM    8  C10 UNL     1      22.033  -0.014  52.895  1.00  0.00     0.075 C 
HETATM    9  C12 UNL     1      23.271   0.423  52.834  1.00  0.00     0.016 C 
HETATM   10  C13 UNL     1      24.217   1.487  52.449  1.00  0.00     0.023 C 
ENDROOT
BRANCH  10  11
HETATM   11  C14 UNL     1      25.073   1.921  53.602  1.00  0.00     0.053 C 
BRANCH  11  12
HETATM   12  C15 UNL     1      26.427   1.381  53.675  1.00  0.00     0.007 A 
HETATM   13  C16 UNL     1      27.478   2.022  53.009  1.00  0.00     0.147 A 
HETATM   14  N1  UNL     1      28.760   1.621  53.005  1.00  0.00    -0.075 NA
HETATM   15  C17 UNL     1      29.117   0.513  53.685  1.00  0.00     0.721 A 
HETATM   16  N3  UNL     1      28.162  -0.158  54.351  1.00  0.00    -0.045 NA
HETATM   17  C18 UNL     1      26.887   0.262  54.339  1.00  0.00     0.148 A 
BRANCH  15  18
HETATM   18  N2  UNL     1      30.443   0.013  53.740  1.00  0.00    -0.231 N 
HETATM   19  H21 UNL     1      31.126   0.477  54.396  1.00  0.00     0.174 HD
HETATM   20  H22 UNL     1      30.715  -0.804  53.131  1.00  0.00     0.174 HD
ENDBRANCH  15  18
BRANCH  17  21
HETATM   21  N4  UNL     1      25.973  -0.542  55.062  1.00  0.00    -0.383 N 
HETATM   22  H23 UNL     1      25.864  -1.265  55.791  1.00  0.00     0.157 HD
HETATM   23  H24 UNL     1      24.978  -0.422  54.825  1.00  0.00     0.157 HD
ENDBRANCH  17  21
ENDBRANCH  11  12
ENDBRANCH  10  11
BRANCH   1  24
HETATM   24  C3  UNL     1      24.338   3.714  51.304  1.00  0.00     0.035 C 
BRANCH  24  25
HETATM   25  C2  UNL     1      25.057   3.235  50.062  1.00  0.00    -0.036 C 
HETATM   26  C1  UNL     1      26.362   3.249  49.717  1.00  0.00     0.007 C 
ENDBRANCH  24  25
ENDBRANCH   1  24
BRANCH   8  27
HETATM   27  O2  UNL     1      21.704  -1.244  53.429  1.00  0.00    -0.355 OA
HETATM   28  C11 UNL     1      22.063  -1.626  54.738  1.00  0.00     0.210 C 
ENDBRANCH   8  27
TORSDOF 7
ENDMDL
MODEL 3
REMARK VINA RESULT:      -7.7      2.323      4.413
REMARK  7 active torsions:
REMARK  status: ('A' for Active; 'I' for Inactive)
REMARK    1  A    between atoms: C2_2  and  C3_3 
REMARK    2  A    between atoms: C3_3  and  C4_4 
REMARK    3  A    between atoms: C10_11  and  O2_12 
REMARK    4  A    between atoms: C13_15  and  C14_16 
REMARK    5  A    between atoms: C14_16  and  C15_17 
REMARK    6  A    between atoms: C17_20  and  N2_21 
REMARK    7  A    between atoms: C18_23  and  N4_24 
ROOT
HETATM    1  C4  UNL     1      25.086   2.971  51.043  1.00  0.00     0.019 C 
HETATM    2  C5  UNL     1      24.144   2.871  49.910  1.00  0.00    -0.025 C 
HETATM    3  C6  UNL     1      23.124   3.702  49.837  1.00  0.00    -0.030 C 
HETATM    4  C7  UNL     1      22.728   4.809  50.776  1.00  0.00     0.030 C 
HETATM    5  O1  UNL     1      21.407   4.379  51.211  1.00  0.00     0.000 OA
HETATM    6  C8  UNL     1      21.458   3.138  51.931  1.00  0.00    -0.000 C 
HETATM    7  C9  UNL     1      20.302   3.734  51.915  1.00  0.00     0.027 C 
HETATM    8  C10 UNL     1      22.333   2.049  52.316  1.00  0.00     0.075 C 
HETATM    9  C12 UNL     1      23.548   1.551  52.267  1.00  0.00     0.016 C 
HETATM   10  C13 UNL     1      24.946   1.674  51.810  1.00  0.00     0.023 C 
ENDROOT
BRANCH  10  11
HETATM   11  C14 UNL     1      25.919   1.568  52.947  1.00  0.00     0.053 C 
BRANCH  11  12
HETATM   12  C15 UNL     1      26.690   0.335  53.060  1.00  0.00     0.007 A 
HETATM   13  C16 UNL     1      26.305  -0.805  52.344  1.00  0.00     0.147 A 
HETATM   14  N1  UNL     1      26.934  -1.992  52.367  1.00  0.00    -0.075 NA
HETATM   15  C17 UNL     1      28.036  -2.150  53.129  1.00  0.00     0.721 A 
HETATM   16  N3  UNL     1      28.468  -1.101  53.846  1.00  0.00    -0.045 NA
HETATM   17  C18 UNL     1      27.821   0.075  53.808  1.00  0.00     0.148 A 
BRANCH  15  18
HETATM   18  N2  UNL     1      28.766  -3.363  53.217  1.00  0.00    -0.231 N 
HETATM   19  H21 UNL     1      28.575  -4.004  54.032  1.00  0.00     0.174 HD
HETATM   20  H22 UNL     1      29.475  -3.597  52.472  1.00  0.00     0.174 HD
ENDBRANCH  15  18
BRANCH  17  21
HETATM   21  N4  UNL     1      28.364   1.097  54.624  1.00  0.00    -0.383 N 
HETATM   22  H23 UNL     1      29.197   1.429  55.135  1.00  0.00     0.157 HD
HETATM   23  H24 UNL     1      27.730   1.875  54.857  1.00  0.00     0.157 HD
ENDBRANCH  17  21
ENDBRANCH  11  12
ENDBRANCH  10  11
BRANCH   1  24
HETATM   24  C3  UNL     1      26.462   3.113  50.425  1.00  0.00     0.035 C 
BRANCH  24  25
HETATM   25  C2  UNL     1      26.472   4.216  49.392  1.00  0.00    -0.036 C 
HETATM   26  C1  UNL     1      27.482   4.812  48.723  1.00  0.00     0.007 C 
ENDBRANCH  24  25
ENDBRANCH   1  24
BRANCH   8  27
HETATM   27  O2  UNL     1      21.296   1.415  52.970  1.00  0.00    -0.355 OA
HETATM   28  C11 UNL     1      21.504   0.371  53.895  1.00  0.00     0.210 C 
ENDBRANCH   8  27
TORSDOF 7
ENDMDL
MODEL 4
REMARK VINA RESULT:      -7.4      1.719      3.887
REMARK  7 active torsions:
REMARK  status: ('A' for Active; 'I' for Inactive)
REMARK    1  A    between atoms: C2_2  and  C3_3 
REMARK    2  A    between atoms: C3_3  and  C4_4 
REMARK    3  A    between atoms: C10_11  and  O2_12 
REMARK    4  A    between atoms: C13_15  and  C14_16 
REMARK    5  A    between atoms: C14_16  and  C15_17 
REMARK    6  A    between atoms: C17_20  and  N2_21 
REMARK    7  A    between atoms: C18_23  and  N4_24 
ROOT
HETATM    1  C4  UNL     1      22.539   2.472  51.569  1.00  0.00     0.019 C 
HETATM    2  C5  UNL     1      21.854   1.574  50.618  1.00  0.00    -0.025 C 
HETATM    3  C6  UNL     1      20.587   1.266  50.811  1.00  0.00    -0.030 C 
HETATM    4  C7  UNL     1      19.658   1.702  51.910  1.00  0.00     0.030 C 
HETATM    5  O1  UNL     1      19.304   0.433  52.528  1.00  0.00     0.000 OA
HETATM    6  C8  UNL     1      20.446  -0.222  53.100  1.00  0.00    -0.000 C 
HETATM    7  C9  UNL     1      19.296  -0.775  53.350  1.00  0.00     0.027 C 
HETATM    8  C10 UNL     1      21.890  -0.159  53.213  1.00  0.00     0.075 C 
HETATM    9  C12 UNL     1      22.986   0.495  52.899  1.00  0.00     0.016 C 
HETATM   10  C13 UNL     1      23.623   1.636  52.216  1.00  0.00     0.023 C 
ENDROOT
BRANCH  10  11
HETATM   11  C14 UNL     1      24.489   2.435  53.145  1.00  0.00     0.053 C 
BRANCH  11  12
HETATM   12  C15 UNL     1      25.897   2.064  53.237  1.00  0.00     0.007 A 
HETATM   13  C16 UNL     1      26.347   1.266  54.297  1.00  0.00     0.147 A 
HETATM   14  N1  UNL     1      27.614   0.861  54.486  1.00  0.00    -0.075 NA
HETATM   15  C17 UNL     1      28.571   1.227  53.608  1.00  0.00     0.721 A 
HETATM   16  N3  UNL     1      28.216   1.994  52.565  1.00  0.00    -0.045 NA
HETATM   17  C18 UNL     1      26.944   2.387  52.398  1.00  0.00     0.148 A 
BRANCH  15  18
HETATM   18  N2  UNL     1      29.934   0.848  53.724  1.00  0.00    -0.231 N 
HETATM   19  H21 UNL     1      30.648   1.370  53.151  1.00  0.00     0.174 HD
HETATM   20  H22 UNL     1      30.200   0.063  54.376  1.00  0.00     0.174 HD
ENDBRANCH  15  18
BRANCH  17  21
HETATM   21  N4  UNL     1      26.702   3.209  51.270  1.00  0.00    -0.383 N 
HETATM   22  H23 UNL     1      26.000   3.534  50.587  1.00  0.00     0.157 HD
HETATM   23  H24 UNL     1      27.509   3.739  50.915  1.00  0.00     0.157 HD
ENDBRANCH  17  21
ENDBRANCH  11  12
ENDBRANCH  10  11
BRANCH   1  24
HETATM   24  C3  UNL     1      23.118   3.595  50.734  1.00  0.00     0.035 C 
BRANCH  24  25
HETATM   25  C2  UNL     1      22.593   4.933  51.200  1.00  0.00    -0.036 C 
HETATM   26  C1  UNL     1      21.378   5.511  51.088  1.00  0.00     0.007 C 
ENDBRANCH  24  25
ENDBRANCH   1  24
BRANCH   8  27
HETATM   27  O2  UNL     1      21.904  -1.310  53.975  1.00  0.00    -0.355 OA
HETATM   28  C11 UNL     1      22.589  -1.402  55.204  1.00  0.00     0.210 C 
ENDBRANCH   8  27
TORSDOF 7
ENDMDL
MODEL 5
REMARK VINA RESULT:      -6.8      2.786      4.328
REMARK  7 active torsions:
REMARK  status: ('A' for Active; 'I' for Inactive)
REMARK    1  A    between atoms: C2_2  and  C3_3 
REMARK    2  A    between atoms: C3_3  and  C4_4 
REMARK    3  A    between atoms: C10_11  and  O2_12 
REMARK    4  A    between atoms: C13_15  and  C14_16 
REMARK    5  A    between atoms: C14_16  and  C15_17 
REMARK    6  A    between atoms: C17_20  and  N2_21 
REMARK    7  A    between atoms: C18_23  and  N4_24 
ROOT
HETATM    1  C4  UNL     1      19.499   1.156  51.227  1.00  0.00     0.019 C 
HETATM    2  C5  UNL     1      18.579   2.234  51.640  1.00  0.00    -0.025 C 
HETATM    3  C6  UNL     1      18.471   3.318  50.898  1.00  0.00    -0.030 C 
HETATM    4  C7  UNL     1      19.175   3.667  49.616  1.00  0.00     0.030 C 
HETATM    5  O1  UNL     1      19.894   4.878  49.987  1.00  0.00     0.000 OA
HETATM    6  C8  UNL     1      20.867   4.629  51.012  1.00  0.00    -0.000 C 
HETATM    7  C9  UNL     1      20.890   5.820  50.491  1.00  0.00     0.027 C 
HETATM    8  C10 UNL     1      21.357   3.625  51.935  1.00  0.00     0.075 C 
HETATM    9  C12 UNL     1      21.241   2.392  52.375  1.00  0.00     0.016 C 
HETATM   10  C13 UNL     1      20.560   1.085  52.304  1.00  0.00     0.023 C 
ENDROOT
BRANCH  10  11
HETATM   11  C14 UNL     1      21.528  -0.041  52.088  1.00  0.00     0.053 C 
BRANCH  11  12
HETATM   12  C15 UNL     1      22.358  -0.442  53.218  1.00  0.00     0.007 A 
HETATM   13  C16 UNL     1      23.731  -0.169  53.216  1.00  0.00     0.147 A 
HETATM   14  N1  UNL     1      24.593  -0.487  54.196  1.00  0.00    -0.075 NA
HETATM   15  C17 UNL     1      24.147  -1.124  55.298  1.00  0.00     0.721 A 
HETATM   16  N3  UNL     1      22.840  -1.421  55.374  1.00  0.00    -0.045 NA
HETATM   17  C18 UNL     1      21.998  -1.094  54.380  1.00  0.00     0.148 A 
BRANCH  15  18
HETATM   18  N2  UNL     1      24.980  -1.499  56.384  1.00  0.00    -0.231 N 
HETATM   19  H21 UNL     1      25.800  -2.133  56.189  1.00  0.00     0.174 HD
HETATM   20  H22 UNL     1      24.764  -1.139  57.351  1.00  0.00     0.174 HD
ENDBRANCH  15  18
BRANCH  17  21
HETATM   21  N4  UNL     1      20.649  -1.480  54.571  1.00  0.00    -0.383 N 
HETATM   22  H23 UNL     1      19.884  -1.600  55.254  1.00  0.00     0.157 HD
HETATM   23  H24 UNL     1      20.142  -1.784  53.728  1.00  0.00     0.157 HD
ENDBRANCH  17  21
ENDBRANCH  11  12
ENDBRANCH  10  11
BRANCH   1  24
HETATM   24  C3  UNL     1      18.663  -0.106  51.177  1.00  0.00     0.035 C 
BRANCH  24  25
HETATM   25  C2  UNL     1      17.970  -0.339  52.501  1.00  0.00    -0.036 C 
HETATM   26  C1  UNL     1      17.288  -1.399  52.984  1.00  0.00     0.007 C 
ENDBRANCH  24  25
ENDBRANCH   1  24
BRANCH   8  27
HETATM   27  O2  UNL     1      22.291   4.508  52.438  1.00  0.00    -0.355 OA
HETATM   28  C11 UNL     1      23.626   4.136  52.702  1.00  0.00     0.210 C 
ENDBRANCH   8  27
TORSDOF 7
ENDMDL
MODEL 6
REMARK VINA RESULT:      -6.7      2.673      4.950
REMARK  7 active torsions:
REMARK  status: ('A' for Active; 'I' for Inactive)
REMARK    1  A    between atoms: C2_2  and  C3_3 
REMARK    2  A    between atoms: C3_3  and  C4_4 
REMARK    3  A    between atoms: C10_11  and  O2_12 
REMARK    4  A    between atoms: C13_15  and  C14_16 
REMARK    5  A    between atoms: C14_16  and  C15_17 
REMARK    6  A    between atoms: C17_20  and  N2_21 
REMARK    7  A    between atoms: C18_23  and  N4_24 
ROOT
HETATM    1  C4  UNL     1      21.980   1.996  51.215  1.00  0.00     0.019 C 
HETATM    2  C5  UNL     1      21.497   0.674  50.769  1.00  0.00    -0.025 C 
HETATM    3  C6  UNL     1      20.614   0.023  51.498  1.00  0.00    -0.030 C 
HETATM    4  C7  UNL     1      19.972   0.424  52.798  1.00  0.00     0.030 C 
HETATM    5  O1  UNL     1      20.409  -0.639  53.692  1.00  0.00     0.000 OA
HETATM    6  C8  UNL     1      21.836  -0.654  53.849  1.00  0.00    -0.000 C 
HETATM    7  C9  UNL     1      21.175  -1.466  54.621  1.00  0.00     0.027 C 
HETATM    8  C10 UNL     1      23.068  -0.068  53.361  1.00  0.00     0.075 C 
HETATM    9  C12 UNL     1      23.620   0.795  52.538  1.00  0.00     0.016 C 
HETATM   10  C13 UNL     1      23.459   1.822  51.491  1.00  0.00     0.023 C 
ENDROOT
BRANCH  10  11
HETATM   11  C14 UNL     1      24.132   3.111  51.860  1.00  0.00     0.053 C 
BRANCH  11  12
HETATM   12  C15 UNL     1      25.144   3.628  50.945  1.00  0.00     0.007 A 
HETATM   13  C16 UNL     1      24.924   4.827  50.257  1.00  0.00     0.147 A 
HETATM   14  N1  UNL     1      25.779   5.401  49.394  1.00  0.00    -0.075 NA
HETATM   15  C17 UNL     1      26.963   4.810  49.134  1.00  0.00     0.721 A 
HETATM   16  N3  UNL     1      27.247   3.654  49.756  1.00  0.00    -0.045 NA
HETATM   17  C18 UNL     1      26.375   3.100  50.615  1.00  0.00     0.148 A 
BRANCH  15  18
HETATM   18  N2  UNL     1      27.929   5.339  48.239  1.00  0.00    -0.231 N 
HETATM   19  H21 UNL     1      28.289   6.315  48.413  1.00  0.00     0.174 HD
HETATM   20  H22 UNL     1      28.264   4.751  47.430  1.00  0.00     0.174 HD
ENDBRANCH  15  18
BRANCH  17  21
HETATM   21  N4  UNL     1      26.782   1.872  51.190  1.00  0.00    -0.383 N 
HETATM   22  H23 UNL     1      27.324   1.004  51.053  1.00  0.00     0.157 HD
HETATM   23  H24 UNL     1      26.438   1.682  52.141  1.00  0.00     0.157 HD
ENDBRANCH  17  21
ENDBRANCH  11  12
ENDBRANCH  10  11
BRANCH   1  24
HETATM   24  C3  UNL     1      21.732   2.940  50.057  1.00  0.00     0.035 C 
BRANCH  24  25
HETATM   25  C2  UNL     1      22.429   2.448  48.809  1.00  0.00    -0.036 C 
HETATM   26  C1  UNL     1      22.086   2.511  47.504  1.00  0.00     0.007 C 
ENDBRANCH  24  25
ENDBRANCH   1  24
BRANCH   8  27
HETATM   27  O2  UNL     1      23.810  -0.856  54.218  1.00  0.00    -0.355 OA
HETATM   28  C11 UNL     1      25.189  -0.657  54.434  1.00  0.00     0.210 C 
ENDBRANCH   8  27
TORSDOF 7
ENDMDL
MODEL 7
REMARK VINA RESULT:      -6.6      1.692      2.266
REMARK  7 active torsions:
REMARK  status: ('A' for Active; 'I' for Inactive)
REMARK    1  A    between atoms: C2_2  and  C3_3 
REMARK    2  A    between atoms: C3_3  and  C4_4 
REMARK    3  A    between atoms: C10_11  and  O2_12 
REMARK    4  A    between atoms: C13_15  and  C14_16 
REMARK    5  A    between atoms: C14_16  and  C15_17 
REMARK    6  A    between atoms: C17_20  and  N2_21 
REMARK    7  A    between atoms: C18_23  and  N4_24 
ROOT
HETATM    1  C4  UNL     1      21.699   2.211  51.852  1.00  0.00     0.019 C 
HETATM    2  C5  UNL     1      20.802   3.278  52.341  1.00  0.00    -0.025 C 
HETATM    3  C6  UNL     1      20.008   3.900  51.493  1.00  0.00    -0.030 C 
HETATM    4  C7  UNL     1      19.850   3.695  50.012  1.00  0.00     0.030 C 
HETATM    5  O1  UNL     1      20.226   4.999  49.485  1.00  0.00     0.000 OA
HETATM    6  C8  UNL     1      21.594   5.321  49.779  1.00  0.00    -0.000 C 
HETATM    7  C9  UNL     1      20.978   6.148  48.987  1.00  0.00     0.027 C 
HETATM    8  C10 UNL     1      22.761   4.883  50.518  1.00  0.00     0.075 C 
HETATM    9  C12 UNL     1      23.275   3.974  51.316  1.00  0.00     0.016 C 
HETATM   10  C13 UNL     1      23.106   2.722  52.077  1.00  0.00     0.023 C 
ENDROOT
BRANCH  10  11
HETATM   11  C14 UNL     1      24.151   1.705  51.725  1.00  0.00     0.053 C 
BRANCH  11  12
HETATM   12  C15 UNL     1      25.489   1.897  52.274  1.00  0.00     0.007 A 
HETATM   13  C16 UNL     1      25.747   1.604  53.619  1.00  0.00     0.147 A 
HETATM   14  N1  UNL     1      26.934   1.739  54.234  1.00  0.00    -0.075 NA
HETATM   15  C17 UNL     1      27.999   2.190  53.540  1.00  0.00     0.721 A 
HETATM   16  N3  UNL     1      27.830   2.493  52.243  1.00  0.00    -0.045 NA
HETATM   17  C18 UNL     1      26.633   2.351  51.651  1.00  0.00     0.148 A 
BRANCH  15  18
HETATM   18  N2  UNL     1      29.290   2.365  54.102  1.00  0.00    -0.231 N 
HETATM   19  H21 UNL     1      30.099   1.845  53.669  1.00  0.00     0.174 HD
HETATM   20  H22 UNL     1      29.413   3.005  54.931  1.00  0.00     0.174 HD
ENDBRANCH  15  18
BRANCH  17  21
HETATM   21  N4  UNL     1      26.580   2.723  50.286  1.00  0.00    -0.383 N 
HETATM   22  H23 UNL     1      27.092   3.147  49.496  1.00  0.00     0.157 HD
HETATM   23  H24 UNL     1      25.695   2.526  49.797  1.00  0.00     0.157 HD
ENDBRANCH  17  21
ENDBRANCH  11  12
ENDBRANCH  10  11
BRANCH   1  24
HETATM   24  C3  UNL     1      21.399   0.996  52.705  1.00  0.00     0.035 C 
BRANCH  24  25
HETATM   25  C2  UNL     1      20.264   0.192  52.109  1.00  0.00    -0.036 C 
HETATM   26  C1  UNL     1      19.126  -0.292  52.649  1.00  0.00     0.007 C 
ENDBRANCH  24  25
ENDBRANCH   1  24
BRANCH   8  27
HETATM   27  O2  UNL     1      23.481   5.973  50.073  1.00  0.00    -0.355 OA
HETATM   28  C11 UNL     1      24.644   6.435  50.723  1.00  0.00     0.210 C 
ENDBRANCH   8  27
TORSDOF 7
ENDMDL
MODEL 8
REMARK VINA RESULT:      -6.5      3.173      5.497
REMARK  7 active torsions:
REMARK  status: ('A' for Active; 'I' for Inactive)
REMARK    1  A    between atoms: C2_2  and  C3_3 
REMARK    2  A    between atoms: C3_3  and  C4_4 
REMARK    3  A    between atoms: C10_11  and  O2_12 
REMARK    4  A    between atoms: C13_15  and  C14_16 
REMARK    5  A    between atoms: C14_16  and  C15_17 
REMARK    6  A    between atoms: C17_20  and  N2_21 
REMARK    7  A    between atoms: C18_23  and  N4_24 
ROOT
HETATM    1  C4  UNL     1      21.735   1.261  52.712  1.00  0.00     0.019 C 
HETATM    2  C5  UNL     1      21.974  -0.146  52.333  1.00  0.00    -0.025 C 
HETATM    3  C6  UNL     1      22.639  -0.937  53.150  1.00  0.00    -0.030 C 
HETATM    4  C7  UNL     1      23.238  -0.629  54.495  1.00  0.00     0.030 C 
HETATM    5  O1  UNL     1      24.651  -0.892  54.264  1.00  0.00     0.000 OA
HETATM    6  C8  UNL     1      25.207  -0.007  53.280  1.00  0.00    -0.000 C 
HETATM    7  C9  UNL     1      26.060  -0.773  53.894  1.00  0.00     0.027 C 
HETATM    8  C10 UNL     1      24.870   1.017  52.311  1.00  0.00     0.075 C 
HETATM    9  C12 UNL     1      23.916   1.741  51.768  1.00  0.00     0.016 C 
HETATM   10  C13 UNL     1      22.486   2.095  51.696  1.00  0.00     0.023 C 
ENDROOT
BRANCH  10  11
HETATM   11  C14 UNL     1      22.262   3.567  51.879  1.00  0.00     0.053 C 
BRANCH  11  12
HETATM   12  C15 UNL     1      22.962   4.472  50.975  1.00  0.00     0.007 A 
HETATM   13  C16 UNL     1      22.834   4.321  49.588  1.00  0.00     0.147 A 
HETATM   14  N1  UNL     1      23.427   5.091  48.661  1.00  0.00    -0.075 NA
HETATM   15  C17 UNL     1      24.223   6.110  49.046  1.00  0.00     0.721 A 
HETATM   16  N3  UNL     1      24.395   6.318  50.361  1.00  0.00    -0.045 NA
HETATM   17  C18 UNL     1      23.793   5.534  51.270  1.00  0.00     0.148 A 
BRANCH  15  18
HETATM   18  N2  UNL     1      24.890   6.975  48.141  1.00  0.00    -0.231 N 
HETATM   19  H21 UNL     1      24.367   7.303  47.286  1.00  0.00     0.174 HD
HETATM   20  H22 UNL     1      25.882   7.271  48.342  1.00  0.00     0.174 HD
ENDBRANCH  15  18
BRANCH  17  21
HETATM   21  N4  UNL     1      24.070   5.844  52.623  1.00  0.00    -0.383 N 
HETATM   22  H23 UNL     1      23.899   5.589  53.609  1.00  0.00     0.157 HD
HETATM   23  H24 UNL     1      24.694   6.646  52.785  1.00  0.00     0.157 HD
ENDBRANCH  17  21
ENDBRANCH  11  12
ENDBRANCH  10  11
BRANCH   1  24
HETATM   24  C3  UNL     1      20.238   1.468  52.613  1.00  0.00     0.035 C 
BRANCH  24  25
HETATM   25  C2  UNL     1      19.625   0.480  51.647  1.00  0.00    -0.036 C 
HETATM   26  C1  UNL     1      18.638   0.608  50.735  1.00  0.00     0.007 C 
ENDBRANCH  24  25
ENDBRANCH   1  24
BRANCH   8  27
HETATM   27  O2  UNL     1      26.193   1.130  51.935  1.00  0.00    -0.355 OA
HETATM   28  C11 UNL     1      26.782   2.362  51.583  1.00  0.00     0.210 C 
ENDBRANCH   8  27
TORSDOF 7
ENDMDL
MODEL 9
REMARK VINA RESULT:      -6.4      6.897      9.547
REMARK  7 active torsions:
REMARK  status: ('A' for Active; 'I' for Inactive)
REMARK    1  A    between atoms: C2_2  and  C3_3 
REMARK    2  A    between atoms: C3_3  and  C4_4 
REMARK    3  A    between atoms: C10_11  and  O2_12 
REMARK    4  A    between atoms: C13_15  and  C14_16 
REMARK    5  A    between atoms: C14_16  and  C15_17 
REMARK    6  A    between atoms: C17_20  and  N2_21 
REMARK    7  A    between atoms: C18_23  and  N4_24 
ROOT
HETATM    1  C4  UNL     1      29.622   7.423  47.971  1.00  0.00     0.019 C 
HETATM    2  C5  UNL     1      28.509   7.715  47.046  1.00  0.00    -0.025 C 
HETATM    3  C6  UNL     1      27.371   8.180  47.522  1.00  0.00    -0.030 C 
HETATM    4  C7  UNL     1      26.988   8.482  48.945  1.00  0.00     0.030 C 
HETATM    5  O1  UNL     1      25.864   7.580  49.153  1.00  0.00     0.000 OA
HETATM    6  C8  UNL     1      26.255   6.203  49.047  1.00  0.00    -0.000 C 
HETATM    7  C9  UNL     1      25.036   6.413  49.447  1.00  0.00     0.027 C 
HETATM    8  C10 UNL     1      27.355   5.328  48.692  1.00  0.00     0.075 C 
HETATM    9  C12 UNL     1      28.604   5.246  48.288  1.00  0.00     0.016 C 
HETATM   10  C13 UNL     1      29.847   5.928  47.885  1.00  0.00     0.023 C 
ENDROOT
BRANCH  10  11
HETATM   11  C14 UNL     1      31.025   5.475  48.696  1.00  0.00     0.053 C 
BRANCH  11  12
HETATM   12  C15 UNL     1      32.173   4.937  47.973  1.00  0.00     0.007 A 
HETATM   13  C16 UNL     1      32.027   3.801  47.166  1.00  0.00     0.147 A 
HETATM   14  N1  UNL     1      33.007   3.218  46.455  1.00  0.00    -0.075 NA
HETATM   15  C17 UNL     1      34.253   3.731  46.487  1.00  0.00     0.721 A 
HETATM   16  N3  UNL     1      34.472   4.822  47.240  1.00  0.00    -0.045 NA
HETATM   17  C18 UNL     1      33.477   5.386  47.943  1.00  0.00     0.148 A 
BRANCH  15  18
HETATM   18  N2  UNL     1      35.350   3.186  45.770  1.00  0.00    -0.231 N 
HETATM   19  H21 UNL     1      36.297   3.634  45.888  1.00  0.00     0.174 HD
HETATM   20  H22 UNL     1      35.196   2.352  45.144  1.00  0.00     0.174 HD
ENDBRANCH  15  18
BRANCH  17  21
HETATM   21  N4  UNL     1      33.840   6.518  48.713  1.00  0.00    -0.383 N 
HETATM   22  H23 UNL     1      33.854   6.940  49.655  1.00  0.00     0.157 HD
HETATM   23  H24 UNL     1      34.278   7.294  48.198  1.00  0.00     0.157 HD
ENDBRANCH  17  21
ENDBRANCH  11  12
ENDBRANCH  10  11
BRANCH   1  24
HETATM   24  C3  UNL     1      30.811   8.201  47.446  1.00  0.00     0.035 C 
BRANCH  24  25
HETATM   25  C2  UNL     1      31.274   9.220  48.464  1.00  0.00    -0.036 C 
HETATM   26  C1  UNL     1      30.636   9.815  49.494  1.00  0.00     0.007 C 
ENDBRANCH  24  25
ENDBRANCH   1  24
BRANCH   8  27
HETATM   27  O2  UNL     1      26.582   4.214  48.947  1.00  0.00    -0.355 OA
HETATM   28  C11 UNL     1      26.753   3.414  50.096  1.00  0.00     0.210 C 
ENDBRANCH   8  27
TORSDOF 7
ENDMDL
