MODEL 1
REMARK VINA RESULT:      -8.0      0.000      0.000
REMARK  6 active torsions:
REMARK  status: ('A' for Active; 'I' for Inactive)
REMARK    1  A    between atoms: C1_2  and  C2_3 
REMARK    2  A    between atoms: C1_2  and  C9_11 
REMARK    3  A    between atoms: C2_3  and  N1_4 
REMARK    4  A    between atoms: C12_14  and  O2_15 
REMARK    5  A    between atoms: O2_15  and  C13_16 
REMARK    6  A    between atoms: C13_16  and  C14_17 
ROOT
HETATM    1  C9  UNL     1      23.136  -0.539  53.806  1.00  0.00     0.011 A 
HETATM    2  C10 UNL     1      22.408   0.039  52.774  1.00  0.00     0.018 A 
HETATM    3  C11 UNL     1      21.049  -0.098  52.640  1.00  0.00     0.038 A 
HETATM    4  C12 UNL     1      20.334  -0.832  53.544  1.00  0.00     0.069 A 
HETATM    5  C20 UNL     1      21.021  -1.430  54.596  1.00  0.00     0.038 A 
HETATM    6  C21 UNL     1      22.371  -1.273  54.699  1.00  0.00     0.018 A 
ENDROOT
BRANCH   1   7
HETATM    7  C1  UNL     1      24.583  -0.394  53.958  1.00  0.00     0.176 C 
HETATM    8  O1  UNL     1      25.137  -1.034  54.904  1.00  0.00    -0.291 OA
BRANCH   7   9
HETATM    9  C2  UNL     1      25.253   0.487  52.989  1.00  0.00     0.200 C 
BRANCH   9  10
HETATM   10  N1  UNL     1      26.620   0.657  53.365  1.00  0.00    -0.405 N 
HETATM   11  C3  UNL     1      27.574  -0.118  52.652  1.00  0.00     0.117 C 
HETATM   12  C4  UNL     1      28.610  -0.618  53.614  1.00  0.00     0.019 C 
HETATM   13  C5  UNL     1      28.824   0.297  54.799  1.00  0.00     0.002 C 
HETATM   14  C6  UNL     1      29.345   1.658  54.402  1.00  0.00     0.002 C 
HETATM   15  C7  UNL     1      28.413   2.359  53.438  1.00  0.00     0.019 C 
HETATM   16  C8  UNL     1      26.983   2.012  53.655  1.00  0.00     0.117 C 
ENDBRANCH   9  10
ENDBRANCH   7   9
ENDBRANCH   1   7
BRANCH   4  17
HETATM   17  O2  UNL     1      18.961  -1.017  53.477  1.00  0.00    -0.347 OA
BRANCH  17  18
HETATM   18  C13 UNL     1      18.473  -2.301  53.874  1.00  0.00     0.214 C 
BRANCH  18  19
HETATM   19  C14 UNL     1      17.181  -2.514  53.182  1.00  0.00    -0.034 A 
HETATM   20  C15 UNL     1      16.442  -3.668  53.147  1.00  0.00     0.009 A 
HETATM   21  C16 UNL     1      15.248  -3.730  52.461  1.00  0.00     0.001 A 
HETATM   22  C17 UNL     1      14.724  -2.640  51.768  1.00  0.00     0.000 A 
HETATM   23  C18 UNL     1      15.461  -1.483  51.800  1.00  0.00     0.001 A 
HETATM   24  C19 UNL     1      16.647  -1.429  52.485  1.00  0.00     0.009 A 
ENDBRANCH  18  19
ENDBRANCH  17  18
ENDBRANCH   4  17
TORSDOF 6
ENDMDL
MODEL 2
REMARK VINA RESULT:      -8.0      3.748      8.981
REMARK  6 active torsions:
REMARK  status: ('A' for Active; 'I' for Inactive)
REMARK    1  A    between atoms: C1_2  and  C2_3 
REMARK    2  A    between atoms: C1_2  and  C9_11 
REMARK    3  A    between atoms: C2_3  and  N1_4 
REMARK    4  A    between atoms: C12_14  and  O2_15 
REMARK    5  A    between atoms: O2_15  and  C13_16 
REMARK    6  A    between atoms: C13_16  and  C14_17 
ROOT
HETATM    1  C9  UNL     1      25.531   0.222  53.727  1.00  0.00     0.011 A 
HETATM    2  C10 UNL     1      26.180  -0.238  52.588  1.00  0.00     0.018 A 
HETATM    3  C11 UNL     1      26.645   0.591  51.597  1.00  0.00     0.038 A 
HETATM    4  C12 UNL     1      26.482   1.945  51.692  1.00  0.00     0.069 A 
HETATM    5  C20 UNL     1      25.838   2.452  52.817  1.00  0.00     0.038 A 
HETATM    6  C21 UNL     1      25.389   1.600  53.782  1.00  0.00     0.018 A 
ENDROOT
BRANCH   1   7
HETATM    7  C1  UNL     1      25.038  -0.653  54.788  1.00  0.00     0.176 C 
HETATM    8  O1  UNL     1      25.704  -0.693  55.868  1.00  0.00    -0.291 OA
BRANCH   7   9
HETATM    9  C2  UNL     1      23.808  -1.404  54.492  1.00  0.00     0.200 C 
BRANCH   9  10
HETATM   10  N1  UNL     1      22.847  -0.530  53.897  1.00  0.00    -0.405 N 
HETATM   11  C3  UNL     1      22.468  -0.821  52.560  1.00  0.00     0.117 C 
HETATM   12  C4  UNL     1      22.346   0.465  51.798  1.00  0.00     0.019 C 
HETATM   13  C5  UNL     1      21.954   1.642  52.662  1.00  0.00     0.002 C 
HETATM   14  C6  UNL     1      20.590   1.479  53.289  1.00  0.00     0.002 C 
HETATM   15  C7  UNL     1      20.507   0.231  54.142  1.00  0.00     0.019 C 
HETATM   16  C8  UNL     1      21.801  -0.119  54.786  1.00  0.00     0.117 C 
ENDBRANCH   9  10
ENDBRANCH   7   9
ENDBRANCH   1   7
BRANCH   4  17
HETATM   17  O2  UNL     1      26.923   2.846  50.736  1.00  0.00    -0.347 OA
BRANCH  17  18
HETATM   18  C13 UNL     1      25.974   3.226  49.735  1.00  0.00     0.214 C 
BRANCH  18  19
HETATM   19  C14 UNL     1      26.401   4.538  49.199  1.00  0.00    -0.034 A 
HETATM   20  C15 UNL     1      25.637   5.669  49.073  1.00  0.00     0.009 A 
HETATM   21  C16 UNL     1      26.164   6.832  48.553  1.00  0.00     0.001 A 
HETATM   22  C17 UNL     1      27.488   6.931  48.127  1.00  0.00     0.000 A 
HETATM   23  C18 UNL     1      28.256   5.801  48.251  1.00  0.00     0.001 A 
HETATM   24  C19 UNL     1      27.726   4.649  48.770  1.00  0.00     0.009 A 
ENDBRANCH  18  19
ENDBRANCH  17  18
ENDBRANCH   4  17
TORSDOF 6
ENDMDL
MODEL 3
REMARK VINA RESULT:      -8.0      4.237      9.477
REMARK  6 active torsions:
REMARK  status: ('A' for Active; 'I' for Inactive)
REMARK    1  A    between atoms: C1_2  and  C2_3 
REMARK    2  A    between atoms: C1_2  and  C9_11 
REMARK    3  A    between atoms: C2_3  and  N1_4 
REMARK    4  A    between atoms: C12_14  and  O2_15 
REMARK    5  A    between atoms: O2_15  and  C13_16 
REMARK    6  A    between atoms: C13_16  and  C14_17 
ROOT
HETATM    1  C9  UNL     1      25.774   1.599  52.818  1.00  0.00     0.011 A 
HETATM    2  C10 UNL     1      24.786   2.567  52.688  1.00  0.00     0.018 A 
HETATM    3  C11 UNL     1      24.629   3.338  51.563  1.00  0.00     0.038 A 
HETATM    4  C12 UNL     1      25.464   3.182  50.493  1.00  0.00     0.069 A 
HETATM    5  C20 UNL     1      26.470   2.224  50.577  1.00  0.00     0.038 A 
HETATM    6  C21 UNL     1      26.597   1.474  51.709  1.00  0.00     0.018 A 
ENDROOT
BRANCH   1   7
HETATM    7  C1  UNL     1      25.945   0.771  54.010  1.00  0.00     0.176 C 
HETATM    8  O1  UNL     1      26.535   1.295  55.005  1.00  0.00    -0.291 OA
BRANCH   7   9
HETATM    9  C2  UNL     1      25.409  -0.596  53.933  1.00  0.00     0.200 C 
BRANCH   9  10
HETATM   10  N1  UNL     1      23.981  -0.549  53.921  1.00  0.00    -0.405 N 
HETATM   11  C3  UNL     1      23.347  -0.895  52.698  1.00  0.00     0.117 C 
HETATM   12  C4  UNL     1      22.193   0.035  52.468  1.00  0.00     0.019 C 
HETATM   13  C5  UNL     1      21.574   0.553  53.747  1.00  0.00     0.002 C 
HETATM   14  C6  UNL     1      20.973  -0.543  54.593  1.00  0.00     0.002 C 
HETATM   15  C7  UNL     1      21.998  -1.592  54.968  1.00  0.00     0.019 C 
HETATM   16  C8  UNL     1      23.369  -1.035  55.121  1.00  0.00     0.117 C 
ENDBRANCH   9  10
ENDBRANCH   7   9
ENDBRANCH   1   7
BRANCH   4  17
HETATM   17  O2  UNL     1      25.369   3.921  49.323  1.00  0.00    -0.347 OA
BRANCH  17  18
HETATM   18  C13 UNL     1      25.463   5.342  49.460  1.00  0.00     0.214 C 
BRANCH  18  19
HETATM   19  C14 UNL     1      26.717   5.767  48.798  1.00  0.00    -0.034 A 
HETATM   20  C15 UNL     1      27.881   5.051  48.693  1.00  0.00     0.009 A 
HETATM   21  C16 UNL     1      28.982   5.570  48.045  1.00  0.00     0.001 A 
HETATM   22  C17 UNL     1      28.982   6.837  47.463  1.00  0.00     0.000 A 
HETATM   23  C18 UNL     1      27.818   7.557  47.566  1.00  0.00     0.001 A 
HETATM   24  C19 UNL     1      26.728   7.034  48.211  1.00  0.00     0.009 A 
ENDBRANCH  18  19
ENDBRANCH  17  18
ENDBRANCH   4  17
TORSDOF 6
ENDMDL
MODEL 4
REMARK VINA RESULT:      -7.9      1.474      1.932
REMARK  6 active torsions:
REMARK  status: ('A' for Active; 'I' for Inactive)
REMARK    1  A    between atoms: C1_2  and  C2_3 
REMARK    2  A    between atoms: C1_2  and  C9_11 
REMARK    3  A    between atoms: C2_3  and  N1_4 
REMARK    4  A    between atoms: C12_14  and  O2_15 
REMARK    5  A    between atoms: O2_15  and  C13_16 
REMARK    6  A    between atoms: C13_16  and  C14_17 
ROOT
HETATM    1  C9  UNL     1      23.103   1.303  52.966  1.00  0.00     0.011 A 
HETATM    2  C10 UNL     1      23.284   0.039  53.512  1.00  0.00     0.018 A 
HETATM    3  C11 UNL     1      22.252  -0.835  53.750  1.00  0.00     0.038 A 
HETATM    4  C12 UNL     1      20.965  -0.486  53.452  1.00  0.00     0.069 A 
HETATM    5  C20 UNL     1      20.735   0.772  52.903  1.00  0.00     0.038 A 
HETATM    6  C21 UNL     1      21.783   1.615  52.679  1.00  0.00     0.018 A 
ENDROOT
BRANCH   1   7
HETATM    7  C1  UNL     1      24.197   2.237  52.705  1.00  0.00     0.176 C 
HETATM    8  O1  UNL     1      24.134   3.379  53.257  1.00  0.00    -0.291 OA
BRANCH   7   9
HETATM    9  C2  UNL     1      25.268   1.753  51.821  1.00  0.00     0.200 C 
BRANCH   9  10
HETATM   10  N1  UNL     1      26.330   1.213  52.611  1.00  0.00    -0.405 N 
HETATM   11  C3  UNL     1      26.845  -0.047  52.204  1.00  0.00     0.117 C 
HETATM   12  C4  UNL     1      27.112  -0.879  53.422  1.00  0.00     0.019 C 
HETATM   13  C5  UNL     1      27.457  -0.063  54.646  1.00  0.00     0.002 C 
HETATM   14  C6  UNL     1      28.732   0.730  54.482  1.00  0.00     0.002 C 
HETATM   15  C7  UNL     1      28.659   1.674  53.301  1.00  0.00     0.019 C 
HETATM   16  C8  UNL     1      27.286   2.186  53.049  1.00  0.00     0.117 C 
ENDBRANCH   9  10
ENDBRANCH   7   9
ENDBRANCH   1   7
BRANCH   4  17
HETATM   17  O2  UNL     1      19.872  -1.311  53.663  1.00  0.00    -0.347 OA
BRANCH  17  18
HETATM   18  C13 UNL     1      18.598  -0.790  53.273  1.00  0.00     0.214 C 
BRANCH  18  19
HETATM   19  C14 UNL     1      17.656  -1.930  53.210  1.00  0.00    -0.034 A 
HETATM   20  C15 UNL     1      17.821  -3.173  53.763  1.00  0.00     0.009 A 
HETATM   21  C16 UNL     1      16.858  -4.150  53.627  1.00  0.00     0.001 A 
HETATM   22  C17 UNL     1      15.670  -3.939  52.928  1.00  0.00     0.000 A 
HETATM   23  C18 UNL     1      15.500  -2.696  52.372  1.00  0.00     0.001 A 
HETATM   24  C19 UNL     1      16.462  -1.731  52.512  1.00  0.00     0.009 A 
ENDBRANCH  18  19
ENDBRANCH  17  18
ENDBRANCH   4  17
TORSDOF 6
ENDMDL
MODEL 5
REMARK VINA RESULT:      -7.8      4.880      7.650
REMARK  6 active torsions:
REMARK  status: ('A' for Active; 'I' for Inactive)
REMARK    1  A    between atoms: C1_2  and  C2_3 
REMARK    2  A    between atoms: C1_2  and  C9_11 
REMARK    3  A    between atoms: C2_3  and  N1_4 
REMARK    4  A    between atoms: C12_14  and  O2_15 
REMARK    5  A    between atoms: O2_15  and  C13_16 
REMARK    6  A    between atoms: C13_16  and  C14_17 
ROOT
HETATM    1  C9  UNL     1      24.234   1.248  53.002  1.00  0.00     0.011 A 
HETATM    2  C10 UNL     1      23.403   1.121  51.897  1.00  0.00     0.018 A 
HETATM    3  C11 UNL     1      23.009   2.185  51.123  1.00  0.00     0.038 A 
HETATM    4  C12 UNL     1      23.430   3.451  51.419  1.00  0.00     0.069 A 
HETATM    5  C20 UNL     1      24.265   3.627  52.518  1.00  0.00     0.038 A 
HETATM    6  C21 UNL     1      24.638   2.548  53.265  1.00  0.00     0.018 A 
ENDROOT
BRANCH   1   7
HETATM    7  C1  UNL     1      24.662   0.120  53.828  1.00  0.00     0.176 C 
HETATM    8  O1  UNL     1      23.937  -0.922  53.815  1.00  0.00    -0.291 OA
BRANCH   7   9
HETATM    9  C2  UNL     1      25.903   0.310  54.595  1.00  0.00     0.200 C 
BRANCH   9  10
HETATM   10  N1  UNL     1      26.957  -0.441  53.991  1.00  0.00    -0.405 N 
HETATM   11  C3  UNL     1      26.849  -0.674  52.594  1.00  0.00     0.117 C 
HETATM   12  C4  UNL     1      27.287  -2.077  52.300  1.00  0.00     0.019 C 
HETATM   13  C5  UNL     1      28.317  -2.603  53.274  1.00  0.00     0.002 C 
HETATM   14  C6  UNL     1      29.609  -1.821  53.239  1.00  0.00     0.002 C 
HETATM   15  C7  UNL     1      29.388  -0.355  53.546  1.00  0.00     0.019 C 
HETATM   16  C8  UNL     1      28.262  -0.121  54.489  1.00  0.00     0.117 C 
ENDBRANCH   9  10
ENDBRANCH   7   9
ENDBRANCH   1   7
BRANCH   4  17
HETATM   17  O2  UNL     1      23.077   4.574  50.687  1.00  0.00    -0.347 OA
BRANCH  17  18
HETATM   18  C13 UNL     1      23.327   4.520  49.279  1.00  0.00     0.214 C 
BRANCH  18  19
HETATM   19  C14 UNL     1      24.755   4.850  49.072  1.00  0.00    -0.034 A 
HETATM   20  C15 UNL     1      25.831   4.020  49.251  1.00  0.00     0.009 A 
HETATM   21  C16 UNL     1      27.118   4.459  49.021  1.00  0.00     0.001 A 
HETATM   22  C17 UNL     1      27.403   5.756  48.597  1.00  0.00     0.000 A 
HETATM   23  C18 UNL     1      26.329   6.590  48.417  1.00  0.00     0.001 A 
HETATM   24  C19 UNL     1      25.053   6.147  48.648  1.00  0.00     0.009 A 
ENDBRANCH  18  19
ENDBRANCH  17  18
ENDBRANCH   4  17
TORSDOF 6
ENDMDL
MODEL 6
REMARK VINA RESULT:      -7.8      4.956      8.157
REMARK  6 active torsions:
REMARK  status: ('A' for Active; 'I' for Inactive)
REMARK    1  A    between atoms: C1_2  and  C2_3 
REMARK    2  A    between atoms: C1_2  and  C9_11 
REMARK    3  A    between atoms: C2_3  and  N1_4 
REMARK    4  A    between atoms: C12_14  and  O2_15 
REMARK    5  A    between atoms: O2_15  and  C13_16 
REMARK    6  A    between atoms: C13_16  and  C14_17 
ROOT
HETATM    1  C9  UNL     1      22.846   3.592  51.884  1.00  0.00     0.011 A 
HETATM    2  C10 UNL     1      23.904   3.531  52.782  1.00  0.00     0.018 A 
HETATM    3  C11 UNL     1      24.509   2.356  53.157  1.00  0.00     0.038 A 
HETATM    4  C12 UNL     1      24.082   1.163  52.646  1.00  0.00     0.069 A 
HETATM    5  C20 UNL     1      23.025   1.175  51.741  1.00  0.00     0.038 A 
HETATM    6  C21 UNL     1      22.447   2.359  51.391  1.00  0.00     0.018 A 
ENDROOT
BRANCH   1   7
HETATM    7  C1  UNL     1      22.200   4.838  51.476  1.00  0.00     0.176 C 
HETATM    8  O1  UNL     1      20.931   4.877  51.515  1.00  0.00    -0.291 OA
BRANCH   7   9
HETATM    9  C2  UNL     1      23.095   5.929  51.061  1.00  0.00     0.200 C 
BRANCH   9  10
HETATM   10  N1  UNL     1      24.171   5.395  50.288  1.00  0.00    -0.405 N 
HETATM   11  C3  UNL     1      23.822   4.783  49.055  1.00  0.00     0.117 C 
HETATM   12  C4  UNL     1      24.652   3.548  48.872  1.00  0.00     0.019 C 
HETATM   13  C5  UNL     1      26.004   3.626  49.545  1.00  0.00     0.002 C 
HETATM   14  C6  UNL     1      26.878   4.719  48.978  1.00  0.00     0.002 C 
HETATM   15  C7  UNL     1      26.225   6.080  49.092  1.00  0.00     0.019 C 
HETATM   16  C8  UNL     1      25.352   6.206  50.290  1.00  0.00     0.117 C 
ENDBRANCH   9  10
ENDBRANCH   7   9
ENDBRANCH   1   7
BRANCH   4  17
HETATM   17  O2  UNL     1      24.642  -0.062  52.974  1.00  0.00    -0.347 OA
BRANCH  17  18
HETATM   18  C13 UNL     1      25.292  -0.145  54.245  1.00  0.00     0.214 C 
BRANCH  18  19
HETATM   19  C14 UNL     1      26.720  -0.442  53.992  1.00  0.00    -0.034 A 
HETATM   20  C15 UNL     1      27.232  -1.335  53.088  1.00  0.00     0.009 A 
HETATM   21  C16 UNL     1      28.592  -1.515  52.953  1.00  0.00     0.001 A 
HETATM   22  C17 UNL     1      29.521  -0.810  53.717  1.00  0.00     0.000 A 
HETATM   23  C18 UNL     1      29.013   0.086  54.624  1.00  0.00     0.001 A 
HETATM   24  C19 UNL     1      27.660   0.259  54.751  1.00  0.00     0.009 A 
ENDBRANCH  18  19
ENDBRANCH  17  18
ENDBRANCH   4  17
TORSDOF 6
ENDMDL
MODEL 7
REMARK VINA RESULT:      -7.8      3.728      8.784
REMARK  6 active torsions:
REMARK  status: ('A' for Active; 'I' for Inactive)
REMARK    1  A    between atoms: C1_2  and  C2_3 
REMARK    2  A    between atoms: C1_2  and  C9_11 
REMARK    3  A    between atoms: C2_3  and  N1_4 
REMARK    4  A    between atoms: C12_14  and  O2_15 
REMARK    5  A    between atoms: O2_15  and  C13_16 
REMARK    6  A    between atoms: C13_16  and  C14_17 
ROOT
HETATM    1  C9  UNL     1      21.759   1.374  52.576  1.00  0.00     0.011 A 
HETATM    2  C10 UNL     1      23.021   1.934  52.424  1.00  0.00     0.018 A 
HETATM    3  C11 UNL     1      24.178   1.304  52.810  1.00  0.00     0.038 A 
HETATM    4  C12 UNL     1      24.135   0.062  53.378  1.00  0.00     0.069 A 
HETATM    5  C20 UNL     1      22.891  -0.540  53.550  1.00  0.00     0.038 A 
HETATM    6  C21 UNL     1      21.762   0.114  53.155  1.00  0.00     0.018 A 
ENDROOT
BRANCH   1   7
HETATM    7  C1  UNL     1      20.523   2.037  52.164  1.00  0.00     0.176 C 
HETATM    8  O1  UNL     1      20.076   2.957  52.915  1.00  0.00    -0.291 OA
BRANCH   7   9
HETATM    9  C2  UNL     1      19.921   1.565  50.908  1.00  0.00     0.200 C 
BRANCH   9  10
HETATM   10  N1  UNL     1      20.577   2.185  49.801  1.00  0.00    -0.405 N 
HETATM   11  C3  UNL     1      21.157   1.315  48.839  1.00  0.00     0.117 C 
HETATM   12  C4  UNL     1      22.478   1.877  48.408  1.00  0.00     0.019 C 
HETATM   13  C5  UNL     1      22.545   3.386  48.487  1.00  0.00     0.002 C 
HETATM   14  C6  UNL     1      21.560   4.065  47.564  1.00  0.00     0.002 C 
HETATM   15  C7  UNL     1      20.135   3.649  47.857  1.00  0.00     0.019 C 
HETATM   16  C8  UNL     1      19.902   3.343  49.295  1.00  0.00     0.117 C 
ENDBRANCH   9  10
ENDBRANCH   7   9
ENDBRANCH   1   7
BRANCH   4  17
HETATM   17  O2  UNL     1      25.257  -0.639  53.792  1.00  0.00    -0.347 OA
BRANCH  17  18
HETATM   18  C13 UNL     1      26.057  -1.224  52.761  1.00  0.00     0.214 C 
BRANCH  18  19
HETATM   19  C14 UNL     1      27.471  -0.909  53.067  1.00  0.00    -0.034 A 
HETATM   20  C15 UNL     1      28.509  -1.796  53.188  1.00  0.00     0.009 A 
HETATM   21  C16 UNL     1      29.786  -1.365  53.479  1.00  0.00     0.001 A 
HETATM   22  C17 UNL     1      30.099  -0.020  53.666  1.00  0.00     0.000 A 
HETATM   23  C18 UNL     1      29.062   0.872  53.546  1.00  0.00     0.001 A 
HETATM   24  C19 UNL     1      27.796   0.436  53.256  1.00  0.00     0.009 A 
ENDBRANCH  18  19
ENDBRANCH  17  18
ENDBRANCH   4  17
TORSDOF 6
ENDMDL
MODEL 8
REMARK VINA RESULT:      -7.7      4.326      8.487
REMARK  6 active torsions:
REMARK  status: ('A' for Active; 'I' for Inactive)
REMARK    1  A    between atoms: C1_2  and  C2_3 
REMARK    2  A    between atoms: C1_2  and  C9_11 
REMARK    3  A    between atoms: C2_3  and  N1_4 
REMARK    4  A    between atoms: C12_14  and  O2_15 
REMARK    5  A    between atoms: O2_15  and  C13_16 
REMARK    6  A    between atoms: C13_16  and  C14_17 
ROOT
HETATM    1  C9  UNL     1      23.129   1.390  52.239  1.00  0.00     0.011 A 
HETATM    2  C10 UNL     1      22.686   1.347  50.923  1.00  0.00     0.018 A 
HETATM    3  C11 UNL     1      22.999   2.303  49.989  1.00  0.00     0.038 A 
HETATM    4  C12 UNL     1      23.784   3.370  50.325  1.00  0.00     0.069 A 
HETATM    5  C20 UNL     1      24.252   3.456  51.633  1.00  0.00     0.038 A 
HETATM    6  C21 UNL     1      23.921   2.488  52.536  1.00  0.00     0.018 A 
ENDROOT
BRANCH   1   7
HETATM    7  C1  UNL     1      22.803   0.374  53.237  1.00  0.00     0.176 C 
HETATM    8  O1  UNL     1      21.860   0.632  54.047  1.00  0.00    -0.291 OA
BRANCH   7   9
HETATM    9  C2  UNL     1      23.609  -0.856  53.199  1.00  0.00     0.200 C 
BRANCH   9  10
HETATM   10  N1  UNL     1      24.980  -0.536  53.440  1.00  0.00    -0.405 N 
HETATM   11  C3  UNL     1      25.428  -0.638  54.784  1.00  0.00     0.117 C 
HETATM   12  C4  UNL     1      26.343   0.513  55.081  1.00  0.00     0.019 C 
HETATM   13  C5  UNL     1      27.088   1.018  53.866  1.00  0.00     0.002 C 
HETATM   14  C6  UNL     1      28.015  -0.018  53.275  1.00  0.00     0.002 C 
HETATM   15  C7  UNL     1      27.271  -1.274  52.872  1.00  0.00     0.019 C 
HETATM   16  C8  UNL     1      25.877  -1.007  52.427  1.00  0.00     0.117 C 
ENDBRANCH   9  10
ENDBRANCH   7   9
ENDBRANCH   1   7
BRANCH   4  17
HETATM   17  O2  UNL     1      24.144   4.374  49.441  1.00  0.00    -0.347 OA
BRANCH  17  18
HETATM   18  C13 UNL     1      24.664   5.575  50.019  1.00  0.00     0.214 C 
BRANCH  18  19
HETATM   19  C14 UNL     1      25.957   5.860  49.357  1.00  0.00    -0.034 A 
HETATM   20  C15 UNL     1      26.426   7.081  48.949  1.00  0.00     0.009 A 
HETATM   21  C16 UNL     1      27.657   7.206  48.340  1.00  0.00     0.001 A 
HETATM   22  C17 UNL     1      28.490   6.115  48.102  1.00  0.00     0.000 A 
HETATM   23  C18 UNL     1      28.024   4.890  48.509  1.00  0.00     0.001 A 
HETATM   24  C19 UNL     1      26.801   4.774  49.114  1.00  0.00     0.009 A 
ENDBRANCH  18  19
ENDBRANCH  17  18
ENDBRANCH   4  17
TORSDOF 6
ENDMDL
MODEL 9
REMARK VINA RESULT:      -7.7      1.761      2.945
REMARK  6 active torsions:
REMARK  status: ('A' for Active; 'I' for Inactive)
REMARK    1  A    between atoms: C1_2  and  C2_3 
REMARK    2  A    between atoms: C1_2  and  C9_11 
REMARK    3  A    between atoms: C2_3  and  N1_4 
REMARK    4  A    between atoms: C12_14  and  O2_15 
REMARK    5  A    between atoms: O2_15  and  C13_16 
REMARK    6  A    between atoms: C13_16  and  C14_17 
ROOT
HETATM    1  C9  UNL     1      24.231  -0.649  53.950  1.00  0.00     0.011 A 
HETATM    2  C10 UNL     1      23.692  -1.227  55.093  1.00  0.00     0.018 A 
HETATM    3  C11 UNL     1      22.354  -1.494  55.244  1.00  0.00     0.038 A 
HETATM    4  C12 UNL     1      21.469  -1.193  54.247  1.00  0.00     0.069 A 
HETATM    5  C20 UNL     1      21.964  -0.613  53.083  1.00  0.00     0.038 A 
HETATM    6  C21 UNL     1      23.299  -0.361  52.965  1.00  0.00     0.018 A 
ENDROOT
BRANCH   1   7
HETATM    7  C1  UNL     1      25.654  -0.365  53.780  1.00  0.00     0.176 C 
HETATM    8  O1  UNL     1      26.415  -1.343  53.499  1.00  0.00    -0.291 OA
BRANCH   7   9
HETATM    9  C2  UNL     1      26.063   1.037  53.951  1.00  0.00     0.200 C 
BRANCH   9  10
HETATM   10  N1  UNL     1      25.625   1.802  52.826  1.00  0.00    -0.405 N 
HETATM   11  C3  UNL     1      24.940   3.013  53.112  1.00  0.00     0.117 C 
HETATM   12  C4  UNL     1      23.798   3.164  52.152  1.00  0.00     0.019 C 
HETATM   13  C5  UNL     1      24.045   2.505  50.814  1.00  0.00     0.002 C 
HETATM   14  C6  UNL     1      25.208   3.113  50.067  1.00  0.00     0.002 C 
HETATM   15  C7  UNL     1      26.492   3.035  50.865  1.00  0.00     0.019 C 
HETATM   16  C8  UNL     1      26.560   1.834  51.742  1.00  0.00     0.117 C 
ENDBRANCH   9  10
ENDBRANCH   7   9
ENDBRANCH   1   7
BRANCH   4  17
HETATM   17  O2  UNL     1      20.106  -1.433  54.324  1.00  0.00    -0.347 OA
BRANCH  17  18
HETATM   18  C13 UNL     1      19.291  -0.786  53.343  1.00  0.00     0.214 C 
BRANCH  18  19
HETATM   19  C14 UNL     1      18.085  -1.623  53.151  1.00  0.00    -0.034 A 
HETATM   20  C15 UNL     1      17.864  -2.882  53.645  1.00  0.00     0.009 A 
HETATM   21  C16 UNL     1      16.687  -3.553  53.388  1.00  0.00     0.001 A 
HETATM   22  C17 UNL     1      15.662  -3.003  52.620  1.00  0.00     0.000 A 
HETATM   23  C18 UNL     1      15.879  -1.742  52.123  1.00  0.00     0.001 A 
HETATM   24  C19 UNL     1      17.051  -1.081  52.383  1.00  0.00     0.009 A 
ENDBRANCH  18  19
ENDBRANCH  17  18
ENDBRANCH   4  17
TORSDOF 6
ENDMDL
