MODEL 1
REMARK VINA RESULT:      -8.3      0.000      0.000
REMARK  5 active torsions:
REMARK  status: ('A' for Active; 'I' for Inactive)
REMARK    1  A    between atoms: C2_2  and  C3_3 
REMARK    2  A    between atoms: C4_4  and  N1_5 
REMARK       I    between atoms: N1_5  and  C5_6 
REMARK    3  A    between atoms: C5_6  and  C6_8 
REMARK    4  A    between atoms: C14_19  and  N4_20 
REMARK    5  A    between atoms: N4_20  and  C15_21 
ROOT
HETATM    1  C6  UNL     1      18.339   0.334  51.281  1.00  0.00     0.012 C 
HETATM    2  C7  UNL     1      17.344  -0.151  50.812  1.00  0.00     0.015 C 
HETATM    3 CL1  UNL     1      15.901  -0.836  50.120  1.00  0.00    -0.022 Cl
ENDROOT
BRANCH   1   4
HETATM    4  C5  UNL     1      19.527   0.942  51.847  1.00  0.00     0.301 C 
HETATM    5  N1  UNL     1      20.689   0.121  51.843  1.00  0.00    -0.319 N 
HETATM    6  H5  UNL     1      20.675  -0.866  51.451  1.00  0.00     0.169 HD
HETATM    7  O1  UNL     1      19.530   2.117  52.312  1.00  0.00    -0.258 OA
BRANCH   5   8
HETATM    8  C4  UNL     1      22.029   0.350  52.303  1.00  0.00     0.027 A 
HETATM    9  C3  UNL     1      22.673  -0.849  52.908  1.00  0.00     0.110 A 
HETATM   10  C10 UNL     1      24.006  -0.326  53.278  1.00  0.00     0.060 A 
HETATM   11  C9  UNL     1      24.073   1.004  52.913  1.00  0.00     0.020 A 
HETATM   12  N2  UNL     1      25.069  -0.891  53.862  1.00  0.00    -0.262 NA
HETATM   13  C8  UNL     1      22.806   1.421  52.292  1.00  0.00     0.042 A 
HETATM   14  C14 UNL     1      25.204   1.787  53.127  1.00  0.00     0.067 A 
HETATM   15  C12 UNL     1      26.281   1.137  53.741  1.00  0.00     0.089 A 
HETATM   16  C11 UNL     1      26.216  -0.191  54.107  1.00  0.00     0.142 A 
HETATM   17  C13 UNL     1      27.462   1.922  53.974  1.00  0.00     0.103 C 
HETATM   18  N3  UNL     1      28.414   2.568  54.161  1.00  0.00    -0.191 NA
BRANCH   9  19
HETATM   19  C2  UNL     1      21.900  -1.418  54.011  1.00  0.00    -0.020 C 
HETATM   20  C1  UNL     1      21.542  -0.603  54.995  1.00  0.00     0.008 C 
ENDBRANCH   9  19
BRANCH  14  21
HETATM   21  N4  UNL     1      25.237   3.146  52.739  1.00  0.00    -0.354 N 
HETATM   22  H8  UNL     1      25.112   3.789  53.562  1.00  0.00     0.166 HD
BRANCH  21  23
HETATM   23  C15 UNL     1      25.414   3.602  51.416  1.00  0.00     0.033 A 
HETATM   24  C16 UNL     1      26.509   3.142  50.714  1.00  0.00     0.029 A 
HETATM   25  C17 UNL     1      26.692   3.581  49.419  1.00  0.00     0.004 A 
HETATM   26  C18 UNL     1      25.762   4.466  48.889  1.00  0.00     0.019 A 
HETATM   27  C19 UNL     1      24.666   4.923  49.600  1.00  0.00     0.013 A 
HETATM   28 BR1  UNL     1      23.454   6.142  48.760  1.00  0.00    -0.051 Br
HETATM   29  C20 UNL     1      24.475   4.482  50.911  1.00  0.00     0.048 A 
ENDBRANCH  21  23
ENDBRANCH  14  21
ENDBRANCH   5   8
ENDBRANCH   1   4
TORSDOF 5
ENDMDL
MODEL 2
REMARK VINA RESULT:      -8.3      4.150      6.901
REMARK  5 active torsions:
REMARK  status: ('A' for Active; 'I' for Inactive)
REMARK    1  A    between atoms: C2_2  and  C3_3 
REMARK    2  A    between atoms: C4_4  and  N1_5 
REMARK       I    between atoms: N1_5  and  C5_6 
REMARK    3  A    between atoms: C5_6  and  C6_8 
REMARK    4  A    between atoms: C14_19  and  N4_20 
REMARK    5  A    between atoms: N4_20  and  C15_21 
ROOT
HETATM    1  C6  UNL     1      26.740   5.550  48.763  1.00  0.00     0.012 C 
HETATM    2  C7  UNL     1      27.029   6.601  48.257  1.00  0.00     0.015 C 
HETATM    3 CL1  UNL     1      27.429   8.130  47.525  1.00  0.00    -0.022 Cl
ENDROOT
BRANCH   1   4
HETATM    4  C5  UNL     1      26.369   4.282  49.360  1.00  0.00     0.301 C 
HETATM    5  N1  UNL     1      25.065   4.238  49.928  1.00  0.00    -0.319 N 
HETATM    6  H5  UNL     1      24.418   5.079  49.909  1.00  0.00     0.169 HD
HETATM    7  O1  UNL     1      27.149   3.288  49.376  1.00  0.00    -0.258 OA
BRANCH   5   8
HETATM    8  C4  UNL     1      24.343   3.192  50.597  1.00  0.00     0.027 A 
HETATM    9  C3  UNL     1      23.048   2.845  49.951  1.00  0.00     0.110 A 
HETATM   10  C10 UNL     1      22.543   1.771  50.834  1.00  0.00     0.060 A 
HETATM   11  C9  UNL     1      23.465   1.563  51.842  1.00  0.00     0.020 A 
HETATM   12  N2  UNL     1      21.429   1.031  50.813  1.00  0.00    -0.262 NA
HETATM   13  C8  UNL     1      24.606   2.475  51.678  1.00  0.00     0.042 A 
HETATM   14  C14 UNL     1      23.283   0.612  52.842  1.00  0.00     0.067 A 
HETATM   15  C12 UNL     1      22.098  -0.129  52.763  1.00  0.00     0.089 A 
HETATM   16  C11 UNL     1      21.177   0.078  51.757  1.00  0.00     0.142 A 
HETATM   17  C13 UNL     1      21.885  -1.118  53.783  1.00  0.00     0.103 C 
HETATM   18  N3  UNL     1      21.720  -1.916  54.616  1.00  0.00    -0.191 NA
BRANCH   9  19
HETATM   19  C2  UNL     1      22.157   3.995  49.799  1.00  0.00    -0.020 C 
HETATM   20  C1  UNL     1      21.663   4.539  50.905  1.00  0.00     0.008 C 
ENDBRANCH   9  19
BRANCH  14  21
HETATM   21  N4  UNL     1      24.248   0.426  53.858  1.00  0.00    -0.354 N 
HETATM   22  H8  UNL     1      23.853   0.626  54.812  1.00  0.00     0.166 HD
BRANCH  21  23
HETATM   23  C15 UNL     1      25.582   0.022  53.638  1.00  0.00     0.033 A 
HETATM   24  C16 UNL     1      25.796  -1.167  52.972  1.00  0.00     0.029 A 
HETATM   25  C17 UNL     1      27.096  -1.572  52.752  1.00  0.00     0.004 A 
HETATM   26  C18 UNL     1      28.123  -0.760  53.213  1.00  0.00     0.019 A 
HETATM   27  C19 UNL     1      27.900   0.432  53.881  1.00  0.00     0.013 A 
HETATM   28 BR1  UNL     1      29.399   1.465  54.469  1.00  0.00    -0.051 Br
HETATM   29  C20 UNL     1      26.586   0.848  54.107  1.00  0.00     0.048 A 
ENDBRANCH  21  23
ENDBRANCH  14  21
ENDBRANCH   5   8
ENDBRANCH   1   4
TORSDOF 5
ENDMDL
MODEL 3
REMARK VINA RESULT:      -8.0      3.935      6.240
REMARK  5 active torsions:
REMARK  status: ('A' for Active; 'I' for Inactive)
REMARK    1  A    between atoms: C2_2  and  C3_3 
REMARK    2  A    between atoms: C4_4  and  N1_5 
REMARK       I    between atoms: N1_5  and  C5_6 
REMARK    3  A    between atoms: C5_6  and  C6_8 
REMARK    4  A    between atoms: C14_19  and  N4_20 
REMARK    5  A    between atoms: N4_20  and  C15_21 
ROOT
HETATM    1  C6  UNL     1      27.707   0.143  53.718  1.00  0.00     0.012 C 
HETATM    2  C7  UNL     1      28.667  -0.580  53.726  1.00  0.00     0.015 C 
HETATM    3 CL1  UNL     1      30.070  -1.612  53.745  1.00  0.00    -0.022 Cl
ENDROOT
BRANCH   1   4
HETATM    4  C5  UNL     1      26.564   1.034  53.699  1.00  0.00     0.301 C 
HETATM    5  N1  UNL     1      25.642   0.815  52.638  1.00  0.00    -0.319 N 
HETATM    6  H5  UNL     1      25.790   0.050  51.917  1.00  0.00     0.169 HD
HETATM    7  O1  UNL     1      26.399   1.941  54.563  1.00  0.00    -0.258 OA
BRANCH   5   8
HETATM    8  C4  UNL     1      24.415   1.469  52.280  1.00  0.00     0.027 A 
HETATM    9  C3  UNL     1      23.246   1.048  53.100  1.00  0.00     0.110 A 
HETATM   10  C10 UNL     1      22.156   1.864  52.521  1.00  0.00     0.060 A 
HETATM   11  C9  UNL     1      22.680   2.638  51.504  1.00  0.00     0.020 A 
HETATM   12  N2  UNL     1      20.853   1.963  52.802  1.00  0.00    -0.262 NA
HETATM   13  C8  UNL     1      24.121   2.376  51.362  1.00  0.00     0.042 A 
HETATM   14  C14 UNL     1      21.907   3.520  50.755  1.00  0.00     0.067 A 
HETATM   15  C12 UNL     1      20.552   3.577  51.100  1.00  0.00     0.089 A 
HETATM   16  C11 UNL     1      20.026   2.805  52.115  1.00  0.00     0.142 A 
HETATM   17  C13 UNL     1      19.730   4.481  50.342  1.00  0.00     0.103 C 
HETATM   18  N3  UNL     1      19.071   5.214  49.721  1.00  0.00    -0.191 NA
BRANCH   9  19
HETATM   19  C2  UNL     1      23.021  -0.396  53.078  1.00  0.00    -0.020 C 
HETATM   20  C1  UNL     1      22.672  -0.981  54.217  1.00  0.00     0.008 C 
ENDBRANCH   9  19
BRANCH  14  21
HETATM   21  N4  UNL     1      22.478   4.297  49.721  1.00  0.00    -0.354 N 
HETATM   22  H8  UNL     1      22.110   4.019  48.776  1.00  0.00     0.166 HD
BRANCH  21  23
HETATM   23  C15 UNL     1      23.427   5.323  49.914  1.00  0.00     0.033 A 
HETATM   24  C16 UNL     1      23.115   6.334  50.799  1.00  0.00     0.029 A 
HETATM   25  C17 UNL     1      24.035   7.343  50.995  1.00  0.00     0.004 A 
HETATM   26  C18 UNL     1      25.230   7.287  50.291  1.00  0.00     0.019 A 
HETATM   27  C19 UNL     1      25.536   6.268  49.405  1.00  0.00     0.013 A 
HETATM   28 BR1  UNL     1      27.217   6.301  48.492  1.00  0.00    -0.051 Br
HETATM   29  C20 UNL     1      24.609   5.244  49.201  1.00  0.00     0.048 A 
ENDBRANCH  21  23
ENDBRANCH  14  21
ENDBRANCH   5   8
ENDBRANCH   1   4
TORSDOF 5
ENDMDL
MODEL 4
REMARK VINA RESULT:      -7.7      4.314      6.723
REMARK  5 active torsions:
REMARK  status: ('A' for Active; 'I' for Inactive)
REMARK    1  A    between atoms: C2_2  and  C3_3 
REMARK    2  A    between atoms: C4_4  and  N1_5 
REMARK       I    between atoms: N1_5  and  C5_6 
REMARK    3  A    between atoms: C5_6  and  C6_8 
REMARK    4  A    between atoms: C14_19  and  N4_20 
REMARK    5  A    between atoms: N4_20  and  C15_21 
ROOT
HETATM    1  C6  UNL     1      27.905   0.203  53.214  1.00  0.00     0.012 C 
HETATM    2  C7  UNL     1      28.509  -0.835  53.259  1.00  0.00     0.015 C 
HETATM    3 CL1  UNL     1      29.380  -2.341  53.343  1.00  0.00    -0.022 Cl
ENDROOT
BRANCH   1   4
HETATM    4  C5  UNL     1      27.186   1.462  53.183  1.00  0.00     0.301 C 
HETATM    5  N1  UNL     1      26.284   1.618  52.095  1.00  0.00    -0.319 N 
HETATM    6  H5  UNL     1      26.153   0.860  51.363  1.00  0.00     0.169 HD
HETATM    7  O1  UNL     1      27.351   2.356  54.060  1.00  0.00    -0.258 OA
BRANCH   5   8
HETATM    8  C4  UNL     1      25.409   2.692  51.718  1.00  0.00     0.027 A 
HETATM    9  C3  UNL     1      24.205   2.820  52.585  1.00  0.00     0.110 A 
HETATM   10  C10 UNL     1      23.511   3.976  51.975  1.00  0.00     0.060 A 
HETATM   11  C9  UNL     1      24.257   4.419  50.900  1.00  0.00     0.020 A 
HETATM   12  N2  UNL     1      22.369   4.606  52.273  1.00  0.00    -0.262 NA
HETATM   13  C8  UNL     1      25.464   3.592  50.749  1.00  0.00     0.042 A 
HETATM   14  C14 UNL     1      23.872   5.499  50.111  1.00  0.00     0.067 A 
HETATM   15  C12 UNL     1      22.670   6.115  50.476  1.00  0.00     0.089 A 
HETATM   16  C11 UNL     1      21.922   5.673  51.548  1.00  0.00     0.142 A 
HETATM   17  C13 UNL     1      22.248   7.233  49.678  1.00  0.00     0.103 C 
HETATM   18  N3  UNL     1      21.913   8.137  49.023  1.00  0.00    -0.191 NA
BRANCH   9  19
HETATM   19  C2  UNL     1      23.418   1.590  52.658  1.00  0.00    -0.020 C 
HETATM   20  C1  UNL     1      22.783   1.201  51.560  1.00  0.00     0.008 C 
ENDBRANCH   9  19
BRANCH  14  21
HETATM   21  N4  UNL     1      24.662   5.925  49.019  1.00  0.00    -0.354 N 
HETATM   22  H8  UNL     1      24.307   5.540  48.108  1.00  0.00     0.166 HD
BRANCH  21  23
HETATM   23  C15 UNL     1      25.792   6.764  49.121  1.00  0.00     0.033 A 
HETATM   24  C16 UNL     1      25.724   7.839  49.984  1.00  0.00     0.029 A 
HETATM   25  C17 UNL     1      26.823   8.665  50.092  1.00  0.00     0.004 A 
HETATM   26  C18 UNL     1      27.942   8.372  49.325  1.00  0.00     0.019 A 
HETATM   27  C19 UNL     1      28.003   7.292  48.461  1.00  0.00     0.013 A 
HETATM   28 BR1  UNL     1      29.603   6.992  47.457  1.00  0.00    -0.051 Br
HETATM   29  C20 UNL     1      26.894   6.450  48.348  1.00  0.00     0.048 A 
ENDBRANCH  21  23
ENDBRANCH  14  21
ENDBRANCH   5   8
ENDBRANCH   1   4
TORSDOF 5
ENDMDL
MODEL 5
REMARK VINA RESULT:      -7.4      3.830      6.726
REMARK  5 active torsions:
REMARK  status: ('A' for Active; 'I' for Inactive)
REMARK    1  A    between atoms: C2_2  and  C3_3 
REMARK    2  A    between atoms: C4_4  and  N1_5 
REMARK       I    between atoms: N1_5  and  C5_6 
REMARK    3  A    between atoms: C5_6  and  C6_8 
REMARK    4  A    between atoms: C14_19  and  N4_20 
REMARK    5  A    between atoms: N4_20  and  C15_21 
ROOT
HETATM    1  C6  UNL     1      27.129   4.630  49.060  1.00  0.00     0.012 C 
HETATM    2  C7  UNL     1      28.047   5.159  48.491  1.00  0.00     0.015 C 
HETATM    3 CL1  UNL     1      29.389   5.920  47.683  1.00  0.00    -0.022 Cl
ENDROOT
BRANCH   1   4
HETATM    4  C5  UNL     1      26.031   4.002  49.768  1.00  0.00     0.301 C 
HETATM    5  N1  UNL     1      26.391   2.894  50.584  1.00  0.00    -0.319 N 
HETATM    6  H5  UNL     1      27.396   2.561  50.663  1.00  0.00     0.169 HD
HETATM    7  O1  UNL     1      24.840   4.408  49.665  1.00  0.00    -0.258 OA
BRANCH   5   8
HETATM    8  C4  UNL     1      25.615   2.026  51.424  1.00  0.00     0.027 A 
HETATM    9  C3  UNL     1      26.310   1.616  52.675  1.00  0.00     0.110 A 
HETATM   10  C10 UNL     1      25.297   0.751  53.318  1.00  0.00     0.060 A 
HETATM   11  C9  UNL     1      24.182   0.701  52.504  1.00  0.00     0.020 A 
HETATM   12  N2  UNL     1      25.290   0.066  54.467  1.00  0.00    -0.262 NA
HETATM   13  C8  UNL     1      24.399   1.518  51.301  1.00  0.00     0.042 A 
HETATM   14  C14 UNL     1      23.046  -0.035  52.830  1.00  0.00     0.067 A 
HETATM   15  C12 UNL     1      23.103  -0.728  54.044  1.00  0.00     0.089 A 
HETATM   16  C11 UNL     1      24.215  -0.679  54.859  1.00  0.00     0.142 A 
HETATM   17  C13 UNL     1      21.943  -1.496  54.405  1.00  0.00     0.103 C 
HETATM   18  N3  UNL     1      20.999  -2.118  54.688  1.00  0.00    -0.191 NA
BRANCH   9  19
HETATM   19  C2  UNL     1      27.604   0.983  52.430  1.00  0.00    -0.020 C 
HETATM   20  C1  UNL     1      28.367   0.718  53.483  1.00  0.00     0.008 C 
ENDBRANCH   9  19
BRANCH  14  21
HETATM   21  N4  UNL     1      21.923  -0.063  51.972  1.00  0.00    -0.354 N 
HETATM   22  H8  UNL     1      21.872  -0.959  51.426  1.00  0.00     0.166 HD
BRANCH  21  23
HETATM   23  C15 UNL     1      20.975   0.976  51.852  1.00  0.00     0.033 A 
HETATM   24  C16 UNL     1      21.143   2.099  52.635  1.00  0.00     0.029 A 
HETATM   25  C17 UNL     1      20.223   3.120  52.525  1.00  0.00     0.004 A 
HETATM   26  C18 UNL     1      19.173   2.964  51.631  1.00  0.00     0.019 A 
HETATM   27  C19 UNL     1      19.011   1.834  50.848  1.00  0.00     0.013 A 
HETATM   28 BR1  UNL     1      17.522   1.736  49.651  1.00  0.00    -0.051 Br
HETATM   29  C20 UNL     1      19.940   0.796  50.954  1.00  0.00     0.048 A 
ENDBRANCH  21  23
ENDBRANCH  14  21
ENDBRANCH   5   8
ENDBRANCH   1   4
TORSDOF 5
ENDMDL
MODEL 6
REMARK VINA RESULT:      -7.2      5.744      9.504
REMARK  5 active torsions:
REMARK  status: ('A' for Active; 'I' for Inactive)
REMARK    1  A    between atoms: C2_2  and  C3_3 
REMARK    2  A    between atoms: C4_4  and  N1_5 
REMARK       I    between atoms: N1_5  and  C5_6 
REMARK    3  A    between atoms: C5_6  and  C6_8 
REMARK    4  A    between atoms: C14_19  and  N4_20 
REMARK    5  A    between atoms: N4_20  and  C15_21 
ROOT
HETATM    1  C6  UNL     1      31.101   6.643  48.328  1.00  0.00     0.012 C 
HETATM    2  C7  UNL     1      32.103   7.301  48.409  1.00  0.00     0.015 C 
HETATM    3 CL1  UNL     1      33.563   8.242  48.541  1.00  0.00    -0.022 Cl
ENDROOT
BRANCH   1   4
HETATM    4  C5  UNL     1      29.894   5.844  48.255  1.00  0.00     0.301 C 
HETATM    5  N1  UNL     1      28.708   6.496  48.693  1.00  0.00    -0.319 N 
HETATM    6  H5  UNL     1      28.718   7.497  49.046  1.00  0.00     0.169 HD
HETATM    7  O1  UNL     1      29.895   4.653  47.832  1.00  0.00    -0.258 OA
BRANCH   5   8
HETATM    8  C4  UNL     1      27.344   6.057  48.775  1.00  0.00     0.027 A 
HETATM    9  C3  UNL     1      26.354   7.076  48.327  1.00  0.00     0.110 A 
HETATM   10  C10 UNL     1      25.073   6.362  48.519  1.00  0.00     0.060 A 
HETATM   11  C9  UNL     1      25.342   5.101  49.014  1.00  0.00     0.020 A 
HETATM   12  N2  UNL     1      23.800   6.715  48.307  1.00  0.00    -0.262 NA
HETATM   13  C8  UNL     1      26.793   4.921  49.172  1.00  0.00     0.042 A 
HETATM   14  C14 UNL     1      24.342   4.177  49.303  1.00  0.00     0.067 A 
HETATM   15  C12 UNL     1      23.033   4.608  49.059  1.00  0.00     0.089 A 
HETATM   16  C11 UNL     1      22.762   5.867  48.564  1.00  0.00     0.142 A 
HETATM   17  C13 UNL     1      21.980   3.674  49.348  1.00  0.00     0.103 C 
HETATM   18  N3  UNL     1      21.133   2.910  49.589  1.00  0.00    -0.191 NA
BRANCH   9  19
HETATM   19  C2  UNL     1      26.473   8.344  49.045  1.00  0.00    -0.020 C 
HETATM   20  C1  UNL     1      26.442   9.460  48.327  1.00  0.00     0.008 C 
ENDBRANCH   9  19
BRANCH  14  21
HETATM   21  N4  UNL     1      24.655   2.895  49.809  1.00  0.00    -0.354 N 
HETATM   22  H8  UNL     1      24.593   2.156  49.064  1.00  0.00     0.166 HD
BRANCH  21  23
HETATM   23  C15 UNL     1      25.008   2.622  51.148  1.00  0.00     0.033 A 
HETATM   24  C16 UNL     1      24.207   3.135  52.146  1.00  0.00     0.029 A 
HETATM   25  C17 UNL     1      24.543   2.875  53.458  1.00  0.00     0.004 A 
HETATM   26  C18 UNL     1      25.673   2.107  53.706  1.00  0.00     0.019 A 
HETATM   27  C19 UNL     1      26.472   1.595  52.698  1.00  0.00     0.013 A 
HETATM   28 BR1  UNL     1      28.005   0.551  53.166  1.00  0.00    -0.051 Br
HETATM   29  C20 UNL     1      26.137   1.855  51.367  1.00  0.00     0.048 A 
ENDBRANCH  21  23
ENDBRANCH  14  21
ENDBRANCH   5   8
ENDBRANCH   1   4
TORSDOF 5
ENDMDL
MODEL 7
REMARK VINA RESULT:      -7.1      3.622      6.874
REMARK  5 active torsions:
REMARK  status: ('A' for Active; 'I' for Inactive)
REMARK    1  A    between atoms: C2_2  and  C3_3 
REMARK    2  A    between atoms: C4_4  and  N1_5 
REMARK       I    between atoms: N1_5  and  C5_6 
REMARK    3  A    between atoms: C5_6  and  C6_8 
REMARK    4  A    between atoms: C14_19  and  N4_20 
REMARK    5  A    between atoms: N4_20  and  C15_21 
ROOT
HETATM    1  C6  UNL     1      26.488   4.432  49.501  1.00  0.00     0.012 C 
HETATM    2  C7  UNL     1      27.520   4.734  48.965  1.00  0.00     0.015 C 
HETATM    3 CL1  UNL     1      29.026   5.162  48.201  1.00  0.00    -0.022 Cl
ENDROOT
BRANCH   1   4
HETATM    4  C5  UNL     1      25.254   4.071  50.172  1.00  0.00     0.301 C 
HETATM    5  N1  UNL     1      25.130   2.696  50.515  1.00  0.00    -0.319 N 
HETATM    6  H5  UNL     1      25.893   1.993  50.292  1.00  0.00     0.169 HD
HETATM    7  O1  UNL     1      24.354   4.918  50.432  1.00  0.00    -0.258 OA
BRANCH   5   8
HETATM    8  C4  UNL     1      24.087   1.960  51.171  1.00  0.00     0.027 A 
HETATM    9  C3  UNL     1      24.507   1.332  52.454  1.00  0.00     0.110 A 
HETATM   10  C10 UNL     1      23.262   0.661  52.888  1.00  0.00     0.060 A 
HETATM   11  C9  UNL     1      22.282   0.901  51.945  1.00  0.00     0.020 A 
HETATM   12  N2  UNL     1      22.960  -0.080  53.960  1.00  0.00    -0.262 NA
HETATM   13  C8  UNL     1      22.822   1.730  50.856  1.00  0.00     0.042 A 
HETATM   14  C14 UNL     1      20.987   0.404  52.062  1.00  0.00     0.067 A 
HETATM   15  C12 UNL     1      20.736  -0.363  53.205  1.00  0.00     0.089 A 
HETATM   16  C11 UNL     1      21.713  -0.605  54.148  1.00  0.00     0.142 A 
HETATM   17  C13 UNL     1      19.407  -0.890  53.351  1.00  0.00     0.103 C 
HETATM   18  N3  UNL     1      18.327  -1.314  53.459  1.00  0.00    -0.191 NA
BRANCH   9  19
HETATM   19  C2  UNL     1      25.668   0.455  52.309  1.00  0.00    -0.020 C 
HETATM   20  C1  UNL     1      26.663   0.607  53.174  1.00  0.00     0.008 C 
ENDBRANCH   9  19
BRANCH  14  21
HETATM   21  N4  UNL     1      20.009   0.670  51.076  1.00  0.00    -0.354 N 
HETATM   22  H8  UNL     1      19.936  -0.112  50.378  1.00  0.00     0.166 HD
BRANCH  21  23
HETATM   23  C15 UNL     1      19.219   1.838  51.021  1.00  0.00     0.033 A 
HETATM   24  C16 UNL     1      17.960   1.794  51.581  1.00  0.00     0.029 A 
HETATM   25  C17 UNL     1      17.178   2.930  51.532  1.00  0.00     0.004 A 
HETATM   26  C18 UNL     1      17.702   4.061  50.920  1.00  0.00     0.019 A 
HETATM   27  C19 UNL     1      18.968   4.097  50.360  1.00  0.00     0.013 A 
HETATM   28 BR1  UNL     1      19.579   5.716  49.544  1.00  0.00    -0.051 Br
HETATM   29  C20 UNL     1      19.764   2.950  50.407  1.00  0.00     0.048 A 
ENDBRANCH  21  23
ENDBRANCH  14  21
ENDBRANCH   5   8
ENDBRANCH   1   4
TORSDOF 5
ENDMDL
MODEL 8
REMARK VINA RESULT:      -7.0      3.511      6.694
REMARK  5 active torsions:
REMARK  status: ('A' for Active; 'I' for Inactive)
REMARK    1  A    between atoms: C2_2  and  C3_3 
REMARK    2  A    between atoms: C4_4  and  N1_5 
REMARK       I    between atoms: N1_5  and  C5_6 
REMARK    3  A    between atoms: C5_6  and  C6_8 
REMARK    4  A    between atoms: C14_19  and  N4_20 
REMARK    5  A    between atoms: N4_20  and  C15_21 
ROOT
HETATM    1  C6  UNL     1      23.059   7.110  49.162  1.00  0.00     0.012 C 
HETATM    2  C7  UNL     1      23.422   8.194  48.792  1.00  0.00     0.015 C 
HETATM    3 CL1  UNL     1      23.969   9.761  48.261  1.00  0.00    -0.022 Cl
ENDROOT
BRANCH   1   4
HETATM    4  C5  UNL     1      22.636   5.804  49.627  1.00  0.00     0.301 C 
HETATM    5  N1  UNL     1      23.469   5.215  50.618  1.00  0.00    -0.319 N 
HETATM    6  H5  UNL     1      24.336   5.706  50.984  1.00  0.00     0.169 HD
HETATM    7  O1  UNL     1      21.602   5.230  49.183  1.00  0.00    -0.258 OA
BRANCH   5   8
HETATM    8  C4  UNL     1      23.394   3.963  51.317  1.00  0.00     0.027 A 
HETATM    9  C3  UNL     1      24.678   3.209  51.342  1.00  0.00     0.110 A 
HETATM   10  C10 UNL     1      24.307   1.998  52.106  1.00  0.00     0.060 A 
HETATM   11  C9  UNL     1      22.973   2.090  52.453  1.00  0.00     0.020 A 
HETATM   12  N2  UNL     1      25.000   0.918  52.483  1.00  0.00    -0.262 NA
HETATM   13  C8  UNL     1      22.405   3.347  51.943  1.00  0.00     0.042 A 
HETATM   14  C14 UNL     1      22.315   1.102  53.181  1.00  0.00     0.067 A 
HETATM   15  C12 UNL     1      23.096  -0.001  53.544  1.00  0.00     0.089 A 
HETATM   16  C11 UNL     1      24.428  -0.095  53.199  1.00  0.00     0.142 A 
HETATM   17  C13 UNL     1      22.442  -1.036  54.297  1.00  0.00     0.103 C 
HETATM   18  N3  UNL     1      21.902  -1.871  54.905  1.00  0.00    -0.191 NA
BRANCH   9  19
HETATM   19  C2  UNL     1      25.223   2.960  50.008  1.00  0.00    -0.020 C 
HETATM   20  C1  UNL     1      26.434   3.434  49.742  1.00  0.00     0.008 C 
ENDBRANCH   9  19
BRANCH  14  21
HETATM   21  N4  UNL     1      20.949   1.230  53.518  1.00  0.00    -0.354 N 
HETATM   22  H8  UNL     1      20.819   1.685  54.457  1.00  0.00     0.166 HD
BRANCH  21  23
HETATM   23  C15 UNL     1      19.876   0.804  52.707  1.00  0.00     0.033 A 
HETATM   24  C16 UNL     1      19.267  -0.395  53.016  1.00  0.00     0.029 A 
HETATM   25  C17 UNL     1      18.217  -0.821  52.229  1.00  0.00     0.004 A 
HETATM   26  C18 UNL     1      17.827  -0.019  51.165  1.00  0.00     0.019 A 
HETATM   27  C19 UNL     1      18.443   1.183  50.861  1.00  0.00     0.013 A 
HETATM   28 BR1  UNL     1      17.815   2.199  49.368  1.00  0.00    -0.051 Br
HETATM   29  C20 UNL     1      19.506   1.620  51.654  1.00  0.00     0.048 A 
ENDBRANCH  21  23
ENDBRANCH  14  21
ENDBRANCH   5   8
ENDBRANCH   1   4
TORSDOF 5
ENDMDL
MODEL 9
REMARK VINA RESULT:      -6.9      4.310      7.759
REMARK  5 active torsions:
REMARK  status: ('A' for Active; 'I' for Inactive)
REMARK    1  A    between atoms: C2_2  and  C3_3 
REMARK    2  A    between atoms: C4_4  and  N1_5 
REMARK       I    between atoms: N1_5  and  C5_6 
REMARK    3  A    between atoms: C5_6  and  C6_8 
REMARK    4  A    between atoms: C14_19  and  N4_20 
REMARK    5  A    between atoms: N4_20  and  C15_21 
ROOT
HETATM    1  C6  UNL     1      27.362   0.016  53.003  1.00  0.00     0.012 C 
HETATM    2  C7  UNL     1      28.501  -0.290  53.234  1.00  0.00     0.015 C 
HETATM    3 CL1  UNL     1      30.145  -0.747  53.582  1.00  0.00    -0.022 Cl
ENDROOT
BRANCH   1   4
HETATM    4  C5  UNL     1      25.983   0.383  52.749  1.00  0.00     0.301 C 
HETATM    5  N1  UNL     1      25.800   1.464  51.843  1.00  0.00    -0.319 N 
HETATM    6  H5  UNL     1      26.622   1.960  51.391  1.00  0.00     0.169 HD
HETATM    7  O1  UNL     1      25.013  -0.216  53.294  1.00  0.00    -0.258 OA
BRANCH   5   8
HETATM    8  C4  UNL     1      24.619   2.111  51.345  1.00  0.00     0.027 A 
HETATM    9  C3  UNL     1      24.795   2.739  50.006  1.00  0.00     0.110 A 
HETATM   10  C10 UNL     1      23.453   3.311  49.758  1.00  0.00     0.060 A 
HETATM   11  C9  UNL     1      22.646   3.023  50.841  1.00  0.00     0.020 A 
HETATM   12  N2  UNL     1      22.941   4.005  48.736  1.00  0.00    -0.262 NA
HETATM   13  C8  UNL     1      23.402   2.258  51.844  1.00  0.00     0.042 A 
HETATM   14  C14 UNL     1      21.316   3.426  50.916  1.00  0.00     0.067 A 
HETATM   15  C12 UNL     1      20.841   4.148  49.815  1.00  0.00     0.089 A 
HETATM   16  C11 UNL     1      21.645   4.437  48.732  1.00  0.00     0.142 A 
HETATM   17  C13 UNL     1      19.470   4.577  49.866  1.00  0.00     0.103 C 
HETATM   18  N3  UNL     1      18.358   4.922  49.918  1.00  0.00    -0.191 NA
BRANCH   9  19
HETATM   19  C2  UNL     1      25.897   3.698  49.963  1.00  0.00    -0.020 C 
HETATM   20  C1  UNL     1      25.599   4.983  50.111  1.00  0.00     0.008 C 
ENDBRANCH   9  19
BRANCH  14  21
HETATM   21  N4  UNL     1      20.519   3.113  52.041  1.00  0.00    -0.354 N 
HETATM   22  H8  UNL     1      20.407   3.940  52.681  1.00  0.00     0.166 HD
BRANCH  21  23
HETATM   23  C15 UNL     1      19.937   1.852  52.290  1.00  0.00     0.033 A 
HETATM   24  C16 UNL     1      20.515   1.053  53.255  1.00  0.00     0.029 A 
HETATM   25  C17 UNL     1      19.955  -0.182  53.507  1.00  0.00     0.004 A 
HETATM   26  C18 UNL     1      18.837  -0.557  52.775  1.00  0.00     0.019 A 
HETATM   27  C19 UNL     1      18.263   0.250  51.809  1.00  0.00     0.013 A 
HETATM   28 BR1  UNL     1      16.722  -0.378  50.866  1.00  0.00    -0.051 Br
HETATM   29  C20 UNL     1      18.825   1.502  51.549  1.00  0.00     0.048 A 
ENDBRANCH  21  23
ENDBRANCH  14  21
ENDBRANCH   5   8
ENDBRANCH   1   4
TORSDOF 5
ENDMDL
