MODEL 1
REMARK VINA RESULT:      -8.3      0.000      0.000
REMARK  0 active torsions:
REMARK  status: ('A' for Active; 'I' for Inactive)
ROOT
HETATM    1  C1  UNL     1      28.421   1.760  52.916  1.00  0.00     0.152 A 
HETATM    2  N1  UNL     1      27.195   2.226  52.872  1.00  0.00    -0.239 NA
HETATM    3  C2  UNL     1      26.172   1.590  53.668  1.00  0.00     0.150 A 
HETATM    4  C3  UNL     1      25.032   2.225  53.478  1.00  0.00     0.045 C 
HETATM    5  C4  UNL     1      24.182   3.234  52.900  1.00  0.00     0.148 C 
HETATM    6  N2  UNL     1      23.052   2.745  52.219  1.00  0.00    -0.406 N 
HETATM    7  C5  UNL     1      21.822   3.436  52.344  1.00  0.00     0.137 C 
HETATM    8  C6  UNL     1      20.698   2.394  52.479  1.00  0.00     0.142 C 
HETATM    9  N3  UNL     1      21.261   1.068  52.171  1.00  0.00    -0.381 N 
HETATM   10  C7  UNL     1      21.915   1.163  50.856  1.00  0.00     0.142 C 
HETATM   11  C8  UNL     1      23.174   2.036  51.013  1.00  0.00     0.137 C 
HETATM   12  C9  UNL     1      21.282  -0.117  52.919  1.00  0.00     0.011 C 
HETATM   13  C10 UNL     1      20.737  -0.901  53.872  1.00  0.00     0.025 C 
HETATM   14  C11 UNL     1      21.875  -1.499  54.649  1.00  0.00     0.011 C 
HETATM   15  C12 UNL     1      22.957  -0.999  54.071  1.00  0.00    -0.033 C 
HETATM   16  C13 UNL     1      24.257  -0.441  54.323  1.00  0.00     0.146 C 
HETATM   17  N4  UNL     1      25.201   0.048  55.078  1.00  0.00    -0.176 NA
HETATM   18  N5  UNL     1      26.418   0.465  54.511  1.00  0.00    -0.198 N 
HETATM   19  C14 UNL     1      27.721  -0.032  54.563  1.00  0.00     0.160 A 
HETATM   20  C15 UNL     1      28.667   0.614  53.782  1.00  0.00     0.098 A 
HETATM   21  N6  UNL     1      29.042  -0.515  54.599  1.00  0.00    -0.335 N 
HETATM   22  C16 UNL     1      22.483  -1.001  52.619  1.00  0.00     0.097 C 
HETATM   23  H16 UNL     1      29.619  -1.259  55.047  1.00  0.00     0.168 HD
ENDROOT
TORSDOF 0
ENDMDL
MODEL 2
REMARK VINA RESULT:      -8.0      1.781      2.355
REMARK  0 active torsions:
REMARK  status: ('A' for Active; 'I' for Inactive)
ROOT
HETATM    1  C1  UNL     1      27.348   1.168  52.557  1.00  0.00     0.152 A 
HETATM    2  N1  UNL     1      26.345   2.011  52.493  1.00  0.00    -0.239 NA
HETATM    3  C2  UNL     1      25.024   1.563  52.866  1.00  0.00     0.150 A 
HETATM    4  C3  UNL     1      24.183   2.570  52.737  1.00  0.00     0.045 C 
HETATM    5  C4  UNL     1      23.809   3.925  52.419  1.00  0.00     0.148 C 
HETATM    6  N2  UNL     1      22.793   4.053  51.454  1.00  0.00    -0.406 N 
HETATM    7  C5  UNL     1      21.806   5.053  51.624  1.00  0.00     0.137 C 
HETATM    8  C6  UNL     1      20.445   4.456  51.229  1.00  0.00     0.142 C 
HETATM    9  N3  UNL     1      20.685   3.159  50.575  1.00  0.00    -0.381 N 
HETATM   10  C7  UNL     1      21.644   3.389  49.482  1.00  0.00     0.142 C 
HETATM   11  C8  UNL     1      23.012   3.708  50.111  1.00  0.00     0.137 C 
HETATM   12  C9  UNL     1      20.197   1.878  50.868  1.00  0.00     0.011 C 
HETATM   13  C10 UNL     1      19.242   1.092  51.405  1.00  0.00     0.025 C 
HETATM   14  C11 UNL     1      19.946  -0.045  52.090  1.00  0.00     0.011 C 
HETATM   15  C12 UNL     1      21.231   0.202  51.883  1.00  0.00    -0.033 C 
HETATM   16  C13 UNL     1      22.529   0.197  52.499  1.00  0.00     0.146 C 
HETATM   17  N4  UNL     1      23.354   0.111  53.506  1.00  0.00    -0.176 NA
HETATM   18  N5  UNL     1      24.739   0.234  53.301  1.00  0.00    -0.198 N 
HETATM   19  C14 UNL     1      25.804  -0.666  53.371  1.00  0.00     0.160 A 
HETATM   20  C15 UNL     1      27.052  -0.187  53.006  1.00  0.00     0.098 A 
HETATM   21  N6  UNL     1      26.892  -1.555  53.435  1.00  0.00    -0.335 N 
HETATM   22  C16 UNL     1      21.149   0.762  50.465  1.00  0.00     0.097 C 
HETATM   23  H16 UNL     1      27.116  -2.542  53.682  1.00  0.00     0.168 HD
ENDROOT
TORSDOF 0
ENDMDL
MODEL 3
REMARK VINA RESULT:      -7.8      2.262      4.743
REMARK  0 active torsions:
REMARK  status: ('A' for Active; 'I' for Inactive)
ROOT
HETATM    1  C1  UNL     1      22.138  -1.099  55.151  1.00  0.00     0.152 A 
HETATM    2  N1  UNL     1      21.883  -0.635  53.951  1.00  0.00    -0.239 NA
HETATM    3  C2  UNL     1      22.983  -0.290  53.081  1.00  0.00     0.150 A 
HETATM    4  C3  UNL     1      22.497   0.139  51.933  1.00  0.00     0.045 C 
HETATM    5  C4  UNL     1      21.448   0.482  51.008  1.00  0.00     0.148 C 
HETATM    6  N2  UNL     1      21.490   1.801  50.518  1.00  0.00    -0.406 N 
HETATM    7  C5  UNL     1      21.175   2.040  49.159  1.00  0.00     0.137 C 
HETATM    8  C6  UNL     1      22.162   3.087  48.615  1.00  0.00     0.142 C 
HETATM    9  N3  UNL     1      22.905   3.653  49.754  1.00  0.00    -0.381 N 
HETATM   10  C7  UNL     1      21.913   4.130  50.731  1.00  0.00     0.142 C 
HETATM   11  C8  UNL     1      21.229   2.899  51.353  1.00  0.00     0.137 C 
HETATM   12  C9  UNL     1      24.282   3.738  50.003  1.00  0.00     0.011 C 
HETATM   13  C10 UNL     1      25.546   3.791  49.538  1.00  0.00     0.025 C 
HETATM   14  C11 UNL     1      26.386   2.951  50.458  1.00  0.00     0.011 C 
HETATM   15  C12 UNL     1      25.523   2.497  51.354  1.00  0.00    -0.033 C 
HETATM   16  C13 UNL     1      25.134   1.338  52.110  1.00  0.00     0.146 C 
HETATM   17  N4  UNL     1      25.159   0.071  52.417  1.00  0.00    -0.176 NA
HETATM   18  N5  UNL     1      24.354  -0.423  53.458  1.00  0.00    -0.198 N 
HETATM   19  C14 UNL     1      24.629  -0.918  54.733  1.00  0.00     0.160 A 
HETATM   20  C15 UNL     1      23.539  -1.236  55.528  1.00  0.00     0.098 A 
HETATM   21  N6  UNL     1      24.882  -1.419  56.023  1.00  0.00    -0.335 N 
HETATM   22  C16 UNL     1      24.631   3.729  51.483  1.00  0.00     0.097 C 
HETATM   23  H16 UNL     1      25.674  -1.660  56.656  1.00  0.00     0.168 HD
ENDROOT
TORSDOF 0
ENDMDL
MODEL 4
REMARK VINA RESULT:      -7.6      2.340      4.633
REMARK  0 active torsions:
REMARK  status: ('A' for Active; 'I' for Inactive)
ROOT
HETATM    1  C1  UNL     1      26.511   0.517  54.608  1.00  0.00     0.152 A 
HETATM    2  N1  UNL     1      25.499   0.679  53.791  1.00  0.00    -0.239 NA
HETATM    3  C2  UNL     1      25.720   1.320  52.515  1.00  0.00     0.150 A 
HETATM    4  C3  UNL     1      24.577   1.364  51.860  1.00  0.00     0.045 C 
HETATM    5  C4  UNL     1      23.166   1.133  51.681  1.00  0.00     0.148 C 
HETATM    6  N2  UNL     1      22.403   2.282  51.400  1.00  0.00    -0.406 N 
HETATM    7  C5  UNL     1      21.353   2.195  50.454  1.00  0.00     0.137 C 
HETATM    8  C6  UNL     1      21.377   3.470  49.594  1.00  0.00     0.142 C 
HETATM    9  N3  UNL     1      22.302   4.430  50.219  1.00  0.00    -0.381 N 
HETATM   10  C7  UNL     1      21.885   4.591  51.622  1.00  0.00     0.142 C 
HETATM   11  C8  UNL     1      22.204   3.282  52.366  1.00  0.00     0.137 C 
HETATM   12  C9  UNL     1      23.425   5.092  49.705  1.00  0.00     0.011 C 
HETATM   13  C10 UNL     1      24.101   5.587  48.649  1.00  0.00     0.025 C 
HETATM   14  C11 UNL     1      25.554   5.283  48.877  1.00  0.00     0.011 C 
HETATM   15  C12 UNL     1      25.569   4.641  50.036  1.00  0.00    -0.033 C 
HETATM   16  C13 UNL     1      26.149   3.533  50.743  1.00  0.00     0.146 C 
HETATM   17  N4  UNL     1      26.845   2.434  50.842  1.00  0.00    -0.176 NA
HETATM   18  N5  UNL     1      26.994   1.799  52.087  1.00  0.00    -0.198 N 
HETATM   19  C14 UNL     1      28.074   1.627  52.954  1.00  0.00     0.160 A 
HETATM   20  C15 UNL     1      27.811   1.005  54.164  1.00  0.00     0.098 A 
HETATM   21  N6  UNL     1      29.149   1.442  53.844  1.00  0.00    -0.335 N 
HETATM   22  C16 UNL     1      24.471   5.417  50.761  1.00  0.00     0.097 C 
HETATM   23  H16 UNL     1      30.171   1.625  53.925  1.00  0.00     0.168 HD
ENDROOT
TORSDOF 0
ENDMDL
MODEL 5
REMARK VINA RESULT:      -7.6      2.088      3.500
REMARK  0 active torsions:
REMARK  status: ('A' for Active; 'I' for Inactive)
ROOT
HETATM    1  C1  UNL     1      26.746   1.592  53.843  1.00  0.00     0.152 A 
HETATM    2  N1  UNL     1      25.850   2.485  53.493  1.00  0.00    -0.239 NA
HETATM    3  C2  UNL     1      24.525   2.044  53.123  1.00  0.00     0.150 A 
HETATM    4  C3  UNL     1      23.796   3.101  52.823  1.00  0.00     0.045 C 
HETATM    5  C4  UNL     1      23.554   4.509  52.641  1.00  0.00     0.148 C 
HETATM    6  N2  UNL     1      23.090   4.875  51.364  1.00  0.00    -0.406 N 
HETATM    7  C5  UNL     1      22.094   5.876  51.255  1.00  0.00     0.137 C 
HETATM    8  C6  UNL     1      21.093   5.440  50.171  1.00  0.00     0.142 C 
HETATM    9  N3  UNL     1      21.660   4.282  49.461  1.00  0.00    -0.381 N 
HETATM   10  C7  UNL     1      23.004   4.666  48.997  1.00  0.00     0.142 C 
HETATM   11  C8  UNL     1      23.916   4.784  50.232  1.00  0.00     0.137 C 
HETATM   12  C9  UNL     1      21.147   2.996  49.241  1.00  0.00     0.011 C 
HETATM   13  C10 UNL     1      20.086   2.173  49.116  1.00  0.00     0.025 C 
HETATM   14  C11 UNL     1      20.443   0.890  49.810  1.00  0.00     0.011 C 
HETATM   15  C12 UNL     1      21.668   1.103  50.268  1.00  0.00    -0.033 C 
HETATM   16  C13 UNL     1      22.537   0.910  51.395  1.00  0.00     0.146 C 
HETATM   17  N4  UNL     1      22.810   0.588  52.629  1.00  0.00    -0.176 NA
HETATM   18  N5  UNL     1      24.128   0.673  53.110  1.00  0.00    -0.198 N 
HETATM   19  C14 UNL     1      25.078  -0.279  53.483  1.00  0.00     0.160 A 
HETATM   20  C15 UNL     1      26.333   0.194  53.832  1.00  0.00     0.098 A 
HETATM   21  N6  UNL     1      26.052  -1.221  53.863  1.00  0.00    -0.335 N 
HETATM   22  C16 UNL     1      22.223   1.929  49.109  1.00  0.00     0.097 C 
HETATM   23  H16 UNL     1      26.178  -2.247  53.987  1.00  0.00     0.168 HD
ENDROOT
TORSDOF 0
ENDMDL
MODEL 6
REMARK VINA RESULT:      -7.4      7.719     10.913
REMARK  0 active torsions:
REMARK  status: ('A' for Active; 'I' for Inactive)
ROOT
HETATM    1  C1  UNL     1      25.345   5.988  49.217  1.00  0.00     0.152 A 
HETATM    2  N1  UNL     1      26.117   6.838  48.584  1.00  0.00    -0.239 NA
HETATM    3  C2  UNL     1      27.448   6.429  48.200  1.00  0.00     0.150 A 
HETATM    4  C3  UNL     1      28.034   7.429  47.571  1.00  0.00     0.045 C 
HETATM    5  C4  UNL     1      28.112   8.761  47.027  1.00  0.00     0.148 C 
HETATM    6  N2  UNL     1      29.184   9.539  47.502  1.00  0.00    -0.406 N 
HETATM    7  C5  UNL     1      29.873  10.383  46.599  1.00  0.00     0.137 C 
HETATM    8  C6  UNL     1      31.377  10.292  46.910  1.00  0.00     0.142 C 
HETATM    9  N3  UNL     1      31.540   9.573  48.185  1.00  0.00    -0.381 N 
HETATM   10  C7  UNL     1      30.702  10.256  49.184  1.00  0.00     0.142 C 
HETATM   11  C8  UNL     1      29.228   9.988  48.832  1.00  0.00     0.137 C 
HETATM   12  C9  UNL     1      32.277   8.424  48.504  1.00  0.00     0.011 C 
HETATM   13  C10 UNL     1      33.314   7.600  48.252  1.00  0.00     0.025 C 
HETATM   14  C11 UNL     1      32.819   6.198  48.462  1.00  0.00     0.011 C 
HETATM   15  C12 UNL     1      31.550   6.353  48.808  1.00  0.00    -0.033 C 
HETATM   16  C13 UNL     1      30.222   5.838  48.620  1.00  0.00     0.146 C 
HETATM   17  N4  UNL     1      29.319   5.095  48.043  1.00  0.00    -0.176 NA
HETATM   18  N5  UNL     1      27.983   5.135  48.478  1.00  0.00    -0.198 N 
HETATM   19  C14 UNL     1      27.164   4.227  49.150  1.00  0.00     0.160 A 
HETATM   20  C15 UNL     1      25.895   4.667  49.494  1.00  0.00     0.098 A 
HETATM   21  N6  UNL     1      26.320   3.329  49.829  1.00  0.00    -0.335 N 
HETATM   22  C16 UNL     1      31.679   7.621  49.650  1.00  0.00     0.097 C 
HETATM   23  H16 UNL     1      26.308   2.356  50.201  1.00  0.00     0.168 HD
ENDROOT
TORSDOF 0
ENDMDL
MODEL 7
REMARK VINA RESULT:      -7.2      8.460     10.519
REMARK  0 active torsions:
REMARK  status: ('A' for Active; 'I' for Inactive)
ROOT
HETATM    1  C1  UNL     1      34.870   7.057  48.080  1.00  0.00     0.152 A 
HETATM    2  N1  UNL     1      33.867   7.823  48.438  1.00  0.00    -0.239 NA
HETATM    3  C2  UNL     1      32.634   7.210  48.875  1.00  0.00     0.150 A 
HETATM    4  C3  UNL     1      31.778   8.161  49.194  1.00  0.00     0.045 C 
HETATM    5  C4  UNL     1      31.347   9.525  49.359  1.00  0.00     0.148 C 
HETATM    6  N2  UNL     1      30.175   9.871  48.660  1.00  0.00    -0.406 N 
HETATM    7  C5  UNL     1      29.228  10.719  49.281  1.00  0.00     0.137 C 
HETATM    8  C6  UNL     1      27.822  10.186  48.960  1.00  0.00     0.142 C 
HETATM    9  N3  UNL     1      27.950   9.151  47.920  1.00  0.00    -0.381 N 
HETATM   10  C7  UNL     1      28.700   9.744  46.801  1.00  0.00     0.142 C 
HETATM   11  C8  UNL     1      30.156   9.945  47.258  1.00  0.00     0.137 C 
HETATM   12  C9  UNL     1      27.529   7.814  47.897  1.00  0.00     0.011 C 
HETATM   13  C10 UNL     1      26.688   6.852  48.327  1.00  0.00     0.025 C 
HETATM   14  C11 UNL     1      27.509   5.608  48.517  1.00  0.00     0.011 C 
HETATM   15  C12 UNL     1      28.735   5.978  48.181  1.00  0.00    -0.033 C 
HETATM   16  C13 UNL     1      30.122   5.869  48.542  1.00  0.00     0.146 C 
HETATM   17  N4  UNL     1      31.112   5.541  49.325  1.00  0.00    -0.176 NA
HETATM   18  N5  UNL     1      32.438   5.798  48.938  1.00  0.00    -0.198 N 
HETATM   19  C14 UNL     1      33.504   4.980  48.559  1.00  0.00     0.160 A 
HETATM   20  C15 UNL     1      34.665   5.616  48.149  1.00  0.00     0.098 A 
HETATM   21  N6  UNL     1      34.591   4.175  48.173  1.00  0.00    -0.335 N 
HETATM   22  C16 UNL     1      28.401   6.921  47.027  1.00  0.00     0.097 C 
HETATM   23  H16 UNL     1      34.861   3.173  48.075  1.00  0.00     0.168 HD
ENDROOT
TORSDOF 0
ENDMDL
MODEL 8
REMARK VINA RESULT:      -7.1      2.900      6.140
REMARK  0 active torsions:
REMARK  status: ('A' for Active; 'I' for Inactive)
ROOT
HETATM    1  C1  UNL     1      17.900   0.419  51.587  1.00  0.00     0.152 A 
HETATM    2  N1  UNL     1      18.912   0.868  50.884  1.00  0.00    -0.239 NA
HETATM    3  C2  UNL     1      20.252   0.468  51.244  1.00  0.00     0.150 A 
HETATM    4  C3  UNL     1      21.101   1.023  50.402  1.00  0.00     0.045 C 
HETATM    5  C4  UNL     1      21.475   1.842  49.278  1.00  0.00     0.148 C 
HETATM    6  N2  UNL     1      22.394   2.868  49.566  1.00  0.00    -0.406 N 
HETATM    7  C5  UNL     1      23.417   3.156  48.631  1.00  0.00     0.137 C 
HETATM    8  C6  UNL     1      24.718   3.417  49.409  1.00  0.00     0.142 C 
HETATM    9  N3  UNL     1      24.384   3.532  50.838  1.00  0.00    -0.381 N 
HETATM   10  C7  UNL     1      23.328   4.550  50.962  1.00  0.00     0.142 C 
HETATM   11  C8  UNL     1      22.036   3.970  50.359  1.00  0.00     0.137 C 
HETATM   12  C9  UNL     1      24.866   2.833  51.954  1.00  0.00     0.011 C 
HETATM   13  C10 UNL     1      25.849   2.127  52.548  1.00  0.00     0.025 C 
HETATM   14  C11 UNL     1      25.188   1.019  53.318  1.00  0.00     0.011 C 
HETATM   15  C12 UNL     1      23.896   1.195  53.087  1.00  0.00    -0.033 C 
HETATM   16  C13 UNL     1      22.664   0.515  52.793  1.00  0.00     0.146 C 
HETATM   17  N4  UNL     1      21.940  -0.518  52.463  1.00  0.00    -0.176 NA
HETATM   18  N5  UNL     1      20.545  -0.397  52.341  1.00  0.00    -0.198 N 
HETATM   19  C14 UNL     1      19.471  -0.878  53.091  1.00  0.00     0.160 A 
HETATM   20  C15 UNL     1      18.205  -0.467  52.704  1.00  0.00     0.098 A 
HETATM   21  N6  UNL     1      18.372  -1.350  53.833  1.00  0.00    -0.335 N 
HETATM   22  C16 UNL     1      23.852   2.722  53.082  1.00  0.00     0.097 C 
HETATM   23  H16 UNL     1      18.149  -1.958  54.649  1.00  0.00     0.168 HD
ENDROOT
TORSDOF 0
ENDMDL
MODEL 9
REMARK VINA RESULT:      -7.0      3.394      5.280
REMARK  0 active torsions:
REMARK  status: ('A' for Active; 'I' for Inactive)
ROOT
HETATM    1  C1  UNL     1      22.729   7.381  49.788  1.00  0.00     0.152 A 
HETATM    2  N1  UNL     1      21.820   6.514  50.163  1.00  0.00    -0.239 NA
HETATM    3  C2  UNL     1      22.144   5.557  51.195  1.00  0.00     0.150 A 
HETATM    4  C3  UNL     1      21.087   4.800  51.418  1.00  0.00     0.045 C 
HETATM    5  C4  UNL     1      19.733   4.357  51.208  1.00  0.00     0.148 C 
HETATM    6  N2  UNL     1      19.593   2.994  50.885  1.00  0.00    -0.406 N 
HETATM    7  C5  UNL     1      18.513   2.265  51.437  1.00  0.00     0.137 C 
HETATM    8  C6  UNL     1      19.032   0.875  51.846  1.00  0.00     0.142 C 
HETATM    9  N3  UNL     1      20.384   0.707  51.286  1.00  0.00    -0.381 N 
HETATM   10  C7  UNL     1      20.297   0.978  49.842  1.00  0.00     0.142 C 
HETATM   11  C8  UNL     1      20.040   2.484  49.656  1.00  0.00     0.137 C 
HETATM   12  C9  UNL     1      21.603   0.400  51.905  1.00  0.00     0.011 C 
HETATM   13  C10 UNL     1      22.280  -0.168  52.924  1.00  0.00     0.025 C 
HETATM   14  C11 UNL     1      23.418   0.752  53.260  1.00  0.00     0.011 C 
HETATM   15  C12 UNL     1      23.281   1.757  52.407  1.00  0.00    -0.033 C 
HETATM   16  C13 UNL     1      23.342   3.187  52.276  1.00  0.00     0.146 C 
HETATM   17  N4  UNL     1      23.423   4.407  52.728  1.00  0.00    -0.176 NA
HETATM   18  N5  UNL     1      23.417   5.495  51.838  1.00  0.00    -0.198 N 
HETATM   19  C14 UNL     1      24.386   6.418  51.442  1.00  0.00     0.160 A 
HETATM   20  C15 UNL     1      24.026   7.316  50.450  1.00  0.00     0.098 A 
HETATM   21  N6  UNL     1      25.348   7.357  51.027  1.00  0.00    -0.335 N 
HETATM   22  C16 UNL     1      22.811   0.977  51.182  1.00  0.00     0.097 C 
HETATM   23  H16 UNL     1      26.330   7.647  51.218  1.00  0.00     0.168 HD
ENDROOT
TORSDOF 0
ENDMDL
