MODEL 1
REMARK VINA RESULT:      -7.5      0.000      0.000
REMARK  6 active torsions:
REMARK  status: ('A' for Active; 'I' for Inactive)
REMARK    1  A    between atoms: O1_2  and  C2_3 
REMARK    2  A    between atoms: C2_3  and  C3_4 
REMARK    3  A    between atoms: C3_4  and  C4_5 
REMARK    4  A    between atoms: C10_13  and  O2_14 
REMARK    5  A    between atoms: C13_17  and  O3_18 
REMARK    6  A    between atoms: P1_21  and  O4_23 
ROOT
HETATM    1  C4  UNL     1      21.847   0.209  52.572  1.00  0.00     0.069 A 
HETATM    2  N1  UNL     1      20.595   0.268  52.092  1.00  0.00    -0.241 NA
HETATM    3  C5  UNL     1      20.073   1.455  51.659  1.00  0.00     0.234 A 
HETATM    4  N2  UNL     1      20.811   2.575  51.711  1.00  0.00    -0.234 NA
HETATM    5  C6  UNL     1      22.068   2.600  52.176  1.00  0.00     0.112 A 
HETATM    6  C7  UNL     1      22.541   1.399  52.594  1.00  0.00     0.025 A 
HETATM    7  C8  UNL     1      23.724   1.089  53.099  1.00  0.00    -0.004 C 
HETATM    8  C9  UNL     1      24.974   1.771  53.430  1.00  0.00     0.093 C 
HETATM    9  C10 UNL     1      25.671   2.338  52.246  1.00  0.00     0.058 C 
HETATM   10  C11 UNL     1      25.414   3.334  51.383  1.00  0.00     0.015 C 
HETATM   11  C12 UNL     1      26.534   3.344  50.450  1.00  0.00     0.048 C 
HETATM   12  C13 UNL     1      26.551   4.237  49.474  1.00  0.00     0.052 C 
HETATM   13  C15 UNL     1      25.580   5.300  49.125  1.00  0.00     0.126 C 
HETATM   14  P1  UNL     1      24.389   5.614  50.429  1.00  0.00     0.015 P 
HETATM   15  C16 UNL     1      22.797   6.003  49.699  1.00  0.00     0.074 C 
HETATM   16  C17 UNL     1      24.271   4.264  51.320  1.00  0.00     0.044 C 
HETATM   17  S1  UNL     1      22.634   4.274  52.051  1.00  0.00    -0.066 SA
ENDROOT
BRANCH   1  18
HETATM   18  C3  UNL     1      22.280  -0.997  52.976  1.00  0.00     0.031 C 
BRANCH  18  19
HETATM   19  C2  UNL     1      21.400  -1.547  54.024  1.00  0.00     0.196 C 
BRANCH  19  20
HETATM   20  O1  UNL     1      21.817  -1.104  55.305  1.00  0.00    -0.392 OA
HETATM   21  C1  UNL     1      23.131  -1.516  55.498  1.00  0.00     0.201 C 
ENDBRANCH  19  20
ENDBRANCH  18  19
ENDBRANCH   1  18
BRANCH   9  22
HETATM   22  O2  UNL     1      26.887   1.737  51.892  1.00  0.00    -0.364 OA
HETATM   23  H11 UNL     1      26.847   0.775  51.565  1.00  0.00     0.217 HD
ENDBRANCH   9  22
BRANCH  14  24
HETATM   24  O4  UNL     1      24.928   6.839  51.483  1.00  0.00    -0.374 OA
HETATM   25  H21 UNL     1      25.879   6.646  51.760  1.00  0.00     0.214 HD
ENDBRANCH  14  24
BRANCH  12  26
HETATM   26  O3  UNL     1      27.617   4.243  48.591  1.00  0.00    -0.360 OA
HETATM   27  C14 UNL     1      28.489   5.299  48.344  1.00  0.00     0.209 C 
ENDBRANCH  12  26
TORSDOF 6
ENDMDL
MODEL 2
REMARK VINA RESULT:      -7.3      2.948      5.020
REMARK  6 active torsions:
REMARK  status: ('A' for Active; 'I' for Inactive)
REMARK    1  A    between atoms: O1_2  and  C2_3 
REMARK    2  A    between atoms: C2_3  and  C3_4 
REMARK    3  A    between atoms: C3_4  and  C4_5 
REMARK    4  A    between atoms: C10_13  and  O2_14 
REMARK    5  A    between atoms: C13_17  and  O3_18 
REMARK    6  A    between atoms: P1_21  and  O4_23 
ROOT
HETATM    1  C4  UNL     1      18.515  -0.314  52.007  1.00  0.00     0.069 A 
HETATM    2  N1  UNL     1      18.137   0.045  50.771  1.00  0.00    -0.241 NA
HETATM    3  C5  UNL     1      18.821   1.014  50.090  1.00  0.00     0.234 A 
HETATM    4  N2  UNL     1      19.879   1.615  50.655  1.00  0.00    -0.234 NA
HETATM    5  C6  UNL     1      20.320   1.314  51.885  1.00  0.00     0.112 A 
HETATM    6  C7  UNL     1      19.609   0.349  52.520  1.00  0.00     0.025 A 
HETATM    7  C8  UNL     1      19.781  -0.170  53.725  1.00  0.00    -0.004 C 
HETATM    8  C9  UNL     1      20.694  -0.006  54.855  1.00  0.00     0.093 C 
HETATM    9  C10 UNL     1      22.100  -0.373  54.539  1.00  0.00     0.058 C 
HETATM   10  C11 UNL     1      23.059   0.143  53.753  1.00  0.00     0.015 C 
HETATM   11  C12 UNL     1      24.213  -0.731  53.918  1.00  0.00     0.048 C 
HETATM   12  C13 UNL     1      25.324  -0.462  53.253  1.00  0.00     0.052 C 
HETATM   13  C15 UNL     1      25.638   0.633  52.306  1.00  0.00     0.126 C 
HETATM   14  P1  UNL     1      24.430   1.958  52.345  1.00  0.00     0.015 P 
HETATM   15  C16 UNL     1      24.210   2.610  50.688  1.00  0.00     0.074 C 
HETATM   16  C17 UNL     1      23.034   1.331  52.880  1.00  0.00     0.044 C 
HETATM   17  S1  UNL     1      21.723   2.349  52.202  1.00  0.00    -0.066 SA
ENDROOT
BRANCH   1  18
HETATM   18  C3  UNL     1      17.786  -1.273  52.605  1.00  0.00     0.031 C 
BRANCH  18  19
HETATM   19  C2  UNL     1      16.345  -1.052  52.383  1.00  0.00     0.196 C 
BRANCH  19  20
HETATM   20  O1  UNL     1      15.869  -0.010  53.217  1.00  0.00    -0.392 OA
HETATM   21  C1  UNL     1      14.527   0.201  52.921  1.00  0.00     0.201 C 
ENDBRANCH  19  20
ENDBRANCH  18  19
ENDBRANCH   1  18
BRANCH   9  22
HETATM   22  O2  UNL     1      22.604  -1.515  55.175  1.00  0.00    -0.364 OA
HETATM   23  H11 UNL     1      23.223  -1.364  55.968  1.00  0.00     0.217 HD
ENDBRANCH   9  22
BRANCH  14  24
HETATM   24  O4  UNL     1      24.870   3.170  53.458  1.00  0.00    -0.374 OA
HETATM   25  H21 UNL     1      25.458   3.848  52.997  1.00  0.00     0.214 HD
ENDBRANCH  14  24
BRANCH  12  26
HETATM   26  O3  UNL     1      26.419  -1.295  53.413  1.00  0.00    -0.360 OA
HETATM   27  C14 UNL     1      27.742  -1.003  53.096  1.00  0.00     0.209 C 
ENDBRANCH  12  26
TORSDOF 6
ENDMDL
MODEL 3
REMARK VINA RESULT:      -6.8      3.228      4.484
REMARK  6 active torsions:
REMARK  status: ('A' for Active; 'I' for Inactive)
REMARK    1  A    between atoms: O1_2  and  C2_3 
REMARK    2  A    between atoms: C2_3  and  C3_4 
REMARK    3  A    between atoms: C3_4  and  C4_5 
REMARK    4  A    between atoms: C10_13  and  O2_14 
REMARK    5  A    between atoms: C13_17  and  O3_18 
REMARK    6  A    between atoms: P1_21  and  O4_23 
ROOT
HETATM    1  C4  UNL     1      24.643   0.278  53.470  1.00  0.00     0.069 A 
HETATM    2  N1  UNL     1      24.043  -0.802  53.993  1.00  0.00    -0.241 NA
HETATM    3  C5  UNL     1      22.681  -0.922  53.965  1.00  0.00     0.234 A 
HETATM    4  N2  UNL     1      21.931   0.044  53.412  1.00  0.00    -0.234 NA
HETATM    5  C6  UNL     1      22.452   1.153  52.868  1.00  0.00     0.112 A 
HETATM    6  C7  UNL     1      23.806   1.226  52.921  1.00  0.00     0.025 A 
HETATM    7  C8  UNL     1      24.616   2.175  52.480  1.00  0.00    -0.004 C 
HETATM    8  C9  UNL     1      24.507   3.465  51.801  1.00  0.00     0.093 C 
HETATM    9  C10 UNL     1      23.940   3.366  50.430  1.00  0.00     0.058 C 
HETATM   10  C11 UNL     1      22.736   3.053  49.924  1.00  0.00     0.015 C 
HETATM   11  C12 UNL     1      22.882   3.155  48.477  1.00  0.00     0.048 C 
HETATM   12  C13 UNL     1      21.838   2.898  47.706  1.00  0.00     0.052 C 
HETATM   13  C15 UNL     1      20.456   2.498  48.059  1.00  0.00     0.126 C 
HETATM   14  P1  UNL     1      20.084   2.730  49.798  1.00  0.00     0.015 P 
HETATM   15  C16 UNL     1      19.007   1.407  50.356  1.00  0.00     0.074 C 
HETATM   16  C17 UNL     1      21.487   2.676  50.610  1.00  0.00     0.044 C 
HETATM   17  S1  UNL     1      21.097   2.125  52.270  1.00  0.00    -0.066 SA
ENDROOT
BRANCH   1  18
HETATM   18  C3  UNL     1      25.985   0.316  53.540  1.00  0.00     0.031 C 
BRANCH  18  19
HETATM   19  C2  UNL     1      26.440   0.189  54.937  1.00  0.00     0.196 C 
BRANCH  19  20
HETATM   20  O1  UNL     1      27.697  -0.465  54.991  1.00  0.00    -0.392 OA
HETATM   21  C1  UNL     1      28.678   0.455  54.634  1.00  0.00     0.201 C 
ENDBRANCH  19  20
ENDBRANCH  18  19
ENDBRANCH   1  18
BRANCH   9  22
HETATM   22  O2  UNL     1      24.814   3.653  49.373  1.00  0.00    -0.364 OA
HETATM   23  H11 UNL     1      25.805   3.705  49.595  1.00  0.00     0.217 HD
ENDBRANCH   9  22
BRANCH  14  24
HETATM   24  O4  UNL     1      19.417   4.268  50.093  1.00  0.00    -0.374 OA
HETATM   25  H21 UNL     1      18.754   4.490  49.365  1.00  0.00     0.214 HD
ENDBRANCH  14  24
BRANCH  12  26
HETATM   26  O3  UNL     1      21.981   2.996  46.333  1.00  0.00    -0.360 OA
HETATM   27  C14 UNL     1      21.931   4.159  45.570  1.00  0.00     0.209 C 
ENDBRANCH  12  26
TORSDOF 6
ENDMDL
MODEL 4
REMARK VINA RESULT:      -6.6      3.496      5.988
REMARK  6 active torsions:
REMARK  status: ('A' for Active; 'I' for Inactive)
REMARK    1  A    between atoms: O1_2  and  C2_3 
REMARK    2  A    between atoms: C2_3  and  C3_4 
REMARK    3  A    between atoms: C3_4  and  C4_5 
REMARK    4  A    between atoms: C10_13  and  O2_14 
REMARK    5  A    between atoms: C13_17  and  O3_18 
REMARK    6  A    between atoms: P1_21  and  O4_23 
ROOT
HETATM    1  C4  UNL     1      25.211   1.421  52.716  1.00  0.00     0.069 A 
HETATM    2  N1  UNL     1      26.173   2.272  52.328  1.00  0.00    -0.241 NA
HETATM    3  C5  UNL     1      26.035   2.997  51.176  1.00  0.00     0.234 A 
HETATM    4  N2  UNL     1      24.934   2.861  50.422  1.00  0.00    -0.234 NA
HETATM    5  C6  UNL     1      23.929   2.033  50.739  1.00  0.00     0.112 A 
HETATM    6  C7  UNL     1      24.111   1.336  51.890  1.00  0.00     0.025 A 
HETATM    7  C8  UNL     1      23.320   0.450  52.473  1.00  0.00    -0.004 C 
HETATM    8  C9  UNL     1      22.017  -0.166  52.229  1.00  0.00     0.093 C 
HETATM    9  C10 UNL     1      20.890   0.803  52.259  1.00  0.00     0.058 C 
HETATM   10  C11 UNL     1      20.498   1.824  51.479  1.00  0.00     0.015 C 
HETATM   11  C12 UNL     1      19.290   2.351  52.103  1.00  0.00     0.048 C 
HETATM   12  C13 UNL     1      18.674   3.379  51.543  1.00  0.00     0.052 C 
HETATM   13  C15 UNL     1      19.002   4.149  50.320  1.00  0.00     0.126 C 
HETATM   14  P1  UNL     1      20.224   3.337  49.290  1.00  0.00     0.015 P 
HETATM   15  C16 UNL     1      21.289   4.573  48.544  1.00  0.00     0.074 C 
HETATM   16  C17 UNL     1      21.100   2.362  50.246  1.00  0.00     0.044 C 
HETATM   17  S1  UNL     1      22.705   2.188  49.467  1.00  0.00    -0.066 SA
ENDROOT
BRANCH   1  18
HETATM   18  C3  UNL     1      25.427   0.749  53.859  1.00  0.00     0.031 C 
BRANCH  18  19
HETATM   19  C2  UNL     1      26.610  -0.124  53.740  1.00  0.00     0.196 C 
BRANCH  19  20
HETATM   20  O1  UNL     1      27.257  -0.257  54.994  1.00  0.00    -0.392 OA
HETATM   21  C1  UNL     1      28.581   0.140  54.842  1.00  0.00     0.201 C 
ENDBRANCH  19  20
ENDBRANCH  18  19
ENDBRANCH   1  18
BRANCH   9  22
HETATM   22  O2  UNL     1      19.988   0.677  53.325  1.00  0.00    -0.364 OA
HETATM   23  H11 UNL     1      19.112   0.198  53.132  1.00  0.00     0.217 HD
ENDBRANCH   9  22
BRANCH  14  24
HETATM   24  O4  UNL     1      19.491   2.335  48.125  1.00  0.00    -0.374 OA
HETATM   25  H21 UNL     1      18.580   2.051  48.455  1.00  0.00     0.214 HD
ENDBRANCH  14  24
BRANCH  12  26
HETATM   26  O3  UNL     1      17.527   3.877  52.138  1.00  0.00    -0.360 OA
HETATM   27  C14 UNL     1      16.335   4.208  51.501  1.00  0.00     0.209 C 
ENDBRANCH  12  26
TORSDOF 6
ENDMDL
MODEL 5
REMARK VINA RESULT:      -6.6      9.522     11.909
REMARK  6 active torsions:
REMARK  status: ('A' for Active; 'I' for Inactive)
REMARK    1  A    between atoms: O1_2  and  C2_3 
REMARK    2  A    between atoms: C2_3  and  C3_4 
REMARK    3  A    between atoms: C3_4  and  C4_5 
REMARK    4  A    between atoms: C10_13  and  O2_14 
REMARK    5  A    between atoms: C13_17  and  O3_18 
REMARK    6  A    between atoms: P1_21  and  O4_23 
ROOT
HETATM    1  C4  UNL     1      33.908   4.110  46.821  1.00  0.00     0.069 A 
HETATM    2  N1  UNL     1      32.938   3.227  46.539  1.00  0.00    -0.241 NA
HETATM    3  C5  UNL     1      31.670   3.413  47.017  1.00  0.00     0.234 A 
HETATM    4  N2  UNL     1      31.386   4.483  47.775  1.00  0.00    -0.234 NA
HETATM    5  C6  UNL     1      32.298   5.410  48.101  1.00  0.00     0.112 A 
HETATM    6  C7  UNL     1      33.540   5.182  47.604  1.00  0.00     0.025 A 
HETATM    7  C8  UNL     1      34.646   5.895  47.740  1.00  0.00    -0.004 C 
HETATM    8  C9  UNL     1      35.066   7.129  48.402  1.00  0.00     0.093 C 
HETATM    9  C10 UNL     1      34.395   8.344  47.869  1.00  0.00     0.058 C 
HETATM   10  C11 UNL     1      33.138   8.818  47.891  1.00  0.00     0.015 C 
HETATM   11  C12 UNL     1      33.184  10.081  47.165  1.00  0.00     0.048 C 
HETATM   12  C13 UNL     1      32.071  10.783  47.025  1.00  0.00     0.052 C 
HETATM   13  C15 UNL     1      30.694  10.508  47.498  1.00  0.00     0.126 C 
HETATM   14  P1  UNL     1      30.623   9.196  48.719  1.00  0.00     0.015 P 
HETATM   15  C16 UNL     1      29.123   8.242  48.478  1.00  0.00     0.074 C 
HETATM   16  C17 UNL     1      31.920   8.249  48.495  1.00  0.00     0.044 C 
HETATM   17  S1  UNL     1      31.475   6.620  49.099  1.00  0.00    -0.066 SA
ENDROOT
BRANCH   1  18
HETATM   18  C3  UNL     1      35.125   3.850  46.311  1.00  0.00     0.031 C 
BRANCH  18  19
HETATM   19  C2  UNL     1      35.063   3.725  44.843  1.00  0.00     0.196 C 
BRANCH  19  20
HETATM   20  O1  UNL     1      34.753   4.976  44.252  1.00  0.00    -0.392 OA
HETATM   21  C1  UNL     1      33.869   4.750  43.202  1.00  0.00     0.201 C 
ENDBRANCH  19  20
ENDBRANCH  18  19
ENDBRANCH   1  18
BRANCH   9  22
HETATM   22  O2  UNL     1      35.205   9.248  47.169  1.00  0.00    -0.364 OA
HETATM   23  H11 UNL     1      36.209   9.093  47.211  1.00  0.00     0.217 HD
ENDBRANCH   9  22
BRANCH  14  24
HETATM   24  O4  UNL     1      30.745   9.811  50.302  1.00  0.00    -0.374 OA
HETATM   25  H21 UNL     1      30.287  10.709  50.348  1.00  0.00     0.214 HD
ENDBRANCH  14  24
BRANCH  12  26
HETATM   26  O3  UNL     1      32.118  11.982  46.335  1.00  0.00    -0.360 OA
HETATM   27  C14 UNL     1      31.248  12.402  45.334  1.00  0.00     0.209 C 
ENDBRANCH  12  26
TORSDOF 6
ENDMDL
MODEL 6
REMARK VINA RESULT:      -6.6      3.151      4.314
REMARK  6 active torsions:
REMARK  status: ('A' for Active; 'I' for Inactive)
REMARK    1  A    between atoms: O1_2  and  C2_3 
REMARK    2  A    between atoms: C2_3  and  C3_4 
REMARK    3  A    between atoms: C3_4  and  C4_5 
REMARK    4  A    between atoms: C10_13  and  O2_14 
REMARK    5  A    between atoms: C13_17  and  O3_18 
REMARK    6  A    between atoms: P1_21  and  O4_23 
ROOT
HETATM    1  C4  UNL     1      22.147   3.270  48.066  1.00  0.00     0.069 A 
HETATM    2  N1  UNL     1      21.161   3.925  47.435  1.00  0.00    -0.241 NA
HETATM    3  C5  UNL     1      21.080   5.289  47.503  1.00  0.00     0.234 A 
HETATM    4  N2  UNL     1      21.988   5.984  48.204  1.00  0.00    -0.234 NA
HETATM    5  C6  UNL     1      23.002   5.405  48.862  1.00  0.00     0.112 A 
HETATM    6  C7  UNL     1      23.041   4.052  48.766  1.00  0.00     0.025 A 
HETATM    7  C8  UNL     1      23.900   3.194  49.290  1.00  0.00    -0.004 C 
HETATM    8  C9  UNL     1      25.094   3.233  50.132  1.00  0.00     0.093 C 
HETATM    9  C10 UNL     1      26.242   3.936  49.500  1.00  0.00     0.058 C 
HETATM   10  C11 UNL     1      26.500   5.209  49.159  1.00  0.00     0.015 C 
HETATM   11  C12 UNL     1      27.834   5.194  48.572  1.00  0.00     0.048 C 
HETATM   12  C13 UNL     1      28.359   6.328  48.139  1.00  0.00     0.052 C 
HETATM   13  C15 UNL     1      27.810   7.704  48.136  1.00  0.00     0.126 C 
HETATM   14  P1  UNL     1      26.363   7.881  49.180  1.00  0.00     0.015 P 
HETATM   15  C16 UNL     1      25.216   9.030  48.417  1.00  0.00     0.074 C 
HETATM   16  C17 UNL     1      25.672   6.419  49.310  1.00  0.00     0.044 C 
HETATM   17  S1  UNL     1      23.931   6.703  49.632  1.00  0.00    -0.066 SA
ENDROOT
BRANCH   1  18
HETATM   18  C3  UNL     1      22.152   1.931  47.947  1.00  0.00     0.031 C 
BRANCH  18  19
HETATM   19  C2  UNL     1      21.029   1.334  48.693  1.00  0.00     0.196 C 
BRANCH  19  20
HETATM   20  O1  UNL     1      21.504   0.649  49.840  1.00  0.00    -0.392 OA
HETATM   21  C1  UNL     1      20.826   1.143  50.949  1.00  0.00     0.201 C 
ENDBRANCH  19  20
ENDBRANCH  18  19
ENDBRANCH   1  18
BRANCH   9  22
HETATM   22  O2  UNL     1      27.344   3.143  49.153  1.00  0.00    -0.364 OA
HETATM   23  H11 UNL     1      28.120   3.122  49.810  1.00  0.00     0.217 HD
ENDBRANCH   9  22
BRANCH  14  24
HETATM   24  O4  UNL     1      26.788   8.353  50.760  1.00  0.00    -0.374 OA
HETATM   25  H21 UNL     1      27.097   9.313  50.750  1.00  0.00     0.214 HD
ENDBRANCH  14  24
BRANCH  12  26
HETATM   26  O3  UNL     1      29.626   6.309  47.582  1.00  0.00    -0.360 OA
HETATM   27  C14 UNL     1      30.648   5.407  47.864  1.00  0.00     0.209 C 
ENDBRANCH  12  26
TORSDOF 6
ENDMDL
MODEL 7
REMARK VINA RESULT:      -6.5      2.897      7.015
REMARK  6 active torsions:
REMARK  status: ('A' for Active; 'I' for Inactive)
REMARK    1  A    between atoms: O1_2  and  C2_3 
REMARK    2  A    between atoms: C2_3  and  C3_4 
REMARK    3  A    between atoms: C3_4  and  C4_5 
REMARK    4  A    between atoms: C10_13  and  O2_14 
REMARK    5  A    between atoms: C13_17  and  O3_18 
REMARK    6  A    between atoms: P1_21  and  O4_23 
ROOT
HETATM    1  C4  UNL     1      24.948   7.186  50.204  1.00  0.00     0.069 A 
HETATM    2  N1  UNL     1      23.993   8.064  50.547  1.00  0.00    -0.241 NA
HETATM    3  C5  UNL     1      22.704   7.649  50.736  1.00  0.00     0.234 A 
HETATM    4  N2  UNL     1      22.383   6.355  50.580  1.00  0.00    -0.234 NA
HETATM    5  C6  UNL     1      23.278   5.417  50.239  1.00  0.00     0.112 A 
HETATM    6  C7  UNL     1      24.542   5.877  50.062  1.00  0.00     0.025 A 
HETATM    7  C8  UNL     1      25.639   5.219  49.728  1.00  0.00    -0.004 C 
HETATM    8  C9  UNL     1      26.026   3.844  49.414  1.00  0.00     0.093 C 
HETATM    9  C10 UNL     1      25.858   2.907  50.556  1.00  0.00     0.058 C 
HETATM   10  C11 UNL     1      24.805   2.407  51.223  1.00  0.00     0.015 C 
HETATM   11  C12 UNL     1      25.368   1.533  52.245  1.00  0.00     0.048 C 
HETATM   12  C13 UNL     1      24.551   0.893  53.066  1.00  0.00     0.052 C 
HETATM   13  C15 UNL     1      23.072   0.898  53.149  1.00  0.00     0.126 C 
HETATM   14  P1  UNL     1      22.293   1.621  51.704  1.00  0.00     0.015 P 
HETATM   15  C16 UNL     1      20.828   2.525  52.209  1.00  0.00     0.074 C 
HETATM   16  C17 UNL     1      23.362   2.638  51.030  1.00  0.00     0.044 C 
HETATM   17  S1  UNL     1      22.407   3.876  50.153  1.00  0.00    -0.066 SA
ENDROOT
BRANCH   1  18
HETATM   18  C3  UNL     1      26.188   7.680  50.038  1.00  0.00     0.031 C 
BRANCH  18  19
HETATM   19  C2  UNL     1      26.162   9.153  49.976  1.00  0.00     0.196 C 
BRANCH  19  20
HETATM   20  O1  UNL     1      27.085   9.624  49.008  1.00  0.00    -0.392 OA
HETATM   21  C1  UNL     1      28.365   9.513  49.543  1.00  0.00     0.201 C 
ENDBRANCH  19  20
ENDBRANCH  18  19
ENDBRANCH   1  18
BRANCH   9  22
HETATM   22  O2  UNL     1      27.034   2.388  51.115  1.00  0.00    -0.364 OA
HETATM   23  H11 UNL     1      27.641   3.043  51.599  1.00  0.00     0.217 HD
ENDBRANCH   9  22
BRANCH  14  24
HETATM   24  O4  UNL     1      21.945   0.440  50.528  1.00  0.00    -0.374 OA
HETATM   25  H21 UNL     1      22.437   0.664  49.675  1.00  0.00     0.214 HD
ENDBRANCH  14  24
BRANCH  12  26
HETATM   26  O3  UNL     1      25.090   0.065  54.035  1.00  0.00    -0.360 OA
HETATM   27  C14 UNL     1      26.269   0.270  54.746  1.00  0.00     0.209 C 
ENDBRANCH  12  26
TORSDOF 6
ENDMDL
MODEL 8
REMARK VINA RESULT:      -6.1      5.613      7.034
REMARK  6 active torsions:
REMARK  status: ('A' for Active; 'I' for Inactive)
REMARK    1  A    between atoms: O1_2  and  C2_3 
REMARK    2  A    between atoms: C2_3  and  C3_4 
REMARK    3  A    between atoms: C3_4  and  C4_5 
REMARK    4  A    between atoms: C10_13  and  O2_14 
REMARK    5  A    between atoms: C13_17  and  O3_18 
REMARK    6  A    between atoms: P1_21  and  O4_23 
ROOT
HETATM    1  C4  UNL     1      22.766   6.091  47.154  1.00  0.00     0.069 A 
HETATM    2  N1  UNL     1      22.168   7.014  46.386  1.00  0.00    -0.241 NA
HETATM    3  C5  UNL     1      22.606   8.310  46.390  1.00  0.00     0.234 A 
HETATM    4  N2  UNL     1      23.640   8.669  47.166  1.00  0.00    -0.234 NA
HETATM    5  C6  UNL     1      24.291   7.808  47.961  1.00  0.00     0.112 A 
HETATM    6  C7  UNL     1      23.820   6.536  47.923  1.00  0.00     0.025 A 
HETATM    7  C8  UNL     1      24.234   5.464  48.577  1.00  0.00    -0.004 C 
HETATM    8  C9  UNL     1      25.269   5.121  49.552  1.00  0.00     0.093 C 
HETATM    9  C10 UNL     1      26.651   5.291  49.033  1.00  0.00     0.058 C 
HETATM   10  C11 UNL     1      27.406   6.343  48.675  1.00  0.00     0.015 C 
HETATM   11  C12 UNL     1      28.683   5.782  48.250  1.00  0.00     0.048 C 
HETATM   12  C13 UNL     1      29.638   6.599  47.837  1.00  0.00     0.052 C 
HETATM   13  C15 UNL     1      29.657   8.075  47.716  1.00  0.00     0.126 C 
HETATM   14  P1  UNL     1      28.294   8.864  48.575  1.00  0.00     0.015 P 
HETATM   15  C16 UNL     1      27.749  10.293  47.637  1.00  0.00     0.074 C 
HETATM   16  C17 UNL     1      27.090   7.783  48.679  1.00  0.00     0.044 C 
HETATM   17  S1  UNL     1      25.566   8.722  48.783  1.00  0.00    -0.066 SA
ENDROOT
BRANCH   1  18
HETATM   18  C3  UNL     1      22.272   4.842  47.089  1.00  0.00     0.031 C 
BRANCH  18  19
HETATM   19  C2  UNL     1      21.255   4.735  46.026  1.00  0.00     0.196 C 
BRANCH  19  20
HETATM   20  O1  UNL     1      21.716   3.892  44.983  1.00  0.00    -0.392 OA
HETATM   21  C1  UNL     1      20.819   3.986  43.925  1.00  0.00     0.201 C 
ENDBRANCH  19  20
ENDBRANCH  18  19
ENDBRANCH   1  18
BRANCH   9  22
HETATM   22  O2  UNL     1      27.396   4.118  48.849  1.00  0.00    -0.364 OA
HETATM   23  H11 UNL     1      27.126   3.310  49.404  1.00  0.00     0.217 HD
ENDBRANCH   9  22
BRANCH  14  24
HETATM   24  O4  UNL     1      28.717   9.269  50.174  1.00  0.00    -0.374 OA
HETATM   25  H21 UNL     1      29.495   9.912  50.161  1.00  0.00     0.214 HD
ENDBRANCH  14  24
BRANCH  12  26
HETATM   26  O3  UNL     1      30.849   6.062  47.434  1.00  0.00    -0.360 OA
HETATM   27  C14 UNL     1      31.738   5.331  48.216  1.00  0.00     0.209 C 
ENDBRANCH  12  26
TORSDOF 6
ENDMDL
MODEL 9
REMARK VINA RESULT:      -6.1      6.733     10.318
REMARK  6 active torsions:
REMARK  status: ('A' for Active; 'I' for Inactive)
REMARK    1  A    between atoms: O1_2  and  C2_3 
REMARK    2  A    between atoms: C2_3  and  C3_4 
REMARK    3  A    between atoms: C3_4  and  C4_5 
REMARK    4  A    between atoms: C10_13  and  O2_14 
REMARK    5  A    between atoms: C13_17  and  O3_18 
REMARK    6  A    between atoms: P1_21  and  O4_23 
ROOT
HETATM    1  C4  UNL     1      28.896   6.281  48.387  1.00  0.00     0.069 A 
HETATM    2  N1  UNL     1      28.152   7.359  48.676  1.00  0.00    -0.241 NA
HETATM    3  C5  UNL     1      28.734   8.591  48.800  1.00  0.00     0.234 A 
HETATM    4  N2  UNL     1      30.058   8.731  48.634  1.00  0.00    -0.234 NA
HETATM    5  C6  UNL     1      30.870   7.705  48.344  1.00  0.00     0.112 A 
HETATM    6  C7  UNL     1      30.247   6.504  48.231  1.00  0.00     0.025 A 
HETATM    7  C8  UNL     1      30.755   5.314  47.957  1.00  0.00    -0.004 C 
HETATM    8  C9  UNL     1      32.067   4.734  47.672  1.00  0.00     0.093 C 
HETATM    9  C10 UNL     1      32.677   5.241  46.414  1.00  0.00     0.058 C 
HETATM   10  C11 UNL     1      33.166   6.425  46.009  1.00  0.00     0.015 C 
HETATM   11  C12 UNL     1      33.612   6.215  44.637  1.00  0.00     0.048 C 
HETATM   12  C13 UNL     1      34.148   7.226  43.973  1.00  0.00     0.052 C 
HETATM   13  C15 UNL     1      34.396   8.626  44.388  1.00  0.00     0.126 C 
HETATM   14  P1  UNL     1      34.246   8.867  46.159  1.00  0.00     0.015 P 
HETATM   15  C16 UNL     1      33.529  10.480  46.480  1.00  0.00     0.074 C 
HETATM   16  C17 UNL     1      33.268   7.706  46.730  1.00  0.00     0.044 C 
HETATM   17  S1  UNL     1      32.511   8.360  48.218  1.00  0.00    -0.066 SA
ENDROOT
BRANCH   1  18
HETATM   18  C3  UNL     1      28.245   5.110  48.283  1.00  0.00     0.031 C 
BRANCH  18  19
HETATM   19  C2  UNL     1      26.910   5.195  48.905  1.00  0.00     0.196 C 
BRANCH  19  20
HETATM   20  O1  UNL     1      26.670   4.061  49.721  1.00  0.00    -0.392 OA
HETATM   21  C1  UNL     1      25.335   3.701  49.578  1.00  0.00     0.201 C 
ENDBRANCH  19  20
ENDBRANCH  18  19
ENDBRANCH   1  18
BRANCH   9  22
HETATM   22  O2  UNL     1      32.798   4.320  45.365  1.00  0.00    -0.364 OA
HETATM   23  H11 UNL     1      33.717   3.909  45.217  1.00  0.00     0.217 HD
ENDBRANCH   9  22
BRANCH  14  24
HETATM   24  O4  UNL     1      35.743   8.663  46.944  1.00  0.00    -0.374 OA
HETATM   25  H21 UNL     1      35.657   8.953  47.907  1.00  0.00     0.214 HD
ENDBRANCH  14  24
BRANCH  12  26
HETATM   26  O3  UNL     1      34.570   7.023  42.671  1.00  0.00    -0.360 OA
HETATM   27  C14 UNL     1      35.825   7.315  42.146  1.00  0.00     0.209 C 
ENDBRANCH  12  26
TORSDOF 6
ENDMDL
