MODEL 1
REMARK VINA RESULT:      -9.5      0.000      0.000
REMARK  3 active torsions:
REMARK  status: ('A' for Active; 'I' for Inactive)
REMARK    1  A    between atoms: C3_4  and  C4_5 
REMARK    2  A    between atoms: C8_11  and  S1_12 
REMARK    3  A    between atoms: C11_15  and  C12_16 
ROOT
HETATM    1  C4  UNL     1      24.223   0.113  53.522  1.00  0.00     0.090 A 
HETATM    2  C5  UNL     1      25.343  -0.278  54.228  1.00  0.00     0.038 A 
HETATM    3  C6  UNL     1      26.528   0.307  53.862  1.00  0.00     0.057 A 
HETATM    4  C7  UNL     1      26.657   1.251  52.842  1.00  0.00     0.175 A 
HETATM    5  N2  UNL     1      27.631   1.965  52.281  1.00  0.00    -0.128 NA
HETATM    6  N3  UNL     1      27.131   2.717  51.323  1.00  0.00    -0.121 NA
HETATM    7  C8  UNL     1      25.809   2.479  51.269  1.00  0.00     0.211 A 
HETATM    8  N5  UNL     1      25.496   1.572  52.205  1.00  0.00    -0.187 N 
HETATM    9  N6  UNL     1      24.333   1.029  52.528  1.00  0.00    -0.163 NA
ENDROOT
BRANCH   7  10
HETATM   10  S1  UNL     1      24.711   3.280  50.113  1.00  0.00    -0.089 SA
HETATM   11  C9  UNL     1      23.323   3.055  49.321  1.00  0.00     0.049 A 
HETATM   12  C10 UNL     1      23.404   4.357  48.673  1.00  0.00     0.025 A 
HETATM   13  C11 UNL     1      24.539   4.801  49.181  1.00  0.00     0.003 A 
BRANCH  13  14
HETATM   14  C12 UNL     1      25.363   5.995  49.080  1.00  0.00     0.027 C 
HETATM   15  C13 UNL     1      26.645   6.175  48.814  1.00  0.00    -0.037 A 
HETATM   16  C14 UNL     1      27.599   5.135  48.539  1.00  0.00     0.010 A 
HETATM   17  C17 UNL     1      27.202   7.532  48.782  1.00  0.00     0.186 A 
HETATM   18  C15 UNL     1      28.874   5.287  48.272  1.00  0.00     0.019 A 
HETATM   19  C16 UNL     1      29.393   6.631  48.248  1.00  0.00     0.110 A 
HETATM   20  N4  UNL     1      28.588   7.589  48.486  1.00  0.00    -0.297 NA
ENDBRANCH  13  14
ENDBRANCH   7  10
BRANCH   1  21
HETATM   21  C3  UNL     1      22.930  -0.472  53.863  1.00  0.00     0.031 A 
HETATM   22  C2  UNL     1      21.695  -0.337  53.255  1.00  0.00     0.127 A 
HETATM   23  N1  UNL     1      20.764  -1.062  53.906  1.00  0.00    -0.285 N 
HETATM   24  C1  UNL     1      19.365  -1.120  53.502  1.00  0.00     0.179 C 
HETATM   25  N7  UNL     1      21.373  -1.663  54.925  1.00  0.00    -0.185 NA
HETATM   26  C18 UNL     1      22.685  -1.325  54.924  1.00  0.00     0.154 A 
ENDBRANCH   1  21
TORSDOF 3
ENDMDL
MODEL 2
REMARK VINA RESULT:      -9.2      3.254      5.495
REMARK  3 active torsions:
REMARK  status: ('A' for Active; 'I' for Inactive)
REMARK    1  A    between atoms: C3_4  and  C4_5 
REMARK    2  A    between atoms: C8_11  and  S1_12 
REMARK    3  A    between atoms: C11_15  and  C12_16 
ROOT
HETATM    1  C4  UNL     1      21.790   0.257  52.655  1.00  0.00     0.090 A 
HETATM    2  C5  UNL     1      20.838  -0.419  53.391  1.00  0.00     0.038 A 
HETATM    3  C6  UNL     1      21.294  -1.118  54.480  1.00  0.00     0.057 A 
HETATM    4  C7  UNL     1      22.632  -1.178  54.871  1.00  0.00     0.175 A 
HETATM    5  N2  UNL     1      23.349  -1.747  55.839  1.00  0.00    -0.128 NA
HETATM    6  N3  UNL     1      24.619  -1.434  55.689  1.00  0.00    -0.121 NA
HETATM    7  C8  UNL     1      24.718  -0.648  54.603  1.00  0.00     0.211 A 
HETATM    8  N5  UNL     1      23.494  -0.477  54.082  1.00  0.00    -0.187 N 
HETATM    9  N6  UNL     1      23.094   0.208  53.023  1.00  0.00    -0.163 NA
ENDROOT
BRANCH   7  10
HETATM   10  S1  UNL     1      26.261   0.024  54.011  1.00  0.00    -0.089 SA
HETATM   11  C9  UNL     1      27.841   0.048  54.340  1.00  0.00     0.049 A 
HETATM   12  C10 UNL     1      28.133   0.905  53.198  1.00  0.00     0.025 A 
HETATM   13  C11 UNL     1      26.919   1.058  52.703  1.00  0.00     0.003 A 
BRANCH  13  14
HETATM   14  C12 UNL     1      26.298   1.749  51.585  1.00  0.00     0.027 C 
HETATM   15  C13 UNL     1      25.301   2.613  51.513  1.00  0.00    -0.037 A 
HETATM   16  C14 UNL     1      24.537   3.107  52.625  1.00  0.00     0.010 A 
HETATM   17  C17 UNL     1      24.890   3.150  50.211  1.00  0.00     0.186 A 
HETATM   18  C15 UNL     1      23.544   3.964  52.581  1.00  0.00     0.019 A 
HETATM   19  C16 UNL     1      23.163   4.474  51.288  1.00  0.00     0.110 A 
HETATM   20  N4  UNL     1      23.809   4.065  50.269  1.00  0.00    -0.297 NA
ENDBRANCH  13  14
ENDBRANCH   7  10
BRANCH   1  21
HETATM   21  C3  UNL     1      21.369   1.019  51.483  1.00  0.00     0.031 A 
HETATM   22  C2  UNL     1      21.860   1.022  50.189  1.00  0.00     0.127 A 
HETATM   23  N1  UNL     1      21.168   1.886  49.421  1.00  0.00    -0.285 N 
HETATM   24  C1  UNL     1      21.452   2.110  48.010  1.00  0.00     0.179 C 
HETATM   25  N7  UNL     1      20.240   2.445  50.194  1.00  0.00    -0.185 NA
HETATM   26  C18 UNL     1      20.337   1.939  51.447  1.00  0.00     0.154 A 
ENDBRANCH   1  21
TORSDOF 3
ENDMDL
MODEL 3
REMARK VINA RESULT:      -8.9      2.982      6.539
REMARK  3 active torsions:
REMARK  status: ('A' for Active; 'I' for Inactive)
REMARK    1  A    between atoms: C3_4  and  C4_5 
REMARK    2  A    between atoms: C8_11  and  S1_12 
REMARK    3  A    between atoms: C11_15  and  C12_16 
ROOT
HETATM    1  C4  UNL     1      25.536   2.387  51.715  1.00  0.00     0.090 A 
HETATM    2  C5  UNL     1      26.908   2.318  51.852  1.00  0.00     0.038 A 
HETATM    3  C6  UNL     1      27.388   1.326  52.670  1.00  0.00     0.057 A 
HETATM    4  C7  UNL     1      26.583   0.410  53.349  1.00  0.00     0.175 A 
HETATM    5  N2  UNL     1      26.750  -0.619  54.178  1.00  0.00    -0.128 NA
HETATM    6  N3  UNL     1      25.576  -1.118  54.504  1.00  0.00    -0.121 NA
HETATM    7  C8  UNL     1      24.638  -0.393  53.871  1.00  0.00     0.211 A 
HETATM    8  N5  UNL     1      25.244   0.560  53.149  1.00  0.00    -0.187 N 
HETATM    9  N6  UNL     1      24.742   1.504  52.368  1.00  0.00    -0.163 NA
ENDROOT
BRANCH   7  10
HETATM   10  S1  UNL     1      22.887  -0.708  54.014  1.00  0.00    -0.089 SA
HETATM   11  C9  UNL     1      21.838  -1.798  54.576  1.00  0.00     0.049 A 
HETATM   12  C10 UNL     1      20.689  -1.012  54.148  1.00  0.00     0.025 A 
HETATM   13  C11 UNL     1      21.303   0.026  53.609  1.00  0.00     0.003 A 
BRANCH  13  14
HETATM   14  C12 UNL     1      20.930   1.268  52.951  1.00  0.00     0.027 C 
HETATM   15  C13 UNL     1      21.080   1.701  51.712  1.00  0.00    -0.037 A 
HETATM   16  C14 UNL     1      21.703   0.975  50.639  1.00  0.00     0.010 A 
HETATM   17  C17 UNL     1      20.589   3.032  51.337  1.00  0.00     0.186 A 
HETATM   18  C15 UNL     1      21.864   1.381  49.402  1.00  0.00     0.019 A 
HETATM   19  C16 UNL     1      21.372   2.693  49.064  1.00  0.00     0.110 A 
HETATM   20  N4  UNL     1      20.812   3.378  49.981  1.00  0.00    -0.297 NA
ENDBRANCH  13  14
ENDBRANCH   7  10
BRANCH   1  21
HETATM   21  C3  UNL     1      24.962   3.421  50.858  1.00  0.00     0.031 A 
HETATM   22  C2  UNL     1      24.113   4.471  51.163  1.00  0.00     0.127 A 
HETATM   23  N1  UNL     1      23.831   5.188  50.058  1.00  0.00    -0.285 N 
HETATM   24  C1  UNL     1      22.961   6.357  50.062  1.00  0.00     0.179 C 
HETATM   25  N7  UNL     1      24.480   4.623  49.044  1.00  0.00    -0.185 NA
HETATM   26  C18 UNL     1      25.173   3.551  49.498  1.00  0.00     0.154 A 
ENDBRANCH   1  21
TORSDOF 3
ENDMDL
MODEL 4
REMARK VINA RESULT:      -8.7      2.024      4.449
REMARK  3 active torsions:
REMARK  status: ('A' for Active; 'I' for Inactive)
REMARK    1  A    between atoms: C3_4  and  C4_5 
REMARK    2  A    between atoms: C8_11  and  S1_12 
REMARK    3  A    between atoms: C11_15  and  C12_16 
ROOT
HETATM    1  C4  UNL     1      24.197   0.304  53.290  1.00  0.00     0.090 A 
HETATM    2  C5  UNL     1      23.414  -0.708  53.807  1.00  0.00     0.038 A 
HETATM    3  C6  UNL     1      22.058  -0.503  53.778  1.00  0.00     0.057 A 
HETATM    4  C7  UNL     1      21.447   0.642  53.265  1.00  0.00     0.175 A 
HETATM    5  N2  UNL     1      20.210   1.108  53.106  1.00  0.00    -0.128 NA
HETATM    6  N3  UNL     1      20.255   2.297  52.541  1.00  0.00    -0.121 NA
HETATM    7  C8  UNL     1      21.549   2.598  52.335  1.00  0.00     0.211 A 
HETATM    8  N5  UNL     1      22.304   1.582  52.778  1.00  0.00    -0.187 N 
HETATM    9  N6  UNL     1      23.618   1.423  52.789  1.00  0.00    -0.163 NA
ENDROOT
BRANCH   7  10
HETATM   10  S1  UNL     1      22.098   4.122  51.585  1.00  0.00    -0.089 SA
HETATM   11  C9  UNL     1      21.637   5.648  51.337  1.00  0.00     0.049 A 
HETATM   12  C10 UNL     1      22.867   5.973  50.625  1.00  0.00     0.025 A 
HETATM   13  C11 UNL     1      23.485   4.808  50.683  1.00  0.00     0.003 A 
BRANCH  13  14
HETATM   14  C12 UNL     1      24.748   4.243  50.234  1.00  0.00     0.027 C 
HETATM   15  C13 UNL     1      25.795   4.771  49.625  1.00  0.00    -0.037 A 
HETATM   16  C14 UNL     1      25.933   6.147  49.235  1.00  0.00     0.010 A 
HETATM   17  C17 UNL     1      26.949   3.929  49.291  1.00  0.00     0.186 A 
HETATM   18  C15 UNL     1      26.960   6.696  48.631  1.00  0.00     0.019 A 
HETATM   19  C16 UNL     1      28.079   5.843  48.315  1.00  0.00     0.110 A 
HETATM   20  N4  UNL     1      28.005   4.614  48.640  1.00  0.00    -0.297 NA
ENDBRANCH  13  14
ENDBRANCH   7  10
BRANCH   1  21
HETATM   21  C3  UNL     1      25.648   0.148  53.292  1.00  0.00     0.031 A 
HETATM   22  C2  UNL     1      26.643   1.000  53.740  1.00  0.00     0.127 A 
HETATM   23  N1  UNL     1      27.859   0.452  53.548  1.00  0.00    -0.285 N 
HETATM   24  C1  UNL     1      29.103   1.111  53.919  1.00  0.00     0.179 C 
HETATM   25  N7  UNL     1      27.671  -0.739  52.984  1.00  0.00    -0.185 NA
HETATM   26  C18 UNL     1      26.343  -0.950  52.817  1.00  0.00     0.154 A 
ENDBRANCH   1  21
TORSDOF 3
ENDMDL
MODEL 5
REMARK VINA RESULT:      -8.7      3.056      6.710
REMARK  3 active torsions:
REMARK  status: ('A' for Active; 'I' for Inactive)
REMARK    1  A    between atoms: C3_4  and  C4_5 
REMARK    2  A    between atoms: C8_11  and  S1_12 
REMARK    3  A    between atoms: C11_15  and  C12_16 
ROOT
HETATM    1  C4  UNL     1      25.294   2.425  51.400  1.00  0.00     0.090 A 
HETATM    2  C5  UNL     1      26.672   2.462  51.470  1.00  0.00     0.038 A 
HETATM    3  C6  UNL     1      27.264   1.539  52.294  1.00  0.00     0.057 A 
HETATM    4  C7  UNL     1      26.566   0.592  53.044  1.00  0.00     0.175 A 
HETATM    5  N2  UNL     1      26.850  -0.391  53.896  1.00  0.00    -0.128 NA
HETATM    6  N3  UNL     1      25.733  -0.963  54.298  1.00  0.00    -0.121 NA
HETATM    7  C8  UNL     1      24.714  -0.333  53.689  1.00  0.00     0.211 A 
HETATM    8  N5  UNL     1      25.210   0.635  52.906  1.00  0.00    -0.187 N 
HETATM    9  N6  UNL     1      24.601   1.510  52.122  1.00  0.00    -0.163 NA
ENDROOT
BRANCH   7  10
HETATM   10  S1  UNL     1      23.001  -0.771  53.932  1.00  0.00    -0.089 SA
HETATM   11  C9  UNL     1      22.027  -1.556  54.952  1.00  0.00     0.049 A 
HETATM   12  C10 UNL     1      20.845  -1.268  54.150  1.00  0.00     0.025 A 
HETATM   13  C11 UNL     1      21.393  -0.578  53.166  1.00  0.00     0.003 A 
BRANCH  13  14
HETATM   14  C12 UNL     1      20.952   0.087  51.950  1.00  0.00     0.027 C 
HETATM   15  C13 UNL     1      20.821   1.362  51.628  1.00  0.00    -0.037 A 
HETATM   16  C14 UNL     1      21.112   2.478  52.486  1.00  0.00     0.010 A 
HETATM   17  C17 UNL     1      20.341   1.734  50.293  1.00  0.00     0.186 A 
HETATM   18  C15 UNL     1      20.991   3.751  52.191  1.00  0.00     0.019 A 
HETATM   19  C16 UNL     1      20.517   4.085  50.871  1.00  0.00     0.110 A 
HETATM   20  N4  UNL     1      20.245   3.131  50.073  1.00  0.00    -0.297 NA
ENDBRANCH  13  14
ENDBRANCH   7  10
BRANCH   1  21
HETATM   21  C3  UNL     1      24.602   3.380  50.540  1.00  0.00     0.031 A 
HETATM   22  C2  UNL     1      23.882   3.183  49.375  1.00  0.00     0.127 A 
HETATM   23  N1  UNL     1      23.410   4.354  48.905  1.00  0.00    -0.285 N 
HETATM   24  C1  UNL     1      22.613   4.469  47.691  1.00  0.00     0.179 C 
HETATM   25  N7  UNL     1      23.811   5.306  49.743  1.00  0.00    -0.185 NA
HETATM   26  C18 UNL     1      24.535   4.747  50.743  1.00  0.00     0.154 A 
ENDBRANCH   1  21
TORSDOF 3
ENDMDL
MODEL 6
REMARK VINA RESULT:      -8.6      2.633      5.300
REMARK  3 active torsions:
REMARK  status: ('A' for Active; 'I' for Inactive)
REMARK    1  A    between atoms: C3_4  and  C4_5 
REMARK    2  A    between atoms: C8_11  and  S1_12 
REMARK    3  A    between atoms: C11_15  and  C12_16 
ROOT
HETATM    1  C4  UNL     1      21.475   0.442  51.880  1.00  0.00     0.090 A 
HETATM    2  C5  UNL     1      20.222   0.329  51.312  1.00  0.00     0.038 A 
HETATM    3  C6  UNL     1      20.012   1.033  50.155  1.00  0.00     0.057 A 
HETATM    4  C7  UNL     1      20.973   1.836  49.538  1.00  0.00     0.175 A 
HETATM    5  N2  UNL     1      21.062   2.607  48.456  1.00  0.00    -0.128 NA
HETATM    6  N3  UNL     1      22.267   3.134  48.387  1.00  0.00    -0.121 NA
HETATM    7  C8  UNL     1      22.964   2.690  49.447  1.00  0.00     0.211 A 
HETATM    8  N5  UNL     1      22.178   1.882  50.173  1.00  0.00    -0.187 N 
HETATM    9  N6  UNL     1      22.419   1.218  51.292  1.00  0.00    -0.163 NA
ENDROOT
BRANCH   7  10
HETATM   10  S1  UNL     1      24.659   3.144  49.771  1.00  0.00    -0.089 SA
HETATM   11  C9  UNL     1      25.744   4.296  49.455  1.00  0.00     0.049 A 
HETATM   12  C10 UNL     1      26.781   3.626  50.230  1.00  0.00     0.025 A 
HETATM   13  C11 UNL     1      26.115   2.562  50.640  1.00  0.00     0.003 A 
BRANCH  13  14
HETATM   14  C12 UNL     1      26.375   1.383  51.451  1.00  0.00     0.027 C 
HETATM   15  C13 UNL     1      27.179   1.165  52.476  1.00  0.00    -0.037 A 
HETATM   16  C14 UNL     1      28.056   2.133  53.075  1.00  0.00     0.010 A 
HETATM   17  C17 UNL     1      27.225  -0.162  53.101  1.00  0.00     0.186 A 
HETATM   18  C15 UNL     1      28.862   1.943  54.093  1.00  0.00     0.019 A 
HETATM   19  C16 UNL     1      28.886   0.629  54.686  1.00  0.00     0.110 A 
HETATM   20  N4  UNL     1      28.126  -0.265  54.190  1.00  0.00    -0.297 NA
ENDBRANCH  13  14
ENDBRANCH   7  10
BRANCH   1  21
HETATM   21  C3  UNL     1      21.762  -0.283  53.114  1.00  0.00     0.031 A 
HETATM   22  C2  UNL     1      22.947  -0.430  53.814  1.00  0.00     0.127 A 
HETATM   23  N1  UNL     1      22.757  -1.190  54.911  1.00  0.00    -0.285 N 
HETATM   24  C1  UNL     1      23.821  -1.522  55.849  1.00  0.00     0.179 C 
HETATM   25  N7  UNL     1      21.473  -1.538  54.934  1.00  0.00    -0.185 NA
HETATM   26  C18 UNL     1      20.846  -1.004  53.858  1.00  0.00     0.154 A 
ENDBRANCH   1  21
TORSDOF 3
ENDMDL
MODEL 7
REMARK VINA RESULT:      -8.6      1.060      1.545
REMARK  3 active torsions:
REMARK  status: ('A' for Active; 'I' for Inactive)
REMARK    1  A    between atoms: C3_4  and  C4_5 
REMARK    2  A    between atoms: C8_11  and  S1_12 
REMARK    3  A    between atoms: C11_15  and  C12_16 
ROOT
HETATM    1  C4  UNL     1      23.778   0.015  53.417  1.00  0.00     0.090 A 
HETATM    2  C5  UNL     1      24.616  -0.688  54.259  1.00  0.00     0.038 A 
HETATM    3  C6  UNL     1      25.945  -0.352  54.215  1.00  0.00     0.057 A 
HETATM    4  C7  UNL     1      26.479   0.637  53.386  1.00  0.00     0.175 A 
HETATM    5  N2  UNL     1      27.674   1.166  53.131  1.00  0.00    -0.128 NA
HETATM    6  N3  UNL     1      27.554   2.104  52.214  1.00  0.00    -0.121 NA
HETATM    7  C8  UNL     1      26.256   2.177  51.876  1.00  0.00     0.211 A 
HETATM    8  N5  UNL     1      25.572   1.274  52.593  1.00  0.00    -0.187 N 
HETATM    9  N6  UNL     1      24.282   0.978  52.606  1.00  0.00    -0.163 NA
ENDROOT
BRANCH   7  10
HETATM   10  S1  UNL     1      25.617   3.317  50.660  1.00  0.00    -0.089 SA
HETATM   11  C9  UNL     1      24.232   3.921  50.095  1.00  0.00     0.049 A 
HETATM   12  C10 UNL     1      24.917   4.757  49.118  1.00  0.00     0.025 A 
HETATM   13  C11 UNL     1      26.172   4.438  49.377  1.00  0.00     0.003 A 
BRANCH  13  14
HETATM   14  C12 UNL     1      27.492   4.797  48.882  1.00  0.00     0.027 C 
HETATM   15  C13 UNL     1      27.956   5.880  48.284  1.00  0.00    -0.037 A 
HETATM   16  C14 UNL     1      27.191   7.052  47.959  1.00  0.00     0.010 A 
HETATM   17  C17 UNL     1      29.368   5.951  47.893  1.00  0.00     0.186 A 
HETATM   18  C15 UNL     1      27.627   8.139  47.367  1.00  0.00     0.019 A 
HETATM   19  C16 UNL     1      29.019   8.179  46.994  1.00  0.00     0.110 A 
HETATM   20  N4  UNL     1      29.740   7.163  47.260  1.00  0.00    -0.297 NA
ENDBRANCH  13  14
ENDBRANCH   7  10
BRANCH   1  21
HETATM   21  C3  UNL     1      22.352  -0.296  53.417  1.00  0.00     0.031 A 
HETATM   22  C2  UNL     1      21.333   0.163  52.600  1.00  0.00     0.127 A 
HETATM   23  N1  UNL     1      20.156  -0.390  52.954  1.00  0.00    -0.285 N 
HETATM   24  C1  UNL     1      18.899  -0.100  52.279  1.00  0.00     0.179 C 
HETATM   25  N7  UNL     1      20.394  -1.196  53.985  1.00  0.00    -0.185 NA
HETATM   26  C18 UNL     1      21.714  -1.160  54.287  1.00  0.00     0.154 A 
ENDBRANCH   1  21
TORSDOF 3
ENDMDL
MODEL 8
REMARK VINA RESULT:      -8.6      1.999      4.935
REMARK  3 active torsions:
REMARK  status: ('A' for Active; 'I' for Inactive)
REMARK    1  A    between atoms: C3_4  and  C4_5 
REMARK    2  A    between atoms: C8_11  and  S1_12 
REMARK    3  A    between atoms: C11_15  and  C12_16 
ROOT
HETATM    1  C4  UNL     1      23.826  -0.258  53.636  1.00  0.00     0.090 A 
HETATM    2  C5  UNL     1      23.279  -0.903  54.726  1.00  0.00     0.038 A 
HETATM    3  C6  UNL     1      21.913  -1.032  54.735  1.00  0.00     0.057 A 
HETATM    4  C7  UNL     1      21.072  -0.558  53.727  1.00  0.00     0.175 A 
HETATM    5  N2  UNL     1      19.767  -0.534  53.466  1.00  0.00    -0.128 NA
HETATM    6  N3  UNL     1      19.557   0.074  52.317  1.00  0.00    -0.121 NA
HETATM    7  C8  UNL     1      20.754   0.447  51.832  1.00  0.00     0.211 A 
HETATM    8  N5  UNL     1      21.707   0.064  52.693  1.00  0.00    -0.187 N 
HETATM    9  N6  UNL     1      23.022   0.208  52.648  1.00  0.00    -0.163 NA
ENDROOT
BRANCH   7  10
HETATM   10  S1  UNL     1      20.963   1.310  50.284  1.00  0.00    -0.089 SA
HETATM   11  C9  UNL     1      20.154   1.748  48.959  1.00  0.00     0.049 A 
HETATM   12  C10 UNL     1      21.320   2.403  48.381  1.00  0.00     0.025 A 
HETATM   13  C11 UNL     1      22.208   2.182  49.334  1.00  0.00     0.003 A 
BRANCH  13  14
HETATM   14  C12 UNL     1      23.609   2.483  49.582  1.00  0.00     0.027 C 
HETATM   15  C13 UNL     1      24.332   3.574  49.406  1.00  0.00    -0.037 A 
HETATM   16  C14 UNL     1      23.851   4.823  48.882  1.00  0.00     0.010 A 
HETATM   17  C17 UNL     1      25.756   3.574  49.758  1.00  0.00     0.186 A 
HETATM   18  C15 UNL     1      24.546   5.921  48.698  1.00  0.00     0.019 A 
HETATM   19  C16 UNL     1      25.943   5.889  49.052  1.00  0.00     0.110 A 
HETATM   20  N4  UNL     1      26.418   4.804  49.521  1.00  0.00    -0.297 NA
ENDBRANCH  13  14
ENDBRANCH   7  10
BRANCH   1  21
HETATM   21  C3  UNL     1      25.274  -0.088  53.566  1.00  0.00     0.031 A 
HETATM   22  C2  UNL     1      26.220  -0.031  54.574  1.00  0.00     0.127 A 
HETATM   23  N1  UNL     1      27.454   0.136  54.058  1.00  0.00    -0.285 N 
HETATM   24  C1  UNL     1      28.658   0.232  54.872  1.00  0.00     0.179 C 
HETATM   25  N7  UNL     1      27.324   0.188  52.735  1.00  0.00    -0.185 NA
HETATM   26  C18 UNL     1      26.015   0.055  52.408  1.00  0.00     0.154 A 
ENDBRANCH   1  21
TORSDOF 3
ENDMDL
MODEL 9
REMARK VINA RESULT:      -8.4      1.576      8.913
REMARK  3 active torsions:
REMARK  status: ('A' for Active; 'I' for Inactive)
REMARK    1  A    between atoms: C3_4  and  C4_5 
REMARK    2  A    between atoms: C8_11  and  S1_12 
REMARK    3  A    between atoms: C11_15  and  C12_16 
ROOT
HETATM    1  C4  UNL     1      25.865   5.302  49.277  1.00  0.00     0.090 A 
HETATM    2  C5  UNL     1      24.728   6.053  49.055  1.00  0.00     0.038 A 
HETATM    3  C6  UNL     1      23.574   5.597  49.640  1.00  0.00     0.057 A 
HETATM    4  C7  UNL     1      23.493   4.447  50.427  1.00  0.00     0.175 A 
HETATM    5  N2  UNL     1      22.557   3.781  51.099  1.00  0.00    -0.128 NA
HETATM    6  N3  UNL     1      23.094   2.723  51.672  1.00  0.00    -0.121 NA
HETATM    7  C8  UNL     1      24.400   2.713  51.359  1.00  0.00     0.211 A 
HETATM    8  N5  UNL     1      24.668   3.776  50.587  1.00  0.00    -0.187 N 
HETATM    9  N6  UNL     1      25.802   4.183  50.038  1.00  0.00    -0.163 NA
ENDROOT
BRANCH   7  10
HETATM   10  S1  UNL     1      25.537   1.456  51.919  1.00  0.00    -0.089 SA
HETATM   11  C9  UNL     1      27.035   0.906  51.680  1.00  0.00     0.049 A 
HETATM   12  C10 UNL     1      26.882  -0.142  52.680  1.00  0.00     0.025 A 
HETATM   13  C11 UNL     1      25.643   0.090  53.075  1.00  0.00     0.003 A 
BRANCH  13  14
HETATM   14  C12 UNL     1      24.700  -0.472  54.028  1.00  0.00     0.027 C 
HETATM   15  C13 UNL     1      23.393  -0.662  53.984  1.00  0.00    -0.037 A 
HETATM   16  C14 UNL     1      22.533  -0.327  52.882  1.00  0.00     0.010 A 
HETATM   17  C17 UNL     1      22.702  -1.265  55.129  1.00  0.00     0.186 A 
HETATM   18  C15 UNL     1      21.236  -0.506  52.812  1.00  0.00     0.019 A 
HETATM   19  C16 UNL     1      20.584  -1.100  53.953  1.00  0.00     0.110 A 
HETATM   20  N4  UNL     1      21.303  -1.415  54.956  1.00  0.00    -0.297 NA
ENDBRANCH  13  14
ENDBRANCH   7  10
BRANCH   1  21
HETATM   21  C3  UNL     1      27.126   5.734  48.681  1.00  0.00     0.031 A 
HETATM   22  C2  UNL     1      28.331   5.067  48.549  1.00  0.00     0.127 A 
HETATM   23  N1  UNL     1      29.239   5.847  47.930  1.00  0.00    -0.285 N 
HETATM   24  C1  UNL     1      30.603   5.421  47.648  1.00  0.00     0.179 C 
HETATM   25  N7  UNL     1      28.644   7.006  47.659  1.00  0.00    -0.185 NA
HETATM   26  C18 UNL     1      27.364   6.967  48.102  1.00  0.00     0.154 A 
ENDBRANCH   1  21
TORSDOF 3
ENDMDL
