MODEL 1
REMARK VINA RESULT:      -7.9      0.000      0.000
REMARK  8 active torsions:
REMARK  status: ('A' for Active; 'I' for Inactive)
REMARK    1  A    between atoms: C2_2  and  O1_3 
REMARK    2  A    between atoms: O1_3  and  C3_4 
REMARK       I    between atoms: C3_4  and  N1_6 
REMARK    3  A    between atoms: N1_6  and  C4_7 
REMARK    4  A    between atoms: C7_10  and  C8_11 
REMARK    5  A    between atoms: C10_15  and  O3_16 
REMARK    6  A    between atoms: O3_16  and  C11_17 
REMARK    7  A    between atoms: C11_17  and  O4_18 
REMARK    8  A    between atoms: C12_19  and  O5_20 
ROOT
HETATM    1  C8  UNL     1      23.789   0.423  53.302  1.00  0.00     0.068 C 
HETATM    2  N2  UNL     1      24.543  -0.625  53.504  1.00  0.00    -0.242 NA
HETATM    3  C9  UNL     1      25.967  -0.870  53.514  1.00  0.00     0.230 C 
HETATM    4  N3  UNL     1      26.976  -0.137  53.180  1.00  0.00    -0.248 NA
HETATM    5  C10 UNL     1      27.349   1.129  52.684  1.00  0.00     0.280 C 
HETATM    6  C12 UNL     1      26.431   1.819  51.738  1.00  0.00     0.194 C 
HETATM    7  C14 UNL     1      25.193   2.344  52.373  1.00  0.00     0.011 C 
HETATM    8  C15 UNL     1      24.129   1.809  53.001  1.00  0.00     0.031 C 
ENDROOT
BRANCH   1   9
HETATM    9  C7  UNL     1      22.391   0.106  53.412  1.00  0.00    -0.007 A 
HETATM   10  C6  UNL     1      22.090  -1.123  54.006  1.00  0.00     0.016 A 
HETATM   11  C5  UNL     1      20.772  -1.553  54.168  1.00  0.00     0.030 A 
HETATM   12  C4  UNL     1      19.719  -0.769  53.744  1.00  0.00     0.036 A 
HETATM   13  C17 UNL     1      19.997   0.447  53.157  1.00  0.00     0.030 A 
HETATM   14  C16 UNL     1      21.314   0.825  53.019  1.00  0.00     0.016 A 
BRANCH  12  15
HETATM   15  N1  UNL     1      18.396  -1.260  53.937  1.00  0.00    -0.303 N 
HETATM   16  C3  UNL     1      17.501  -1.312  52.825  1.00  0.00     0.365 C 
HETATM   17  O2  UNL     1      17.831  -0.938  51.657  1.00  0.00    -0.238 OA
HETATM   18  H6  UNL     1      18.025  -1.588  54.839  1.00  0.00     0.171 HD
BRANCH  16  19
HETATM   19  O1  UNL     1      16.177  -1.769  52.864  1.00  0.00    -0.304 OA
BRANCH  19  20
HETATM   20  C2  UNL     1      15.952  -3.164  52.688  1.00  0.00     0.176 C 
HETATM   21  C1  UNL     1      16.978  -3.906  53.517  1.00  0.00     0.034 C 
ENDBRANCH  19  20
ENDBRANCH  16  19
ENDBRANCH  12  15
ENDBRANCH   1   9
BRANCH   6  22
HETATM   22  O5  UNL     1      27.105   2.898  51.168  1.00  0.00    -0.382 OA
HETATM   23  C13 UNL     1      26.373   3.380  50.073  1.00  0.00     0.202 C 
ENDBRANCH   6  22
BRANCH   5  24
HETATM   24  O3  UNL     1      27.616   1.980  53.775  1.00  0.00    -0.338 OA
BRANCH  24  25
HETATM   25  C11 UNL     1      28.966   2.176  53.982  1.00  0.00     0.337 C 
BRANCH  25  26
HETATM   26  O4  UNL     1      29.426   3.116  53.072  1.00  0.00    -0.377 OA
HETATM   27  H13 UNL     1      30.410   3.073  52.920  1.00  0.00     0.212 HD
ENDBRANCH  25  26
ENDBRANCH  24  25
ENDBRANCH   5  24
TORSDOF 8
ENDMDL
MODEL 2
REMARK VINA RESULT:      -7.7      3.177      8.720
REMARK  8 active torsions:
REMARK  status: ('A' for Active; 'I' for Inactive)
REMARK    1  A    between atoms: C2_2  and  O1_3 
REMARK    2  A    between atoms: O1_3  and  C3_4 
REMARK       I    between atoms: C3_4  and  N1_6 
REMARK    3  A    between atoms: N1_6  and  C4_7 
REMARK    4  A    between atoms: C7_10  and  C8_11 
REMARK    5  A    between atoms: C10_15  and  O3_16 
REMARK    6  A    between atoms: O3_16  and  C11_17 
REMARK    7  A    between atoms: C11_17  and  O4_18 
REMARK    8  A    between atoms: C12_19  and  O5_20 
ROOT
HETATM    1  C8  UNL     1      21.098   1.629  52.269  1.00  0.00     0.068 C 
HETATM    2  N2  UNL     1      21.269   2.911  52.086  1.00  0.00    -0.242 NA
HETATM    3  C9  UNL     1      20.420   4.004  51.669  1.00  0.00     0.230 C 
HETATM    4  N3  UNL     1      19.218   4.038  51.198  1.00  0.00    -0.248 NA
HETATM    5  C10 UNL     1      18.116   3.239  50.832  1.00  0.00     0.280 C 
HETATM    6  C12 UNL     1      18.375   1.876  50.296  1.00  0.00     0.194 C 
HETATM    7  C14 UNL     1      18.841   0.903  51.319  1.00  0.00     0.011 C 
HETATM    8  C15 UNL     1      19.919   0.784  52.116  1.00  0.00     0.031 C 
ENDROOT
BRANCH   1   9
HETATM    9  C7  UNL     1      22.309   0.985  52.701  1.00  0.00    -0.007 A 
HETATM   10  C6  UNL     1      23.480   1.397  52.060  1.00  0.00     0.016 A 
HETATM   11  C5  UNL     1      24.722   0.847  52.383  1.00  0.00     0.030 A 
HETATM   12  C4  UNL     1      24.829  -0.127  53.354  1.00  0.00     0.036 A 
HETATM   13  C17 UNL     1      23.684  -0.546  53.997  1.00  0.00     0.030 A 
HETATM   14  C16 UNL     1      22.482   0.028  53.642  1.00  0.00     0.016 A 
BRANCH  12  15
HETATM   15  N1  UNL     1      26.122  -0.650  53.641  1.00  0.00    -0.303 N 
HETATM   16  C3  UNL     1      26.975   0.053  54.545  1.00  0.00     0.365 C 
HETATM   17  O2  UNL     1      26.633   1.137  55.114  1.00  0.00    -0.238 OA
HETATM   18  H6  UNL     1      26.500  -1.519  53.238  1.00  0.00     0.171 HD
BRANCH  16  19
HETATM   19  O1  UNL     1      28.266  -0.340  54.922  1.00  0.00    -0.304 OA
BRANCH  19  20
HETATM   20  C2  UNL     1      29.317  -0.158  53.978  1.00  0.00     0.176 C 
HETATM   21  C1  UNL     1      29.700  -1.521  53.445  1.00  0.00     0.034 C 
ENDBRANCH  19  20
ENDBRANCH  16  19
ENDBRANCH  12  15
ENDBRANCH   1   9
BRANCH   6  22
HETATM   22  O5  UNL     1      17.193   1.379  49.747  1.00  0.00    -0.382 OA
HETATM   23  C13 UNL     1      17.088   0.008  50.027  1.00  0.00     0.202 C 
ENDBRANCH   6  22
BRANCH   5  24
HETATM   24  O3  UNL     1      17.241   3.146  51.933  1.00  0.00    -0.338 OA
BRANCH  24  25
HETATM   25  C11 UNL     1      16.340   4.190  51.988  1.00  0.00     0.337 C 
BRANCH  25  26
HETATM   26  O4  UNL     1      16.192   4.721  50.716  1.00  0.00    -0.377 OA
HETATM   27  H13 UNL     1      17.052   4.800  50.217  1.00  0.00     0.212 HD
ENDBRANCH  25  26
ENDBRANCH  24  25
ENDBRANCH   5  24
TORSDOF 8
ENDMDL
MODEL 3
REMARK VINA RESULT:      -7.6      4.941      8.471
REMARK  8 active torsions:
REMARK  status: ('A' for Active; 'I' for Inactive)
REMARK    1  A    between atoms: C2_2  and  O1_3 
REMARK    2  A    between atoms: O1_3  and  C3_4 
REMARK       I    between atoms: C3_4  and  N1_6 
REMARK    3  A    between atoms: N1_6  and  C4_7 
REMARK    4  A    between atoms: C7_10  and  C8_11 
REMARK    5  A    between atoms: C10_15  and  O3_16 
REMARK    6  A    between atoms: O3_16  and  C11_17 
REMARK    7  A    between atoms: C11_17  and  O4_18 
REMARK    8  A    between atoms: C12_19  and  O5_20 
ROOT
HETATM    1  C8  UNL     1      26.356   2.120  51.804  1.00  0.00     0.068 C 
HETATM    2  N2  UNL     1      27.566   2.360  52.236  1.00  0.00    -0.242 NA
HETATM    3  C9  UNL     1      28.506   1.656  53.077  1.00  0.00     0.230 C 
HETATM    4  N3  UNL     1      28.396   0.594  53.804  1.00  0.00    -0.248 NA
HETATM    5  C10 UNL     1      27.501  -0.416  54.214  1.00  0.00     0.280 C 
HETATM    6  C12 UNL     1      26.059  -0.076  54.346  1.00  0.00     0.194 C 
HETATM    7  C14 UNL     1      25.364   0.121  53.047  1.00  0.00     0.011 C 
HETATM    8  C15 UNL     1      25.465   0.986  52.020  1.00  0.00     0.031 C 
ENDROOT
BRANCH   1   9
HETATM    9  C7  UNL     1      25.865   3.184  50.971  1.00  0.00    -0.007 A 
HETATM   10  C6  UNL     1      26.727   3.612  49.958  1.00  0.00     0.016 A 
HETATM   11  C5  UNL     1      26.372   4.640  49.083  1.00  0.00     0.030 A 
HETATM   12  C4  UNL     1      25.149   5.269  49.195  1.00  0.00     0.036 A 
HETATM   13  C17 UNL     1      24.286   4.859  50.188  1.00  0.00     0.030 A 
HETATM   14  C16 UNL     1      24.683   3.840  51.026  1.00  0.00     0.016 A 
BRANCH  12  15
HETATM   15  N1  UNL     1      24.843   6.311  48.273  1.00  0.00    -0.303 N 
HETATM   16  C3  UNL     1      25.257   7.646  48.565  1.00  0.00     0.365 C 
HETATM   17  O2  UNL     1      25.895   7.954  49.620  1.00  0.00    -0.238 OA
HETATM   18  H6  UNL     1      24.333   6.173  47.390  1.00  0.00     0.171 HD
BRANCH  16  19
HETATM   19  O1  UNL     1      25.029   8.766  47.756  1.00  0.00    -0.304 OA
BRANCH  19  20
HETATM   20  C2  UNL     1      25.305   8.647  46.364  1.00  0.00     0.176 C 
HETATM   21  C1  UNL     1      26.807   8.578  46.195  1.00  0.00     0.034 C 
ENDBRANCH  19  20
ENDBRANCH  16  19
ENDBRANCH  12  15
ENDBRANCH   1   9
BRANCH   6  22
HETATM   22  O5  UNL     1      25.415  -1.114  55.018  1.00  0.00    -0.382 OA
HETATM   23  C13 UNL     1      24.030  -1.014  54.814  1.00  0.00     0.202 C 
ENDBRANCH   6  22
BRANCH   5  24
HETATM   24  O3  UNL     1      27.641  -1.520  53.350  1.00  0.00    -0.338 OA
BRANCH  24  25
HETATM   25  C11 UNL     1      28.916  -2.048  53.359  1.00  0.00     0.337 C 
BRANCH  25  26
HETATM   26  O4  UNL     1      28.828  -3.429  53.438  1.00  0.00    -0.377 OA
HETATM   27  H13 UNL     1      28.082  -3.746  54.019  1.00  0.00     0.212 HD
ENDBRANCH  25  26
ENDBRANCH  24  25
ENDBRANCH   5  24
TORSDOF 8
ENDMDL
MODEL 4
REMARK VINA RESULT:      -7.4      4.919      7.732
REMARK  8 active torsions:
REMARK  status: ('A' for Active; 'I' for Inactive)
REMARK    1  A    between atoms: C2_2  and  O1_3 
REMARK    2  A    between atoms: O1_3  and  C3_4 
REMARK       I    between atoms: C3_4  and  N1_6 
REMARK    3  A    between atoms: N1_6  and  C4_7 
REMARK    4  A    between atoms: C7_10  and  C8_11 
REMARK    5  A    between atoms: C10_15  and  O3_16 
REMARK    6  A    between atoms: O3_16  and  C11_17 
REMARK    7  A    between atoms: C11_17  and  O4_18 
REMARK    8  A    between atoms: C12_19  and  O5_20 
ROOT
HETATM    1  C8  UNL     1      26.346   2.054  51.668  1.00  0.00     0.068 C 
HETATM    2  N2  UNL     1      27.539   2.332  52.124  1.00  0.00    -0.242 NA
HETATM    3  C9  UNL     1      28.469   1.676  53.015  1.00  0.00     0.230 C 
HETATM    4  N3  UNL     1      28.357   0.639  53.777  1.00  0.00    -0.248 NA
HETATM    5  C10 UNL     1      27.470  -0.371  54.200  1.00  0.00     0.280 C 
HETATM    6  C12 UNL     1      26.019  -0.054  54.281  1.00  0.00     0.194 C 
HETATM    7  C14 UNL     1      25.356   0.082  52.957  1.00  0.00     0.011 C 
HETATM    8  C15 UNL     1      25.470   0.912  51.902  1.00  0.00     0.031 C 
ENDROOT
BRANCH   1   9
HETATM    9  C7  UNL     1      25.860   3.077  50.784  1.00  0.00    -0.007 A 
HETATM   10  C6  UNL     1      24.474   3.261  50.769  1.00  0.00     0.016 A 
HETATM   11  C5  UNL     1      23.874   4.220  49.952  1.00  0.00     0.030 A 
HETATM   12  C4  UNL     1      24.638   5.021  49.128  1.00  0.00     0.036 A 
HETATM   13  C17 UNL     1      26.006   4.854  49.131  1.00  0.00     0.030 A 
HETATM   14  C16 UNL     1      26.550   3.894  49.956  1.00  0.00     0.016 A 
BRANCH  12  15
HETATM   15  N1  UNL     1      23.969   5.982  48.317  1.00  0.00    -0.303 N 
HETATM   16  C3  UNL     1      23.659   7.264  48.865  1.00  0.00     0.365 C 
HETATM   17  O2  UNL     1      23.953   7.594  50.056  1.00  0.00    -0.238 OA
HETATM   18  H6  UNL     1      23.685   5.821  47.341  1.00  0.00     0.171 HD
BRANCH  16  19
HETATM   19  O1  UNL     1      23.008   8.305  48.189  1.00  0.00    -0.304 OA
BRANCH  19  20
HETATM   20  C2  UNL     1      21.639   8.544  48.500  1.00  0.00     0.176 C 
HETATM   21  C1  UNL     1      21.462  10.034  48.691  1.00  0.00     0.034 C 
ENDBRANCH  19  20
ENDBRANCH  16  19
ENDBRANCH  12  15
ENDBRANCH   1   9
BRANCH   6  22
HETATM   22  O5  UNL     1      25.375  -1.079  54.973  1.00  0.00    -0.382 OA
HETATM   23  C13 UNL     1      23.987  -0.951  54.811  1.00  0.00     0.202 C 
ENDBRANCH   6  22
BRANCH   5  24
HETATM   24  O3  UNL     1      27.652  -1.503  53.382  1.00  0.00    -0.338 OA
BRANCH  24  25
HETATM   25  C11 UNL     1      28.947  -1.982  53.412  1.00  0.00     0.337 C 
BRANCH  25  26
HETATM   26  O4  UNL     1      28.909  -3.367  53.472  1.00  0.00    -0.377 OA
HETATM   27  H13 UNL     1      28.753  -3.720  54.391  1.00  0.00     0.212 HD
ENDBRANCH  25  26
ENDBRANCH  24  25
ENDBRANCH   5  24
TORSDOF 8
ENDMDL
MODEL 5
REMARK VINA RESULT:      -6.9      2.785      8.685
REMARK  8 active torsions:
REMARK  status: ('A' for Active; 'I' for Inactive)
REMARK    1  A    between atoms: C2_2  and  O1_3 
REMARK    2  A    between atoms: O1_3  and  C3_4 
REMARK       I    between atoms: C3_4  and  N1_6 
REMARK    3  A    between atoms: N1_6  and  C4_7 
REMARK    4  A    between atoms: C7_10  and  C8_11 
REMARK    5  A    between atoms: C10_15  and  O3_16 
REMARK    6  A    between atoms: O3_16  and  C11_17 
REMARK    7  A    between atoms: C11_17  and  O4_18 
REMARK    8  A    between atoms: C12_19  and  O5_20 
ROOT
HETATM    1  C8  UNL     1      20.729   0.752  52.023  1.00  0.00     0.068 C 
HETATM    2  N2  UNL     1      19.846  -0.093  52.487  1.00  0.00    -0.242 NA
HETATM    3  C9  UNL     1      18.414  -0.240  52.367  1.00  0.00     0.230 C 
HETATM    4  N3  UNL     1      17.502   0.521  51.859  1.00  0.00    -0.248 NA
HETATM    5  C10 UNL     1      17.280   1.751  51.207  1.00  0.00     0.280 C 
HETATM    6  C12 UNL     1      18.173   2.897  51.529  1.00  0.00     0.194 C 
HETATM    7  C14 UNL     1      19.548   2.763  50.979  1.00  0.00     0.011 C 
HETATM    8  C15 UNL     1      20.581   1.920  51.160  1.00  0.00     0.031 C 
ENDROOT
BRANCH   1   9
HETATM    9  C7  UNL     1      22.059   0.431  52.461  1.00  0.00    -0.007 A 
HETATM   10  C6  UNL     1      22.151  -0.507  53.493  1.00  0.00     0.016 A 
HETATM   11  C5  UNL     1      23.384  -0.904  54.012  1.00  0.00     0.030 A 
HETATM   12  C4  UNL     1      24.559  -0.376  53.517  1.00  0.00     0.036 A 
HETATM   13  C17 UNL     1      24.487   0.550  52.498  1.00  0.00     0.030 A 
HETATM   14  C16 UNL     1      23.246   0.908  52.020  1.00  0.00     0.016 A 
BRANCH  12  15
HETATM   15  N1  UNL     1      25.787  -0.819  54.086  1.00  0.00    -0.303 N 
HETATM   16  C3  UNL     1      26.686   0.142  54.641  1.00  0.00     0.365 C 
HETATM   17  O2  UNL     1      26.441   1.388  54.654  1.00  0.00    -0.238 OA
HETATM   18  H6  UNL     1      26.085  -1.803  54.130  1.00  0.00     0.171 HD
BRANCH  16  19
HETATM   19  O1  UNL     1      27.923  -0.145  55.233  1.00  0.00    -0.304 OA
BRANCH  19  20
HETATM   20  C2  UNL     1      29.098   0.291  54.558  1.00  0.00     0.176 C 
HETATM   21  C1  UNL     1      29.630  -0.875  53.755  1.00  0.00     0.034 C 
ENDBRANCH  19  20
ENDBRANCH  16  19
ENDBRANCH  12  15
ENDBRANCH   1   9
BRANCH   6  22
HETATM   22  O5  UNL     1      17.616   4.059  50.998  1.00  0.00    -0.382 OA
HETATM   23  C13 UNL     1      18.586   4.743  50.250  1.00  0.00     0.202 C 
ENDBRANCH   6  22
BRANCH   5  24
HETATM   24  O3  UNL     1      17.291   1.531  49.815  1.00  0.00    -0.338 OA
BRANCH  24  25
HETATM   25  C11 UNL     1      16.023   1.410  49.282  1.00  0.00     0.337 C 
BRANCH  25  26
HETATM   26  O4  UNL     1      15.097   1.496  50.310  1.00  0.00    -0.377 OA
HETATM   27  H13 UNL     1      15.153   2.350  50.824  1.00  0.00     0.212 HD
ENDBRANCH  25  26
ENDBRANCH  24  25
ENDBRANCH   5  24
TORSDOF 8
ENDMDL
MODEL 6
REMARK VINA RESULT:      -6.9      5.310      8.220
REMARK  8 active torsions:
REMARK  status: ('A' for Active; 'I' for Inactive)
REMARK    1  A    between atoms: C2_2  and  O1_3 
REMARK    2  A    between atoms: O1_3  and  C3_4 
REMARK       I    between atoms: C3_4  and  N1_6 
REMARK    3  A    between atoms: N1_6  and  C4_7 
REMARK    4  A    between atoms: C7_10  and  C8_11 
REMARK    5  A    between atoms: C10_15  and  O3_16 
REMARK    6  A    between atoms: O3_16  and  C11_17 
REMARK    7  A    between atoms: C11_17  and  O4_18 
REMARK    8  A    between atoms: C12_19  and  O5_20 
ROOT
HETATM    1  C8  UNL     1      27.204   5.812  48.572  1.00  0.00     0.068 C 
HETATM    2  N2  UNL     1      26.682   6.987  48.336  1.00  0.00    -0.242 NA
HETATM    3  C9  UNL     1      27.165   8.220  47.758  1.00  0.00     0.230 C 
HETATM    4  N3  UNL     1      28.345   8.610  47.406  1.00  0.00    -0.248 NA
HETATM    5  C10 UNL     1      29.699   8.222  47.338  1.00  0.00     0.280 C 
HETATM    6  C12 UNL     1      30.225   7.297  48.378  1.00  0.00     0.194 C 
HETATM    7  C14 UNL     1      29.736   5.900  48.246  1.00  0.00     0.011 C 
HETATM    8  C15 UNL     1      28.540   5.285  48.319  1.00  0.00     0.031 C 
ENDROOT
BRANCH   1   9
HETATM    9  C7  UNL     1      26.256   4.918  49.180  1.00  0.00    -0.007 A 
HETATM   10  C6  UNL     1      26.786   3.740  49.713  1.00  0.00     0.016 A 
HETATM   11  C5  UNL     1      25.973   2.786  50.328  1.00  0.00     0.030 A 
HETATM   12  C4  UNL     1      24.611   2.982  50.429  1.00  0.00     0.036 A 
HETATM   13  C17 UNL     1      24.072   4.140  49.910  1.00  0.00     0.030 A 
HETATM   14  C16 UNL     1      24.916   5.050  49.313  1.00  0.00     0.016 A 
BRANCH  12  15
HETATM   15  N1  UNL     1      23.832   1.975  51.067  1.00  0.00    -0.303 N 
HETATM   16  C3  UNL     1      23.671   2.011  52.486  1.00  0.00     0.365 C 
HETATM   17  O2  UNL     1      24.195   2.909  53.216  1.00  0.00    -0.238 OA
HETATM   18  H6  UNL     1      23.364   1.203  50.573  1.00  0.00     0.171 HD
BRANCH  16  19
HETATM   19  O1  UNL     1      22.937   1.093  53.247  1.00  0.00    -0.304 OA
BRANCH  19  20
HETATM   20  C2  UNL     1      23.557  -0.147  53.571  1.00  0.00     0.176 C 
HETATM   21  C1  UNL     1      22.612  -0.917  54.466  1.00  0.00     0.034 C 
ENDBRANCH  19  20
ENDBRANCH  16  19
ENDBRANCH  12  15
ENDBRANCH   1   9
BRANCH   6  22
HETATM   22  O5  UNL     1      31.616   7.269  48.287  1.00  0.00    -0.382 OA
HETATM   23  C13 UNL     1      32.137   8.502  48.709  1.00  0.00     0.202 C 
ENDBRANCH   6  22
BRANCH   5  24
HETATM   24  O3  UNL     1      29.947   7.676  46.063  1.00  0.00    -0.338 OA
BRANCH  24  25
HETATM   25  C11 UNL     1      29.751   8.586  45.044  1.00  0.00     0.337 C 
BRANCH  25  26
HETATM   26  O4  UNL     1      28.552   8.296  44.411  1.00  0.00    -0.377 OA
HETATM   27  H13 UNL     1      28.041   9.107  44.137  1.00  0.00     0.212 HD
ENDBRANCH  25  26
ENDBRANCH  24  25
ENDBRANCH   5  24
TORSDOF 8
ENDMDL
MODEL 7
REMARK VINA RESULT:      -6.8      3.971      4.766
REMARK  8 active torsions:
REMARK  status: ('A' for Active; 'I' for Inactive)
REMARK    1  A    between atoms: C2_2  and  O1_3 
REMARK    2  A    between atoms: O1_3  and  C3_4 
REMARK       I    between atoms: C3_4  and  N1_6 
REMARK    3  A    between atoms: N1_6  and  C4_7 
REMARK    4  A    between atoms: C7_10  and  C8_11 
REMARK    5  A    between atoms: C10_15  and  O3_16 
REMARK    6  A    between atoms: O3_16  and  C11_17 
REMARK    7  A    between atoms: C11_17  and  O4_18 
REMARK    8  A    between atoms: C12_19  and  O5_20 
ROOT
HETATM    1  C8  UNL     1      24.365   1.597  51.999  1.00  0.00     0.068 C 
HETATM    2  N2  UNL     1      25.404   2.308  51.649  1.00  0.00    -0.242 NA
HETATM    3  C9  UNL     1      26.825   2.228  51.897  1.00  0.00     0.230 C 
HETATM    4  N3  UNL     1      27.529   1.483  52.682  1.00  0.00    -0.248 NA
HETATM    5  C10 UNL     1      27.456   0.451  53.640  1.00  0.00     0.280 C 
HETATM    6  C12 UNL     1      26.254   0.379  54.514  1.00  0.00     0.194 C 
HETATM    7  C14 UNL     1      25.025  -0.077  53.813  1.00  0.00     0.011 C 
HETATM    8  C15 UNL     1      24.256   0.390  52.811  1.00  0.00     0.031 C 
ENDROOT
BRANCH   1   9
HETATM    9  C7  UNL     1      23.144   2.133  51.464  1.00  0.00    -0.007 A 
HETATM   10  C6  UNL     1      22.705   3.333  52.031  1.00  0.00     0.016 A 
HETATM   11  C5  UNL     1      21.532   3.957  51.604  1.00  0.00     0.030 A 
HETATM   12  C4  UNL     1      20.765   3.402  50.600  1.00  0.00     0.036 A 
HETATM   13  C17 UNL     1      21.184   2.220  50.028  1.00  0.00     0.030 A 
HETATM   14  C16 UNL     1      22.349   1.643  50.485  1.00  0.00     0.016 A 
BRANCH  12  15
HETATM   15  N1  UNL     1      19.579   4.084  50.205  1.00  0.00    -0.303 N 
HETATM   16  C3  UNL     1      18.391   3.926  50.982  1.00  0.00     0.365 C 
HETATM   17  O2  UNL     1      18.339   3.197  52.022  1.00  0.00    -0.238 OA
HETATM   18  H6  UNL     1      19.509   4.699  49.383  1.00  0.00     0.171 HD
BRANCH  16  19
HETATM   19  O1  UNL     1      17.156   4.532  50.718  1.00  0.00    -0.304 OA
BRANCH  19  20
HETATM   20  C2  UNL     1      16.093   4.301  51.637  1.00  0.00     0.176 C 
HETATM   21  C1  UNL     1      14.852   3.978  50.836  1.00  0.00     0.034 C 
ENDBRANCH  19  20
ENDBRANCH  16  19
ENDBRANCH  12  15
ENDBRANCH   1   9
BRANCH   6  22
HETATM   22  O5  UNL     1      26.508  -0.519  55.550  1.00  0.00    -0.382 OA
HETATM   23  C13 UNL     1      25.293  -0.984  56.074  1.00  0.00     0.202 C 
ENDBRANCH   6  22
BRANCH   5  24
HETATM   24  O3  UNL     1      27.628  -0.785  52.986  1.00  0.00    -0.338 OA
BRANCH  24  25
HETATM   25  C11 UNL     1      28.876  -1.335  53.204  1.00  0.00     0.337 C 
BRANCH  25  26
HETATM   26  O4  UNL     1      29.481  -0.667  54.257  1.00  0.00    -0.377 OA
HETATM   27  H13 UNL     1      29.719   0.277  54.044  1.00  0.00     0.212 HD
ENDBRANCH  25  26
ENDBRANCH  24  25
ENDBRANCH   5  24
TORSDOF 8
ENDMDL
MODEL 8
REMARK VINA RESULT:      -6.7      4.462      5.837
REMARK  8 active torsions:
REMARK  status: ('A' for Active; 'I' for Inactive)
REMARK    1  A    between atoms: C2_2  and  O1_3 
REMARK    2  A    between atoms: O1_3  and  C3_4 
REMARK       I    between atoms: C3_4  and  N1_6 
REMARK    3  A    between atoms: N1_6  and  C4_7 
REMARK    4  A    between atoms: C7_10  and  C8_11 
REMARK    5  A    between atoms: C10_15  and  O3_16 
REMARK    6  A    between atoms: O3_16  and  C11_17 
REMARK    7  A    between atoms: C11_17  and  O4_18 
REMARK    8  A    between atoms: C12_19  and  O5_20 
ROOT
HETATM    1  C8  UNL     1      24.882   1.555  51.821  1.00  0.00     0.068 C 
HETATM    2  N2  UNL     1      26.088   2.046  51.704  1.00  0.00    -0.242 NA
HETATM    3  C9  UNL     1      27.386   1.697  52.234  1.00  0.00     0.230 C 
HETATM    4  N3  UNL     1      27.758   0.845  53.131  1.00  0.00    -0.248 NA
HETATM    5  C10 UNL     1      27.293  -0.134  54.031  1.00  0.00     0.280 C 
HETATM    6  C12 UNL     1      25.948   0.043  54.641  1.00  0.00     0.194 C 
HETATM    7  C14 UNL     1      24.823  -0.181  53.695  1.00  0.00     0.011 C 
HETATM    8  C15 UNL     1      24.379   0.407  52.568  1.00  0.00     0.031 C 
ENDROOT
BRANCH   1   9
HETATM    9  C7  UNL     1      23.923   2.307  51.059  1.00  0.00    -0.007 A 
HETATM   10  C6  UNL     1      22.600   2.238  51.507  1.00  0.00     0.016 A 
HETATM   11  C5  UNL     1      21.572   2.918  50.854  1.00  0.00     0.030 A 
HETATM   12  C4  UNL     1      21.833   3.686  49.737  1.00  0.00     0.036 A 
HETATM   13  C17 UNL     1      23.132   3.766  49.282  1.00  0.00     0.030 A 
HETATM   14  C16 UNL     1      24.112   3.076  49.962  1.00  0.00     0.016 A 
BRANCH  12  15
HETATM   15  N1  UNL     1      20.743   4.358  49.113  1.00  0.00    -0.303 N 
HETATM   16  C3  UNL     1      20.016   3.696  48.078  1.00  0.00     0.365 C 
HETATM   17  O2  UNL     1      20.296   2.522  47.680  1.00  0.00    -0.238 OA
HETATM   18  H6  UNL     1      20.431   5.307  49.357  1.00  0.00     0.171 HD
BRANCH  16  19
HETATM   19  O1  UNL     1      18.926   4.229  47.378  1.00  0.00    -0.304 OA
BRANCH  19  20
HETATM   20  C2  UNL     1      18.224   5.317  47.972  1.00  0.00     0.176 C 
HETATM   21  C1  UNL     1      18.140   6.427  46.948  1.00  0.00     0.034 C 
ENDBRANCH  19  20
ENDBRANCH  16  19
ENDBRANCH  12  15
ENDBRANCH   1   9
BRANCH   6  22
HETATM   22  O5  UNL     1      25.808  -0.868  55.687  1.00  0.00    -0.382 OA
HETATM   23  C13 UNL     1      24.469  -1.277  55.774  1.00  0.00     0.202 C 
ENDBRANCH   6  22
BRANCH   5  24
HETATM   24  O3  UNL     1      27.355  -1.393  53.400  1.00  0.00    -0.338 OA
BRANCH  24  25
HETATM   25  C11 UNL     1      28.647  -1.856  53.256  1.00  0.00     0.337 C 
BRANCH  25  26
HETATM   26  O4  UNL     1      28.625  -3.242  53.238  1.00  0.00    -0.377 OA
HETATM   27  H13 UNL     1      28.161  -3.642  54.025  1.00  0.00     0.212 HD
ENDBRANCH  25  26
ENDBRANCH  24  25
ENDBRANCH   5  24
TORSDOF 8
ENDMDL
MODEL 9
REMARK VINA RESULT:      -6.6      6.044     12.037
REMARK  8 active torsions:
REMARK  status: ('A' for Active; 'I' for Inactive)
REMARK    1  A    between atoms: C2_2  and  O1_3 
REMARK    2  A    between atoms: O1_3  and  C3_4 
REMARK       I    between atoms: C3_4  and  N1_6 
REMARK    3  A    between atoms: N1_6  and  C4_7 
REMARK    4  A    between atoms: C7_10  and  C8_11 
REMARK    5  A    between atoms: C10_15  and  O3_16 
REMARK    6  A    between atoms: O3_16  and  C11_17 
REMARK    7  A    between atoms: C11_17  and  O4_18 
REMARK    8  A    between atoms: C12_19  and  O5_20 
ROOT
HETATM    1  C8  UNL     1      25.785   5.561  48.872  1.00  0.00     0.068 C 
HETATM    2  N2  UNL     1      24.816   6.347  48.485  1.00  0.00    -0.242 NA
HETATM    3  C9  UNL     1      23.378   6.340  48.628  1.00  0.00     0.230 C 
HETATM    4  N3  UNL     1      22.555   5.454  49.080  1.00  0.00    -0.248 NA
HETATM    5  C10 UNL     1      22.466   4.161  49.633  1.00  0.00     0.280 C 
HETATM    6  C12 UNL     1      23.463   3.139  49.213  1.00  0.00     0.194 C 
HETATM    7  C14 UNL     1      24.827   3.365  49.760  1.00  0.00     0.011 C 
HETATM    8  C15 UNL     1      25.768   4.320  49.639  1.00  0.00     0.031 C 
ENDROOT
BRANCH   1   9
HETATM    9  C7  UNL     1      27.070   6.048  48.451  1.00  0.00    -0.007 A 
HETATM   10  C6  UNL     1      28.113   5.118  48.477  1.00  0.00     0.016 A 
HETATM   11  C5  UNL     1      29.410   5.464  48.097  1.00  0.00     0.030 A 
HETATM   12  C4  UNL     1      29.703   6.746  47.679  1.00  0.00     0.036 A 
HETATM   13  C17 UNL     1      28.686   7.676  47.646  1.00  0.00     0.030 A 
HETATM   14  C16 UNL     1      27.423   7.285  48.032  1.00  0.00     0.016 A 
BRANCH  12  15
HETATM   15  N1  UNL     1      31.045   7.041  47.302  1.00  0.00    -0.303 N 
HETATM   16  C3  UNL     1      31.922   7.640  48.256  1.00  0.00     0.365 C 
HETATM   17  O2  UNL     1      31.562   7.927  49.440  1.00  0.00    -0.238 OA
HETATM   18  H6  UNL     1      31.441   6.849  46.372  1.00  0.00     0.171 HD
BRANCH  16  19
HETATM   19  O1  UNL     1      33.262   7.983  48.029  1.00  0.00    -0.304 OA
BRANCH  19  20
HETATM   20  C2  UNL     1      34.266   7.140  48.586  1.00  0.00     0.176 C 
HETATM   21  C1  UNL     1      35.610   7.775  48.307  1.00  0.00     0.034 C 
ENDBRANCH  19  20
ENDBRANCH  16  19
ENDBRANCH  12  15
ENDBRANCH   1   9
BRANCH   6  22
HETATM   22  O5  UNL     1      23.033   1.888  49.652  1.00  0.00    -0.382 OA
HETATM   23  C13 UNL     1      21.847   1.541  48.986  1.00  0.00     0.202 C 
ENDBRANCH   6  22
BRANCH   5  24
HETATM   24  O3  UNL     1      22.478   4.269  51.038  1.00  0.00    -0.338 OA
BRANCH  24  25
HETATM   25  C11 UNL     1      21.428   5.021  51.525  1.00  0.00     0.337 C 
BRANCH  25  26
HETATM   26  O4  UNL     1      21.874   6.312  51.763  1.00  0.00    -0.377 OA
HETATM   27  H13 UNL     1      22.123   6.476  52.714  1.00  0.00     0.212 HD
ENDBRANCH  25  26
ENDBRANCH  24  25
ENDBRANCH   5  24
TORSDOF 8
ENDMDL
