MODEL 1
REMARK VINA RESULT:      -9.1      0.000      0.000
REMARK  3 active torsions:
REMARK  status: ('A' for Active; 'I' for Inactive)
REMARK    1  A    between atoms: C4_4  and  C5_5 
REMARK    2  A    between atoms: C6_6  and  C7_7 
REMARK    3  A    between atoms: C9_9  and  C10_10 
ROOT
HETATM    1  C1  UNL     1      25.665   7.534  47.587  1.00  0.00     0.017 C 
HETATM    2  C2  UNL     1      25.681   6.621  48.398  1.00  0.00    -0.089 C 
HETATM    3  C3  UNL     1      25.705   5.562  49.373  1.00  0.00     0.063 C 
HETATM    4  C4  UNL     1      26.448   4.478  49.224  1.00  0.00     0.009 C 
ENDROOT
BRANCH   4   5
HETATM    5  C5  UNL     1      26.478   3.407  50.196  1.00  0.00    -0.001 C 
HETATM    6  C6  UNL     1      25.417   2.947  50.824  1.00  0.00     0.006 C 
BRANCH   6   7
HETATM    7  C7  UNL     1      25.547   1.846  51.808  1.00  0.00     0.159 C 
HETATM    8  C8  UNL     1      24.232   1.304  52.150  1.00  0.00     0.099 C 
HETATM    9  C9  UNL     1      24.153   0.189  53.129  1.00  0.00     0.075 C 
HETATM   10  N1  UNL     1      24.803  -0.601  53.891  1.00  0.00    -0.130 NA
HETATM   11  O1  UNL     1      26.026  -0.854  54.232  1.00  0.00    -0.185 OA
HETATM   12  C16 UNL     1      27.164  -0.148  54.202  1.00  0.00     0.239 A 
HETATM   13  N2  UNL     1      26.727   0.929  53.636  1.00  0.00    -0.191 NA
HETATM   14  S1  UNL     1      28.949   0.255  54.457  1.00  0.00    -0.050 SA
HETATM   15  C17 UNL     1      27.482   1.941  53.381  1.00  0.00     0.174 A 
HETATM   16  C18 UNL     1      28.898   2.026  53.682  1.00  0.00     0.112 A 
HETATM   17  O2  UNL     1      26.273   2.398  52.894  1.00  0.00    -0.324 OA
BRANCH   9  18
HETATM   18  C10 UNL     1      22.722  -0.179  53.302  1.00  0.00    -0.009 A 
HETATM   19  C11 UNL     1      21.688   0.494  52.668  1.00  0.00     0.013 A 
HETATM   20  C12 UNL     1      20.321   0.197  52.792  1.00  0.00     0.001 A 
HETATM   21  C13 UNL     1      19.988  -0.849  53.607  1.00  0.00     0.000 A 
HETATM   22  C14 UNL     1      20.914  -1.598  54.292  1.00  0.00     0.001 A 
HETATM   23  C15 UNL     1      22.220  -1.221  54.099  1.00  0.00     0.013 A 
ENDBRANCH   9  18
ENDBRANCH   6   7
ENDBRANCH   4   5
TORSDOF 3
ENDMDL
MODEL 2
REMARK VINA RESULT:      -9.0      2.512      4.899
REMARK  3 active torsions:
REMARK  status: ('A' for Active; 'I' for Inactive)
REMARK    1  A    between atoms: C4_4  and  C5_5 
REMARK    2  A    between atoms: C6_6  and  C7_7 
REMARK    3  A    between atoms: C9_9  and  C10_10 
ROOT
HETATM    1  C1  UNL     1      27.624   7.504  47.520  1.00  0.00     0.017 C 
HETATM    2  C2  UNL     1      27.166   6.652  48.266  1.00  0.00    -0.089 C 
HETATM    3  C3  UNL     1      26.633   5.662  49.166  1.00  0.00     0.063 C 
HETATM    4  C4  UNL     1      26.983   4.388  49.106  1.00  0.00     0.009 C 
ENDROOT
BRANCH   4   5
HETATM    5  C5  UNL     1      26.453   3.385  50.003  1.00  0.00    -0.001 C 
HETATM    6  C6  UNL     1      25.341   3.523  50.695  1.00  0.00     0.006 C 
BRANCH   6   7
HETATM    7  C7  UNL     1      24.877   2.439  51.593  1.00  0.00     0.159 C 
HETATM    8  C8  UNL     1      25.980   1.534  51.918  1.00  0.00     0.099 C 
HETATM    9  C9  UNL     1      25.712   0.375  52.809  1.00  0.00     0.075 C 
HETATM   10  N1  UNL     1      24.843  -0.251  53.501  1.00  0.00    -0.130 NA
HETATM   11  O1  UNL     1      23.589  -0.171  53.811  1.00  0.00    -0.185 OA
HETATM   12  C16 UNL     1      22.528   0.424  53.248  1.00  0.00     0.239 A 
HETATM   13  N2  UNL     1      23.119   1.013  52.261  1.00  0.00    -0.191 NA
HETATM   14  S1  UNL     1      20.769   0.930  52.994  1.00  0.00    -0.050 SA
HETATM   15  C17 UNL     1      22.491   1.739  51.402  1.00  0.00     0.174 A 
HETATM   16  C18 UNL     1      21.064   1.998  51.410  1.00  0.00     0.112 A 
HETATM   17  O2  UNL     1      23.782   1.840  50.922  1.00  0.00    -0.324 OA
BRANCH   9  18
HETATM   18  C10 UNL     1      26.980  -0.381  52.984  1.00  0.00    -0.009 A 
HETATM   19  C11 UNL     1      28.159   0.211  53.414  1.00  0.00     0.013 A 
HETATM   20  C12 UNL     1      29.386  -0.447  53.597  1.00  0.00     0.001 A 
HETATM   21  C13 UNL     1      29.414  -1.787  53.330  1.00  0.00     0.000 A 
HETATM   22  C14 UNL     1      28.318  -2.494  52.898  1.00  0.00     0.001 A 
HETATM   23  C15 UNL     1      27.171  -1.753  52.753  1.00  0.00     0.013 A 
ENDBRANCH   9  18
ENDBRANCH   6   7
ENDBRANCH   4   5
TORSDOF 3
ENDMDL
MODEL 3
REMARK VINA RESULT:      -8.7      2.359      4.957
REMARK  3 active torsions:
REMARK  status: ('A' for Active; 'I' for Inactive)
REMARK    1  A    between atoms: C4_4  and  C5_5 
REMARK    2  A    between atoms: C6_6  and  C7_7 
REMARK    3  A    between atoms: C9_9  and  C10_10 
ROOT
HETATM    1  C1  UNL     1      25.977   7.245  47.806  1.00  0.00     0.017 C 
HETATM    2  C2  UNL     1      25.725   6.344  48.593  1.00  0.00    -0.089 C 
HETATM    3  C3  UNL     1      25.431   5.300  49.539  1.00  0.00     0.063 C 
HETATM    4  C4  UNL     1      26.065   4.139  49.534  1.00  0.00     0.009 C 
ENDROOT
BRANCH   4   5
HETATM    5  C5  UNL     1      25.777   3.082  50.478  1.00  0.00    -0.001 C 
HETATM    6  C6  UNL     1      24.647   2.972  51.143  1.00  0.00     0.006 C 
BRANCH   6   7
HETATM    7  C7  UNL     1      24.443   1.853  52.094  1.00  0.00     0.159 C 
HETATM    8  C8  UNL     1      25.695   1.129  52.311  1.00  0.00     0.099 C 
HETATM    9  C9  UNL     1      25.695  -0.035  53.236  1.00  0.00     0.075 C 
HETATM   10  N1  UNL     1      25.003  -0.765  54.020  1.00  0.00    -0.130 NA
HETATM   11  O1  UNL     1      23.789  -0.864  54.457  1.00  0.00    -0.185 OA
HETATM   12  C16 UNL     1      22.599  -0.447  54.001  1.00  0.00     0.239 A 
HETATM   13  N2  UNL     1      22.994   0.199  52.952  1.00  0.00    -0.191 NA
HETATM   14  S1  UNL     1      20.769  -0.213  53.925  1.00  0.00    -0.050 SA
HETATM   15  C17 UNL     1      22.181   0.803  52.156  1.00  0.00     0.174 A 
HETATM   16  C18 UNL     1      20.739   0.849  52.309  1.00  0.00     0.112 A 
HETATM   17  O2  UNL     1      23.387   1.082  51.545  1.00  0.00    -0.324 OA
BRANCH   9  18
HETATM   18  C10 UNL     1      27.073  -0.591  53.286  1.00  0.00    -0.009 A 
HETATM   19  C11 UNL     1      28.162   0.131  53.753  1.00  0.00     0.013 A 
HETATM   20  C12 UNL     1      29.484  -0.336  53.824  1.00  0.00     0.001 A 
HETATM   21  C13 UNL     1      29.711  -1.614  53.397  1.00  0.00     0.000 A 
HETATM   22  C14 UNL     1      28.722  -2.435  52.913  1.00  0.00     0.001 A 
HETATM   23  C15 UNL     1      27.468  -1.878  52.887  1.00  0.00     0.013 A 
ENDBRANCH   9  18
ENDBRANCH   6   7
ENDBRANCH   4   5
TORSDOF 3
ENDMDL
MODEL 4
REMARK VINA RESULT:      -8.6      2.922      6.991
REMARK  3 active torsions:
REMARK  status: ('A' for Active; 'I' for Inactive)
REMARK    1  A    between atoms: C4_4  and  C5_5 
REMARK    2  A    between atoms: C6_6  and  C7_7 
REMARK    3  A    between atoms: C9_9  and  C10_10 
ROOT
HETATM    1  C1  UNL     1      17.699  -1.465  53.422  1.00  0.00     0.017 C 
HETATM    2  C2  UNL     1      18.679  -0.847  53.038  1.00  0.00    -0.089 C 
HETATM    3  C3  UNL     1      19.842  -0.137  52.570  1.00  0.00     0.063 C 
HETATM    4  C4  UNL     1      20.731   0.389  53.395  1.00  0.00     0.009 C 
ENDROOT
BRANCH   4   5
HETATM    5  C5  UNL     1      21.901   1.105  52.937  1.00  0.00    -0.001 C 
HETATM    6  C6  UNL     1      22.583   0.794  51.854  1.00  0.00     0.006 C 
BRANCH   6   7
HETATM    7  C7  UNL     1      23.773   1.586  51.465  1.00  0.00     0.159 C 
HETATM    8  C8  UNL     1      24.978   1.047  52.096  1.00  0.00     0.099 C 
HETATM    9  C9  UNL     1      26.280   1.711  51.828  1.00  0.00     0.075 C 
HETATM   10  N1  UNL     1      26.884   2.653  51.215  1.00  0.00    -0.130 NA
HETATM   11  O1  UNL     1      26.619   3.631  50.411  1.00  0.00    -0.185 OA
HETATM   12  C16 UNL     1      25.509   4.328  50.128  1.00  0.00     0.239 A 
HETATM   13  N2  UNL     1      24.667   3.689  50.871  1.00  0.00    -0.191 NA
HETATM   14  S1  UNL     1      24.433   5.614  49.353  1.00  0.00    -0.050 SA
HETATM   15  C17 UNL     1      23.419   3.999  50.939  1.00  0.00     0.174 A 
HETATM   16  C18 UNL     1      22.785   5.083  50.214  1.00  0.00     0.112 A 
HETATM   17  O2  UNL     1      23.460   2.926  51.807  1.00  0.00    -0.324 OA
BRANCH   9  18
HETATM   18  C10 UNL     1      27.339   0.980  52.575  1.00  0.00    -0.009 A 
HETATM   19  C11 UNL     1      28.334   1.623  53.297  1.00  0.00     0.013 A 
HETATM   20  C12 UNL     1      29.359   0.992  54.019  1.00  0.00     0.001 A 
HETATM   21  C13 UNL     1      29.370  -0.375  54.010  1.00  0.00     0.000 A 
HETATM   22  C14 UNL     1      28.443  -1.132  53.336  1.00  0.00     0.001 A 
HETATM   23  C15 UNL     1      27.486  -0.414  52.663  1.00  0.00     0.013 A 
ENDBRANCH   9  18
ENDBRANCH   6   7
ENDBRANCH   4   5
TORSDOF 3
ENDMDL
MODEL 5
REMARK VINA RESULT:      -8.4      3.377      5.834
REMARK  3 active torsions:
REMARK  status: ('A' for Active; 'I' for Inactive)
REMARK    1  A    between atoms: C4_4  and  C5_5 
REMARK    2  A    between atoms: C6_6  and  C7_7 
REMARK    3  A    between atoms: C9_9  and  C10_10 
ROOT
HETATM    1  C1  UNL     1      29.766  -1.697  53.457  1.00  0.00     0.017 C 
HETATM    2  C2  UNL     1      28.775  -0.999  53.305  1.00  0.00    -0.089 C 
HETATM    3  C3  UNL     1      27.613  -0.163  53.149  1.00  0.00     0.063 C 
HETATM    4  C4  UNL     1      26.403  -0.661  52.953  1.00  0.00     0.009 C 
ENDROOT
BRANCH   4   5
HETATM    5  C5  UNL     1      25.229   0.169  52.792  1.00  0.00    -0.001 C 
HETATM    6  C6  UNL     1      24.038  -0.134  53.264  1.00  0.00     0.006 C 
BRANCH   6   7
HETATM    7  C7  UNL     1      22.892   0.779  53.047  1.00  0.00     0.159 C 
HETATM    8  C8  UNL     1      21.635   0.029  53.022  1.00  0.00     0.099 C 
HETATM    9  C9  UNL     1      20.366   0.773  52.812  1.00  0.00     0.075 C 
HETATM   10  N1  UNL     1      19.823   1.911  52.625  1.00  0.00    -0.130 NA
HETATM   11  O1  UNL     1      20.161   3.156  52.510  1.00  0.00    -0.185 OA
HETATM   12  C16 UNL     1      21.298   3.784  52.180  1.00  0.00     0.239 A 
HETATM   13  N2  UNL     1      22.074   2.758  52.053  1.00  0.00    -0.191 NA
HETATM   14  S1  UNL     1      22.447   5.178  51.795  1.00  0.00    -0.050 SA
HETATM   15  C17 UNL     1      23.317   2.856  51.732  1.00  0.00     0.174 A 
HETATM   16  C18 UNL     1      24.018   4.099  51.472  1.00  0.00     0.112 A 
HETATM   17  O2  UNL     1      23.196   1.486  51.857  1.00  0.00    -0.324 OA
BRANCH   9  18
HETATM   18  C10 UNL     1      19.245  -0.204  52.830  1.00  0.00    -0.009 A 
HETATM   19  C11 UNL     1      19.237  -1.329  53.642  1.00  0.00     0.013 A 
HETATM   20  C12 UNL     1      18.213  -2.288  53.703  1.00  0.00     0.001 A 
HETATM   21  C13 UNL     1      17.131  -2.087  52.893  1.00  0.00     0.000 A 
HETATM   22  C14 UNL     1      17.013  -1.015  52.042  1.00  0.00     0.001 A 
HETATM   23  C15 UNL     1      18.071  -0.141  52.062  1.00  0.00     0.013 A 
ENDBRANCH   9  18
ENDBRANCH   6   7
ENDBRANCH   4   5
TORSDOF 3
ENDMDL
MODEL 6
REMARK VINA RESULT:      -7.7      1.522      6.249
REMARK  3 active torsions:
REMARK  status: ('A' for Active; 'I' for Inactive)
REMARK    1  A    between atoms: C4_4  and  C5_5 
REMARK    2  A    between atoms: C6_6  and  C7_7 
REMARK    3  A    between atoms: C9_9  and  C10_10 
ROOT
HETATM    1  C1  UNL     1      17.595  -0.490  51.897  1.00  0.00     0.017 C 
HETATM    2  C2  UNL     1      18.711   0.000  51.828  1.00  0.00    -0.089 C 
HETATM    3  C3  UNL     1      20.028   0.574  51.721  1.00  0.00     0.063 C 
HETATM    4  C4  UNL     1      21.026   0.211  52.510  1.00  0.00     0.009 C 
ENDROOT
BRANCH   4   5
HETATM    5  C5  UNL     1      22.351   0.781  52.413  1.00  0.00    -0.001 C 
HETATM    6  C6  UNL     1      23.464   0.105  52.607  1.00  0.00     0.006 C 
BRANCH   6   7
HETATM    7  C7  UNL     1      24.780   0.778  52.488  1.00  0.00     0.159 C 
HETATM    8  C8  UNL     1      24.696   1.910  51.566  1.00  0.00     0.099 C 
HETATM    9  C9  UNL     1      25.920   2.713  51.311  1.00  0.00     0.075 C 
HETATM   10  N1  UNL     1      27.158   2.873  51.575  1.00  0.00    -0.130 NA
HETATM   11  O1  UNL     1      28.086   2.335  52.301  1.00  0.00    -0.185 OA
HETATM   12  C16 UNL     1      28.254   1.123  52.847  1.00  0.00     0.239 A 
HETATM   13  N2  UNL     1      27.132   0.581  52.502  1.00  0.00    -0.191 NA
HETATM   14  S1  UNL     1      29.070  -0.251  53.773  1.00  0.00    -0.050 SA
HETATM   15  C17 UNL     1      26.815  -0.628  52.811  1.00  0.00     0.174 A 
HETATM   16  C18 UNL     1      27.646  -1.543  53.570  1.00  0.00     0.112 A 
HETATM   17  O2  UNL     1      25.689  -0.243  52.111  1.00  0.00    -0.324 OA
BRANCH   9  18
HETATM   18  C10 UNL     1      25.577   3.795  50.350  1.00  0.00    -0.009 A 
HETATM   19  C11 UNL     1      24.270   4.139  50.037  1.00  0.00     0.013 A 
HETATM   20  C12 UNL     1      23.881   5.147  49.140  1.00  0.00     0.001 A 
HETATM   21  C13 UNL     1      24.882   5.847  48.526  1.00  0.00     0.000 A 
HETATM   22  C14 UNL     1      26.217   5.607  48.748  1.00  0.00     0.001 A 
HETATM   23  C15 UNL     1      26.483   4.601  49.643  1.00  0.00     0.013 A 
ENDBRANCH   9  18
ENDBRANCH   6   7
ENDBRANCH   4   5
TORSDOF 3
ENDMDL
MODEL 7
REMARK VINA RESULT:      -7.4      1.656      2.145
REMARK  3 active torsions:
REMARK  status: ('A' for Active; 'I' for Inactive)
REMARK    1  A    between atoms: C4_4  and  C5_5 
REMARK    2  A    between atoms: C6_6  and  C7_7 
REMARK    3  A    between atoms: C9_9  and  C10_10 
ROOT
HETATM    1  C1  UNL     1      26.373   8.149  48.109  1.00  0.00     0.017 C 
HETATM    2  C2  UNL     1      26.186   7.165  48.807  1.00  0.00    -0.089 C 
HETATM    3  C3  UNL     1      25.979   5.990  49.614  1.00  0.00     0.063 C 
HETATM    4  C4  UNL     1      24.775   5.587  49.984  1.00  0.00     0.009 C 
ENDROOT
BRANCH   4   5
HETATM    5  C5  UNL     1      24.556   4.410  50.796  1.00  0.00    -0.001 C 
HETATM    6  C6  UNL     1      24.334   3.206  50.310  1.00  0.00     0.006 C 
BRANCH   6   7
HETATM    7  C7  UNL     1      24.117   2.058  51.222  1.00  0.00     0.159 C 
HETATM    8  C8  UNL     1      22.710   1.656  51.216  1.00  0.00     0.099 C 
HETATM    9  C9  UNL     1      22.291   0.518  52.074  1.00  0.00     0.075 C 
HETATM   10  N1  UNL     1      22.660  -0.372  52.910  1.00  0.00    -0.130 NA
HETATM   11  O1  UNL     1      23.736  -0.775  53.506  1.00  0.00    -0.185 OA
HETATM   12  C16 UNL     1      24.915  -0.203  53.786  1.00  0.00     0.239 A 
HETATM   13  N2  UNL     1      24.735   0.939  53.207  1.00  0.00    -0.191 NA
HETATM   14  S1  UNL     1      26.621  -0.016  54.470  1.00  0.00    -0.050 SA
HETATM   15  C17 UNL     1      25.626   1.869  53.200  1.00  0.00     0.174 A 
HETATM   16  C18 UNL     1      26.932   1.780  53.824  1.00  0.00     0.112 A 
HETATM   17  O2  UNL     1      24.618   2.479  52.480  1.00  0.00    -0.324 OA
BRANCH   9  18
HETATM   18  C10 UNL     1      20.830   0.307  51.888  1.00  0.00    -0.009 A 
HETATM   19  C11 UNL     1      20.159   0.660  50.727  1.00  0.00     0.013 A 
HETATM   20  C12 UNL     1      18.785   0.490  50.492  1.00  0.00     0.001 A 
HETATM   21  C13 UNL     1      18.052  -0.076  51.498  1.00  0.00     0.000 A 
HETATM   22  C14 UNL     1      18.595  -0.471  52.697  1.00  0.00     0.001 A 
HETATM   23  C15 UNL     1      19.945  -0.258  52.820  1.00  0.00     0.013 A 
ENDBRANCH   9  18
ENDBRANCH   6   7
ENDBRANCH   4   5
TORSDOF 3
ENDMDL
MODEL 8
REMARK VINA RESULT:      -7.3      3.594      7.354
REMARK  3 active torsions:
REMARK  status: ('A' for Active; 'I' for Inactive)
REMARK    1  A    between atoms: C4_4  and  C5_5 
REMARK    2  A    between atoms: C6_6  and  C7_7 
REMARK    3  A    between atoms: C9_9  and  C10_10 
ROOT
HETATM    1  C1  UNL     1      15.790  -1.887  52.458  1.00  0.00     0.017 C 
HETATM    2  C2  UNL     1      16.774  -1.199  52.233  1.00  0.00    -0.089 C 
HETATM    3  C3  UNL     1      17.935  -0.397  51.944  1.00  0.00     0.063 C 
HETATM    4  C4  UNL     1      19.038  -0.457  52.672  1.00  0.00     0.009 C 
ENDROOT
BRANCH   4   5
HETATM    5  C5  UNL     1      20.208   0.345  52.392  1.00  0.00    -0.001 C 
HETATM    6  C6  UNL     1      20.300   1.197  51.393  1.00  0.00     0.006 C 
BRANCH   6   7
HETATM    7  C7  UNL     1      21.544   1.975  51.183  1.00  0.00     0.159 C 
HETATM    8  C8  UNL     1      22.699   1.250  51.714  1.00  0.00     0.099 C 
HETATM    9  C9  UNL     1      24.044   1.871  51.600  1.00  0.00     0.075 C 
HETATM   10  N1  UNL     1      24.717   2.875  51.193  1.00  0.00    -0.130 NA
HETATM   11  O1  UNL     1      24.530   4.006  50.592  1.00  0.00    -0.185 OA
HETATM   12  C16 UNL     1      23.471   4.812  50.435  1.00  0.00     0.239 A 
HETATM   13  N2  UNL     1      22.573   4.094  51.026  1.00  0.00    -0.191 NA
HETATM   14  S1  UNL     1      22.491   6.288  49.911  1.00  0.00    -0.050 SA
HETATM   15  C17 UNL     1      21.344   4.461  51.136  1.00  0.00     0.174 A 
HETATM   16  C18 UNL     1      20.793   5.703  50.627  1.00  0.00     0.112 A 
HETATM   17  O2  UNL     1      21.300   3.239  51.777  1.00  0.00    -0.324 OA
BRANCH   9  18
HETATM   18  C10 UNL     1      25.038   0.945  52.206  1.00  0.00    -0.009 A 
HETATM   19  C11 UNL     1      24.699  -0.014  53.149  1.00  0.00     0.013 A 
HETATM   20  C12 UNL     1      25.588  -0.913  53.758  1.00  0.00     0.001 A 
HETATM   21  C13 UNL     1      26.900  -0.835  53.381  1.00  0.00     0.000 A 
HETATM   22  C14 UNL     1      27.367   0.068  52.457  1.00  0.00     0.001 A 
HETATM   23  C15 UNL     1      26.413   0.900  51.926  1.00  0.00     0.013 A 
ENDBRANCH   9  18
ENDBRANCH   6   7
ENDBRANCH   4   5
TORSDOF 3
ENDMDL
MODEL 9
REMARK VINA RESULT:      -7.2      6.225      8.796
REMARK  3 active torsions:
REMARK  status: ('A' for Active; 'I' for Inactive)
REMARK    1  A    between atoms: C4_4  and  C5_5 
REMARK    2  A    between atoms: C6_6  and  C7_7 
REMARK    3  A    between atoms: C9_9  and  C10_10 
ROOT
HETATM    1  C1  UNL     1      27.726  15.060  46.884  1.00  0.00     0.017 C 
HETATM    2  C2  UNL     1      28.019  13.882  47.019  1.00  0.00    -0.089 C 
HETATM    3  C3  UNL     1      28.341  12.488  47.176  1.00  0.00     0.063 C 
HETATM    4  C4  UNL     1      29.066  12.036  48.186  1.00  0.00     0.009 C 
ENDROOT
BRANCH   4   5
HETATM    5  C5  UNL     1      29.396  10.638  48.353  1.00  0.00    -0.001 C 
HETATM    6  C6  UNL     1      29.599   9.801  47.357  1.00  0.00     0.006 C 
BRANCH   6   7
HETATM    7  C7  UNL     1      29.931   8.382  47.626  1.00  0.00     0.159 C 
HETATM    8  C8  UNL     1      28.725   7.630  47.977  1.00  0.00     0.099 C 
HETATM    9  C9  UNL     1      28.853   6.183  48.286  1.00  0.00     0.075 C 
HETATM   10  N1  UNL     1      29.643   5.186  48.389  1.00  0.00    -0.130 NA
HETATM   11  O1  UNL     1      30.901   4.910  48.256  1.00  0.00    -0.185 OA
HETATM   12  C16 UNL     1      32.023   5.643  48.290  1.00  0.00     0.239 A 
HETATM   13  N2  UNL     1      31.501   6.817  48.436  1.00  0.00    -0.191 NA
HETATM   14  S1  UNL     1      33.828   6.032  48.260  1.00  0.00    -0.050 SA
HETATM   15  C17 UNL     1      32.207   7.890  48.522  1.00  0.00     0.174 A 
HETATM   16  C18 UNL     1      33.655   7.946  48.469  1.00  0.00     0.112 A 
HETATM   17  O2  UNL     1      30.934   8.415  48.627  1.00  0.00    -0.324 OA
BRANCH   9  18
HETATM   18  C10 UNL     1      27.501   5.653  48.606  1.00  0.00    -0.009 A 
HETATM   19  C11 UNL     1      26.350   6.422  48.522  1.00  0.00     0.013 A 
HETATM   20  C12 UNL     1      25.049   5.982  48.812  1.00  0.00     0.001 A 
HETATM   21  C13 UNL     1      24.910   4.680  49.207  1.00  0.00     0.000 A 
HETATM   22  C14 UNL     1      25.968   3.813  49.330  1.00  0.00     0.001 A 
HETATM   23  C15 UNL     1      27.195   4.347  49.023  1.00  0.00     0.013 A 
ENDBRANCH   9  18
ENDBRANCH   6   7
ENDBRANCH   4   5
TORSDOF 3
ENDMDL
