MODEL 1
REMARK VINA RESULT:      -8.1      0.000      0.000
REMARK  8 active torsions:
REMARK  status: ('A' for Active; 'I' for Inactive)
REMARK    1  A    between atoms: C1_2  and  O2_3 
REMARK    2  A    between atoms: C1_2  and  C2_4 
REMARK    3  A    between atoms: C4_6  and  N1_7 
REMARK    4  A    between atoms: N1_7  and  C5_8 
REMARK    5  A    between atoms: C5_8  and  C6_9 
REMARK    6  A    between atoms: C8_11  and  O3_12 
REMARK    7  A    between atoms: C11_15  and  O4_16 
REMARK    8  A    between atoms: C14_19  and  O5_20 
ROOT
HETATM    1  N1  UNL     1      25.538   1.573  52.743  1.00  0.00    -0.389 N 
HETATM    2  H3  UNL     1      25.725   2.367  52.111  1.00  0.00     0.159 HD
ENDROOT
BRANCH   1   3
HETATM    3  C4  UNL     1      24.214   1.049  52.802  1.00  0.00     0.029 A 
HETATM    4  C3  UNL     1      23.852   0.108  53.765  1.00  0.00     0.050 A 
HETATM    5  C2  UNL     1      22.568  -0.374  53.791  1.00  0.00     0.072 A 
HETATM    6  C14 UNL     1      21.603   0.040  52.892  1.00  0.00     0.082 A 
HETATM    7  C13 UNL     1      21.942   0.967  51.934  1.00  0.00     0.040 A 
HETATM    8  C12 UNL     1      23.231   1.441  51.919  1.00  0.00     0.032 A 
BRANCH   5   9
HETATM    9  C1  UNL     1      22.269  -1.355  54.828  1.00  0.00     0.179 C 
HETATM   10  O1  UNL     1      21.192  -2.009  54.961  1.00  0.00    -0.646 OA
BRANCH   9  11
HETATM   11  O2  UNL     1      23.113  -1.733  55.838  1.00  0.00    -0.773 OA
HETATM   12  H1  UNL     1      23.079  -2.572  56.380  1.00  0.00     0.167 HD
ENDBRANCH   9  11
ENDBRANCH   5   9
BRANCH   6  13
HETATM   13  O5  UNL     1      20.313  -0.486  52.967  1.00  0.00    -0.360 OA
HETATM   14  H15 UNL     1      20.099  -1.079  53.759  1.00  0.00     0.217 HD
ENDBRANCH   6  13
ENDBRANCH   1   3
BRANCH   1  15
HETATM   15  C5  UNL     1      26.543   0.973  53.561  1.00  0.00     0.131 C 
BRANCH  15  16
HETATM   16  C6  UNL     1      27.608   0.228  52.800  1.00  0.00     0.066 A 
HETATM   17  C7  UNL     1      27.410  -1.246  52.793  1.00  0.00     0.077 A 
HETATM   18  C8  UNL     1      28.659  -1.914  53.213  1.00  0.00     0.044 A 
HETATM   19  C9  UNL     1      29.869  -1.541  53.583  1.00  0.00     0.034 A 
HETATM   20  C10 UNL     1      30.052  -0.098  53.587  1.00  0.00     0.035 A 
HETATM   21  C11 UNL     1      28.965   0.553  53.219  1.00  0.00     0.049 A 
BRANCH  18  22
HETATM   22  O3  UNL     1      28.409  -3.287  53.186  1.00  0.00    -0.365 OA
HETATM   23  H9  UNL     1      29.042  -3.982  53.526  1.00  0.00     0.217 HD
ENDBRANCH  18  22
BRANCH  21  24
HETATM   24  O4  UNL     1      29.063   1.957  53.198  1.00  0.00    -0.365 OA
HETATM   25  H12 UNL     1      28.570   2.515  52.487  1.00  0.00     0.217 HD
ENDBRANCH  21  24
ENDBRANCH  15  16
ENDBRANCH   1  15
TORSDOF 8
ENDMDL
MODEL 2
REMARK VINA RESULT:      -8.0      0.814      2.092
REMARK  8 active torsions:
REMARK  status: ('A' for Active; 'I' for Inactive)
REMARK    1  A    between atoms: C1_2  and  O2_3 
REMARK    2  A    between atoms: C1_2  and  C2_4 
REMARK    3  A    between atoms: C4_6  and  N1_7 
REMARK    4  A    between atoms: N1_7  and  C5_8 
REMARK    5  A    between atoms: C5_8  and  C6_9 
REMARK    6  A    between atoms: C8_11  and  O3_12 
REMARK    7  A    between atoms: C11_15  and  O4_16 
REMARK    8  A    between atoms: C14_19  and  O5_20 
ROOT
HETATM    1  N1  UNL     1      25.670   0.626  52.084  1.00  0.00    -0.389 N 
HETATM    2  H3  UNL     1      26.036   1.491  51.657  1.00  0.00     0.159 HD
ENDROOT
BRANCH   1   3
HETATM    3  C4  UNL     1      24.333   0.625  52.578  1.00  0.00     0.029 A 
HETATM    4  C3  UNL     1      23.898  -0.346  53.480  1.00  0.00     0.050 A 
HETATM    5  C2  UNL     1      22.603  -0.315  53.933  1.00  0.00     0.072 A 
HETATM    6  C14 UNL     1      21.700   0.651  53.531  1.00  0.00     0.082 A 
HETATM    7  C13 UNL     1      22.112   1.616  52.642  1.00  0.00     0.040 A 
HETATM    8  C12 UNL     1      23.410   1.574  52.195  1.00  0.00     0.032 A 
BRANCH   5   9
HETATM    9  C1  UNL     1      22.225  -1.364  54.873  1.00  0.00     0.179 C 
HETATM   10  O1  UNL     1      21.130  -1.999  54.895  1.00  0.00    -0.646 OA
BRANCH   9  11
HETATM   11  O2  UNL     1      23.002  -1.838  55.897  1.00  0.00    -0.773 OA
HETATM   12  H1  UNL     1      22.726  -2.448  56.639  1.00  0.00     0.167 HD
ENDBRANCH   9  11
ENDBRANCH   5   9
BRANCH   6  13
HETATM   13  O5  UNL     1      20.397   0.631  54.026  1.00  0.00    -0.360 OA
HETATM   14  H15 UNL     1      19.954   1.525  54.204  1.00  0.00     0.217 HD
ENDBRANCH   6  13
ENDBRANCH   1   3
BRANCH   1  15
HETATM   15  C5  UNL     1      26.440  -0.571  52.203  1.00  0.00     0.131 C 
BRANCH  15  16
HETATM   16  C6  UNL     1      27.364  -0.606  53.393  1.00  0.00     0.066 A 
HETATM   17  C7  UNL     1      27.906   0.729  53.762  1.00  0.00     0.077 A 
HETATM   18  C8  UNL     1      29.377   0.647  53.886  1.00  0.00     0.044 A 
HETATM   19  C9  UNL     1      30.300  -0.285  53.753  1.00  0.00     0.034 A 
HETATM   20  C10 UNL     1      29.759  -1.586  53.391  1.00  0.00     0.035 A 
HETATM   21  C11 UNL     1      28.446  -1.574  53.266  1.00  0.00     0.049 A 
BRANCH  18  22
HETATM   22  O3  UNL     1      29.822   1.923  54.232  1.00  0.00    -0.365 OA
HETATM   23  H9  UNL     1      30.718   2.119  54.630  1.00  0.00     0.217 HD
ENDBRANCH  18  22
BRANCH  21  24
HETATM   24  O4  UNL     1      27.847  -2.798  52.916  1.00  0.00    -0.365 OA
HETATM   25  H12 UNL     1      28.116  -3.297  52.055  1.00  0.00     0.217 HD
ENDBRANCH  21  24
ENDBRANCH  15  16
ENDBRANCH   1  15
TORSDOF 8
ENDMDL
MODEL 3
REMARK VINA RESULT:      -7.7      1.301      2.507
REMARK  8 active torsions:
REMARK  status: ('A' for Active; 'I' for Inactive)
REMARK    1  A    between atoms: C1_2  and  O2_3 
REMARK    2  A    between atoms: C1_2  and  C2_4 
REMARK    3  A    between atoms: C4_6  and  N1_7 
REMARK    4  A    between atoms: N1_7  and  C5_8 
REMARK    5  A    between atoms: C5_8  and  C6_9 
REMARK    6  A    between atoms: C8_11  and  O3_12 
REMARK    7  A    between atoms: C11_15  and  O4_16 
REMARK    8  A    between atoms: C14_19  and  O5_20 
ROOT
HETATM    1  N1  UNL     1      24.876   0.886  52.776  1.00  0.00    -0.389 N 
HETATM    2  H3  UNL     1      25.025   1.504  51.963  1.00  0.00     0.159 HD
ENDROOT
BRANCH   1   3
HETATM    3  C4  UNL     1      23.541   0.511  53.108  1.00  0.00     0.029 A 
HETATM    4  C3  UNL     1      22.455   1.299  52.727  1.00  0.00     0.050 A 
HETATM    5  C2  UNL     1      21.185   0.908  53.064  1.00  0.00     0.072 A 
HETATM    6  C14 UNL     1      20.930  -0.251  53.774  1.00  0.00     0.082 A 
HETATM    7  C13 UNL     1      21.989  -1.040  54.158  1.00  0.00     0.040 A 
HETATM    8  C12 UNL     1      23.256  -0.636  53.815  1.00  0.00     0.032 A 
BRANCH   5   9
HETATM    9  C1  UNL     1      20.104   1.785  52.631  1.00  0.00     0.179 C 
HETATM   10  O1  UNL     1      20.034   3.039  52.799  1.00  0.00    -0.646 OA
BRANCH   9  11
HETATM   11  O2  UNL     1      18.974   1.391  51.963  1.00  0.00    -0.773 OA
HETATM   12  H1  UNL     1      18.061   1.246  52.342  1.00  0.00     0.167 HD
ENDBRANCH   9  11
ENDBRANCH   5   9
BRANCH   6  13
HETATM   13  O5  UNL     1      19.617  -0.597  54.089  1.00  0.00    -0.360 OA
HETATM   14  H15 UNL     1      18.940   0.153  54.150  1.00  0.00     0.217 HD
ENDBRANCH   6  13
ENDBRANCH   1   3
BRANCH   1  15
HETATM   15  C5  UNL     1      25.943   0.387  53.583  1.00  0.00     0.131 C 
BRANCH  15  16
HETATM   16  C6  UNL     1      27.139  -0.103  52.808  1.00  0.00     0.066 A 
HETATM   17  C7  UNL     1      27.203  -1.584  52.692  1.00  0.00     0.077 A 
HETATM   18  C8  UNL     1      28.541  -2.054  53.107  1.00  0.00     0.044 A 
HETATM   19  C9  UNL     1      29.659  -1.505  53.543  1.00  0.00     0.034 A 
HETATM   20  C10 UNL     1      29.584  -0.056  53.654  1.00  0.00     0.035 A 
HETATM   21  C11 UNL     1      28.408   0.421  53.296  1.00  0.00     0.049 A 
BRANCH  18  22
HETATM   22  O3  UNL     1      28.537  -3.443  52.975  1.00  0.00    -0.365 OA
HETATM   23  H9  UNL     1      29.206  -4.052  53.401  1.00  0.00     0.217 HD
ENDBRANCH  18  22
BRANCH  21  24
HETATM   24  O4  UNL     1      28.258   1.819  53.376  1.00  0.00    -0.365 OA
HETATM   25  H12 UNL     1      28.750   2.367  54.096  1.00  0.00     0.217 HD
ENDBRANCH  21  24
ENDBRANCH  15  16
ENDBRANCH   1  15
TORSDOF 8
ENDMDL
MODEL 4
REMARK VINA RESULT:      -7.6      2.108      6.235
REMARK  8 active torsions:
REMARK  status: ('A' for Active; 'I' for Inactive)
REMARK    1  A    between atoms: C1_2  and  O2_3 
REMARK    2  A    between atoms: C1_2  and  C2_4 
REMARK    3  A    between atoms: C4_6  and  N1_7 
REMARK    4  A    between atoms: N1_7  and  C5_8 
REMARK    5  A    between atoms: C5_8  and  C6_9 
REMARK    6  A    between atoms: C8_11  and  O3_12 
REMARK    7  A    between atoms: C11_15  and  O4_16 
REMARK    8  A    between atoms: C14_19  and  O5_20 
ROOT
HETATM    1  N1  UNL     1      26.246   2.280  52.518  1.00  0.00    -0.389 N 
HETATM    2  H3  UNL     1      26.317   2.736  51.595  1.00  0.00     0.159 HD
ENDROOT
BRANCH   1   3
HETATM    3  C4  UNL     1      27.244   1.331  52.886  1.00  0.00     0.029 A 
HETATM    4  C3  UNL     1      27.059  -0.033  52.665  1.00  0.00     0.050 A 
HETATM    5  C2  UNL     1      28.042  -0.917  53.032  1.00  0.00     0.072 A 
HETATM    6  C14 UNL     1      29.224  -0.508  53.619  1.00  0.00     0.082 A 
HETATM    7  C13 UNL     1      29.424   0.834  53.846  1.00  0.00     0.040 A 
HETATM    8  C12 UNL     1      28.432   1.708  53.473  1.00  0.00     0.032 A 
BRANCH   5   9
HETATM    9  C1  UNL     1      27.773  -2.326  52.768  1.00  0.00     0.179 C 
HETATM   10  O1  UNL     1      26.892  -2.794  51.988  1.00  0.00    -0.646 OA
BRANCH   9  11
HETATM   11  O2  UNL     1      28.439  -3.385  53.327  1.00  0.00    -0.773 OA
HETATM   12  H1  UNL     1      28.438  -4.336  53.021  1.00  0.00     0.167 HD
ENDBRANCH   9  11
ENDBRANCH   5   9
BRANCH   6  13
HETATM   13  O5  UNL     1      30.188  -1.453  53.972  1.00  0.00    -0.360 OA
HETATM   14  H15 UNL     1      30.111  -1.873  54.890  1.00  0.00     0.217 HD
ENDBRANCH   6  13
ENDBRANCH   1   3
BRANCH   1  15
HETATM   15  C5  UNL     1      25.194   2.554  53.443  1.00  0.00     0.131 C 
BRANCH  15  16
HETATM   16  C6  UNL     1      23.831   2.703  52.818  1.00  0.00     0.066 A 
HETATM   17  C7  UNL     1      23.011   1.464  52.883  1.00  0.00     0.077 A 
HETATM   18  C8  UNL     1      22.486   1.149  51.537  1.00  0.00     0.044 A 
HETATM   19  C9  UNL     1      22.564   1.674  50.329  1.00  0.00     0.034 A 
HETATM   20  C10 UNL     1      23.369   2.885  50.278  1.00  0.00     0.035 A 
HETATM   21  C11 UNL     1      23.865   3.216  51.454  1.00  0.00     0.049 A 
BRANCH  18  22
HETATM   22  O3  UNL     1      21.729  -0.017  51.664  1.00  0.00    -0.365 OA
HETATM   23  H9  UNL     1      21.349  -0.351  52.527  1.00  0.00     0.217 HD
ENDBRANCH  18  22
BRANCH  21  24
HETATM   24  O4  UNL     1      24.658   4.378  51.485  1.00  0.00    -0.365 OA
HETATM   25  H12 UNL     1      25.096   4.701  52.360  1.00  0.00     0.217 HD
ENDBRANCH  21  24
ENDBRANCH  15  16
ENDBRANCH   1  15
TORSDOF 8
ENDMDL
MODEL 5
REMARK VINA RESULT:      -7.5      2.379      3.349
REMARK  8 active torsions:
REMARK  status: ('A' for Active; 'I' for Inactive)
REMARK    1  A    between atoms: C1_2  and  O2_3 
REMARK    2  A    between atoms: C1_2  and  C2_4 
REMARK    3  A    between atoms: C4_6  and  N1_7 
REMARK    4  A    between atoms: N1_7  and  C5_8 
REMARK    5  A    between atoms: C5_8  and  C6_9 
REMARK    6  A    between atoms: C8_11  and  O3_12 
REMARK    7  A    between atoms: C11_15  and  O4_16 
REMARK    8  A    between atoms: C14_19  and  O5_20 
ROOT
HETATM    1  N1  UNL     1      26.092   2.314  53.472  1.00  0.00    -0.389 N 
HETATM    2  H3  UNL     1      26.607   3.205  53.404  1.00  0.00     0.159 HD
ENDROOT
BRANCH   1   3
HETATM    3  C4  UNL     1      24.739   2.276  53.026  1.00  0.00     0.029 A 
HETATM    4  C3  UNL     1      24.056   3.446  52.696  1.00  0.00     0.050 A 
HETATM    5  C2  UNL     1      22.754   3.372  52.271  1.00  0.00     0.072 A 
HETATM    6  C14 UNL     1      22.080   2.171  52.153  1.00  0.00     0.082 A 
HETATM    7  C13 UNL     1      22.738   1.006  52.475  1.00  0.00     0.040 A 
HETATM    8  C12 UNL     1      24.042   1.095  52.900  1.00  0.00     0.032 A 
BRANCH   5   9
HETATM    9  C1  UNL     1      22.109   4.639  51.945  1.00  0.00     0.179 C 
HETATM   10  O1  UNL     1      20.945   4.794  51.471  1.00  0.00    -0.646 OA
BRANCH   9  11
HETATM   11  O2  UNL     1      22.664   5.881  52.101  1.00  0.00    -0.773 OA
HETATM   12  H1  UNL     1      22.514   6.691  51.535  1.00  0.00     0.167 HD
ENDBRANCH   9  11
ENDBRANCH   5   9
BRANCH   6  13
HETATM   13  O5  UNL     1      20.756   2.157  51.715  1.00  0.00    -0.360 OA
HETATM   14  H15 UNL     1      20.430   1.320  51.247  1.00  0.00     0.217 HD
ENDBRANCH   6  13
ENDBRANCH   1   3
BRANCH   1  15
HETATM   15  C5  UNL     1      26.671   1.116  53.991  1.00  0.00     0.131 C 
BRANCH  15  16
HETATM   16  C6  UNL     1      27.607   0.411  53.044  1.00  0.00     0.066 A 
HETATM   17  C7  UNL     1      27.305  -1.035  52.880  1.00  0.00     0.077 A 
HETATM   18  C8  UNL     1      28.537  -1.824  53.092  1.00  0.00     0.044 A 
HETATM   19  C9  UNL     1      29.799  -1.573  53.382  1.00  0.00     0.034 A 
HETATM   20  C10 UNL     1      30.083  -0.154  53.542  1.00  0.00     0.035 A 
HETATM   21  C11 UNL     1      29.016   0.600  53.364  1.00  0.00     0.049 A 
BRANCH  18  22
HETATM   22  O3  UNL     1      28.189  -3.165  52.924  1.00  0.00    -0.365 OA
HETATM   23  H9  UNL     1      28.323  -3.873  53.617  1.00  0.00     0.217 HD
ENDBRANCH  18  22
BRANCH  21  24
HETATM   24  O4  UNL     1      29.211   1.988  53.502  1.00  0.00    -0.365 OA
HETATM   25  H12 UNL     1      28.452   2.602  53.829  1.00  0.00     0.217 HD
ENDBRANCH  21  24
ENDBRANCH  15  16
ENDBRANCH   1  15
TORSDOF 8
ENDMDL
MODEL 6
REMARK VINA RESULT:      -7.4      1.394      1.971
REMARK  8 active torsions:
REMARK  status: ('A' for Active; 'I' for Inactive)
REMARK    1  A    between atoms: C1_2  and  O2_3 
REMARK    2  A    between atoms: C1_2  and  C2_4 
REMARK    3  A    between atoms: C4_6  and  N1_7 
REMARK    4  A    between atoms: N1_7  and  C5_8 
REMARK    5  A    between atoms: C5_8  and  C6_9 
REMARK    6  A    between atoms: C8_11  and  O3_12 
REMARK    7  A    between atoms: C11_15  and  O4_16 
REMARK    8  A    between atoms: C14_19  and  O5_20 
ROOT
HETATM    1  N1  UNL     1      26.092   2.468  53.379  1.00  0.00    -0.389 N 
HETATM    2  H3  UNL     1      26.663   3.320  53.265  1.00  0.00     0.159 HD
ENDROOT
BRANCH   1   3
HETATM    3  C4  UNL     1      24.725   2.508  52.978  1.00  0.00     0.029 A 
HETATM    4  C3  UNL     1      23.968   1.341  52.878  1.00  0.00     0.050 A 
HETATM    5  C2  UNL     1      22.655   1.418  52.489  1.00  0.00     0.072 A 
HETATM    6  C14 UNL     1      22.041   2.619  52.188  1.00  0.00     0.082 A 
HETATM    7  C13 UNL     1      22.772   3.780  52.281  1.00  0.00     0.040 A 
HETATM    8  C12 UNL     1      24.086   3.689  52.671  1.00  0.00     0.032 A 
BRANCH   5   9
HETATM    9  C1  UNL     1      21.931   0.155  52.408  1.00  0.00     0.179 C 
HETATM   10  O1  UNL     1      20.901  -0.083  51.711  1.00  0.00    -0.646 OA
BRANCH   9  11
HETATM   11  O2  UNL     1      22.252  -0.995  53.081  1.00  0.00    -0.773 OA
HETATM   12  H1  UNL     1      21.627  -1.693  53.428  1.00  0.00     0.167 HD
ENDBRANCH   9  11
ENDBRANCH   5   9
BRANCH   6  13
HETATM   13  O5  UNL     1      20.702   2.636  51.797  1.00  0.00    -0.360 OA
HETATM   14  H15 UNL     1      20.055   2.068  52.331  1.00  0.00     0.217 HD
ENDBRANCH   6  13
ENDBRANCH   1   3
BRANCH   1  15
HETATM   15  C5  UNL     1      26.608   1.250  53.918  1.00  0.00     0.131 C 
BRANCH  15  16
HETATM   16  C6  UNL     1      27.569   0.522  53.015  1.00  0.00     0.066 A 
HETATM   17  C7  UNL     1      27.201  -0.900  52.782  1.00  0.00     0.077 A 
HETATM   18  C8  UNL     1      28.371  -1.763  53.052  1.00  0.00     0.044 A 
HETATM   19  C9  UNL     1      29.621  -1.591  53.437  1.00  0.00     0.034 A 
HETATM   20  C10 UNL     1      29.969  -0.197  53.662  1.00  0.00     0.035 A 
HETATM   21  C11 UNL     1      28.960   0.622  53.437  1.00  0.00     0.049 A 
BRANCH  18  22
HETATM   22  O3  UNL     1      27.964  -3.076  52.816  1.00  0.00    -0.365 OA
HETATM   23  H9  UNL     1      28.010  -3.811  53.493  1.00  0.00     0.217 HD
ENDBRANCH  18  22
BRANCH  21  24
HETATM   24  O4  UNL     1      29.219   1.991  53.634  1.00  0.00    -0.365 OA
HETATM   25  H12 UNL     1      29.952   2.478  53.098  1.00  0.00     0.217 HD
ENDBRANCH  21  24
ENDBRANCH  15  16
ENDBRANCH   1  15
TORSDOF 8
ENDMDL
MODEL 7
REMARK VINA RESULT:      -7.3      1.900      3.474
REMARK  8 active torsions:
REMARK  status: ('A' for Active; 'I' for Inactive)
REMARK    1  A    between atoms: C1_2  and  O2_3 
REMARK    2  A    between atoms: C1_2  and  C2_4 
REMARK    3  A    between atoms: C4_6  and  N1_7 
REMARK    4  A    between atoms: N1_7  and  C5_8 
REMARK    5  A    between atoms: C5_8  and  C6_9 
REMARK    6  A    between atoms: C8_11  and  O3_12 
REMARK    7  A    between atoms: C11_15  and  O4_16 
REMARK    8  A    between atoms: C14_19  and  O5_20 
ROOT
HETATM    1  N1  UNL     1      24.215   0.857  52.301  1.00  0.00    -0.389 N 
HETATM    2  H3  UNL     1      24.148   1.693  51.700  1.00  0.00     0.159 HD
ENDROOT
BRANCH   1   3
HETATM    3  C4  UNL     1      23.010   0.268  52.782  1.00  0.00     0.029 A 
HETATM    4  C3  UNL     1      21.775   0.587  52.216  1.00  0.00     0.050 A 
HETATM    5  C2  UNL     1      20.636   0.000  52.705  1.00  0.00     0.072 A 
HETATM    6  C14 UNL     1      20.658  -0.906  53.749  1.00  0.00     0.082 A 
HETATM    7  C13 UNL     1      21.867  -1.232  54.320  1.00  0.00     0.040 A 
HETATM    8  C12 UNL     1      23.000  -0.637  53.821  1.00  0.00     0.032 A 
BRANCH   5   9
HETATM    9  C1  UNL     1      19.385   0.385  52.061  1.00  0.00     0.179 C 
HETATM   10  O1  UNL     1      18.987   1.565  51.829  1.00  0.00    -0.646 OA
BRANCH   9  11
HETATM   11  O2  UNL     1      18.427  -0.477  51.597  1.00  0.00    -0.773 OA
HETATM   12  H1  UNL     1      17.827  -1.068  52.135  1.00  0.00     0.167 HD
ENDBRANCH   9  11
ENDBRANCH   5   9
BRANCH   6  13
HETATM   13  O5  UNL     1      19.467  -1.470  54.205  1.00  0.00    -0.360 OA
HETATM   14  H15 UNL     1      18.703  -0.838  54.409  1.00  0.00     0.217 HD
ENDBRANCH   6  13
ENDBRANCH   1   3
BRANCH   1  15
HETATM   15  C5  UNL     1      25.459   0.262  52.672  1.00  0.00     0.131 C 
BRANCH  15  16
HETATM   16  C6  UNL     1      26.257   1.054  53.675  1.00  0.00     0.066 A 
HETATM   17  C7  UNL     1      27.053   2.152  53.066  1.00  0.00     0.077 A 
HETATM   18  C8  UNL     1      28.455   2.060  53.527  1.00  0.00     0.044 A 
HETATM   19  C9  UNL     1      29.154   1.270  54.319  1.00  0.00     0.034 A 
HETATM   20  C10 UNL     1      28.365   0.199  54.909  1.00  0.00     0.035 A 
HETATM   21  C11 UNL     1      27.102   0.231  54.532  1.00  0.00     0.049 A 
BRANCH  18  22
HETATM   22  O3  UNL     1      29.146   3.111  52.924  1.00  0.00    -0.365 OA
HETATM   23  H9  UNL     1      29.306   4.000  53.352  1.00  0.00     0.217 HD
ENDBRANCH  18  22
BRANCH  21  24
HETATM   24  O4  UNL     1      26.273  -0.776  55.061  1.00  0.00    -0.365 OA
HETATM   25  H12 UNL     1      25.384  -0.544  55.526  1.00  0.00     0.217 HD
ENDBRANCH  21  24
ENDBRANCH  15  16
ENDBRANCH   1  15
TORSDOF 8
ENDMDL
MODEL 8
REMARK VINA RESULT:      -7.3      2.603      3.967
REMARK  8 active torsions:
REMARK  status: ('A' for Active; 'I' for Inactive)
REMARK    1  A    between atoms: C1_2  and  O2_3 
REMARK    2  A    between atoms: C1_2  and  C2_4 
REMARK    3  A    between atoms: C4_6  and  N1_7 
REMARK    4  A    between atoms: N1_7  and  C5_8 
REMARK    5  A    between atoms: C5_8  and  C6_9 
REMARK    6  A    between atoms: C8_11  and  O3_12 
REMARK    7  A    between atoms: C11_15  and  O4_16 
REMARK    8  A    between atoms: C14_19  and  O5_20 
ROOT
HETATM    1  N1  UNL     1      25.826   0.832  52.117  1.00  0.00    -0.389 N 
HETATM    2  H3  UNL     1      26.591   1.327  51.634  1.00  0.00     0.159 HD
ENDROOT
BRANCH   1   3
HETATM    3  C4  UNL     1      24.554   1.468  52.205  1.00  0.00     0.029 A 
HETATM    4  C3  UNL     1      24.444   2.858  52.244  1.00  0.00     0.050 A 
HETATM    5  C2  UNL     1      23.203   3.436  52.329  1.00  0.00     0.072 A 
HETATM    6  C14 UNL     1      22.040   2.690  52.377  1.00  0.00     0.082 A 
HETATM    7  C13 UNL     1      22.129   1.318  52.340  1.00  0.00     0.040 A 
HETATM    8  C12 UNL     1      23.378   0.752  52.256  1.00  0.00     0.032 A 
BRANCH   5   9
HETATM    9  C1  UNL     1      23.172   4.893  52.365  1.00  0.00     0.179 C 
HETATM   10  O1  UNL     1      22.468   5.652  51.635  1.00  0.00    -0.646 OA
BRANCH   9  11
HETATM   11  O2  UNL     1      23.907   5.688  53.205  1.00  0.00    -0.773 OA
HETATM   12  H1  UNL     1      24.497   5.398  53.957  1.00  0.00     0.167 HD
ENDBRANCH   9  11
ENDBRANCH   5   9
BRANCH   6  13
HETATM   13  O5  UNL     1      20.806   3.333  52.464  1.00  0.00    -0.360 OA
HETATM   14  H15 UNL     1      20.009   2.774  52.743  1.00  0.00     0.217 HD
ENDBRANCH   6  13
ENDBRANCH   1   3
BRANCH   1  15
HETATM   15  C5  UNL     1      25.982  -0.461  52.702  1.00  0.00     0.131 C 
BRANCH  15  16
HETATM   16  C6  UNL     1      27.079  -0.556  53.730  1.00  0.00     0.066 A 
HETATM   17  C7  UNL     1      27.599   0.767  54.166  1.00  0.00     0.077 A 
HETATM   18  C8  UNL     1      29.074   0.776  54.061  1.00  0.00     0.044 A 
HETATM   19  C9  UNL     1      30.015  -0.071  53.687  1.00  0.00     0.034 A 
HETATM   20  C10 UNL     1      29.494  -1.361  53.263  1.00  0.00     0.035 A 
HETATM   21  C11 UNL     1      28.179  -1.427  53.335  1.00  0.00     0.049 A 
BRANCH  18  22
HETATM   22  O3  UNL     1      29.499   2.037  54.482  1.00  0.00    -0.365 OA
HETATM   23  H9  UNL     1      29.041   2.580  55.185  1.00  0.00     0.217 HD
ENDBRANCH  18  22
BRANCH  21  24
HETATM   24  O4  UNL     1      27.599  -2.647  52.939  1.00  0.00    -0.365 OA
HETATM   25  H12 UNL     1      27.457  -2.872  51.944  1.00  0.00     0.217 HD
ENDBRANCH  21  24
ENDBRANCH  15  16
ENDBRANCH   1  15
TORSDOF 8
ENDMDL
MODEL 9
REMARK VINA RESULT:      -7.3      3.867      6.767
REMARK  8 active torsions:
REMARK  status: ('A' for Active; 'I' for Inactive)
REMARK    1  A    between atoms: C1_2  and  O2_3 
REMARK    2  A    between atoms: C1_2  and  C2_4 
REMARK    3  A    between atoms: C4_6  and  N1_7 
REMARK    4  A    between atoms: N1_7  and  C5_8 
REMARK    5  A    between atoms: C5_8  and  C6_9 
REMARK    6  A    between atoms: C8_11  and  O3_12 
REMARK    7  A    between atoms: C11_15  and  O4_16 
REMARK    8  A    between atoms: C14_19  and  O5_20 
ROOT
HETATM    1  N1  UNL     1      25.527   3.284  51.812  1.00  0.00    -0.389 N 
HETATM    2  H3  UNL     1      25.766   4.153  52.314  1.00  0.00     0.159 HD
ENDROOT
BRANCH   1   3
HETATM    3  C4  UNL     1      26.118   2.063  52.250  1.00  0.00     0.029 A 
HETATM    4  C3  UNL     1      27.412   2.034  52.770  1.00  0.00     0.050 A 
HETATM    5  C2  UNL     1      27.949   0.841  53.181  1.00  0.00     0.072 A 
HETATM    6  C14 UNL     1      27.253  -0.351  53.103  1.00  0.00     0.082 A 
HETATM    7  C13 UNL     1      25.976  -0.342  52.592  1.00  0.00     0.040 A 
HETATM    8  C12 UNL     1      25.450   0.860  52.183  1.00  0.00     0.032 A 
BRANCH   5   9
HETATM    9  C1  UNL     1      29.306   0.893  53.712  1.00  0.00     0.179 C 
HETATM   10  O1  UNL     1      30.196  -0.000  53.599  1.00  0.00    -0.646 OA
BRANCH   9  11
HETATM   11  O2  UNL     1      29.844   1.930  54.428  1.00  0.00    -0.773 OA
HETATM   12  H1  UNL     1      30.361   2.710  54.077  1.00  0.00     0.167 HD
ENDBRANCH   9  11
ENDBRANCH   5   9
BRANCH   6  13
HETATM   13  O5  UNL     1      27.851  -1.534  53.536  1.00  0.00    -0.360 OA
HETATM   14  H15 UNL     1      28.082  -1.605  54.519  1.00  0.00     0.217 HD
ENDBRANCH   6  13
ENDBRANCH   1   3
BRANCH   1  15
HETATM   15  C5  UNL     1      24.633   3.247  50.700  1.00  0.00     0.131 C 
BRANCH  15  16
HETATM   16  C6  UNL     1      25.213   3.766  49.411  1.00  0.00     0.066 A 
HETATM   17  C7  UNL     1      26.700   3.781  49.394  1.00  0.00     0.077 A 
HETATM   18  C8  UNL     1      27.176   5.117  48.976  1.00  0.00     0.044 A 
HETATM   19  C9  UNL     1      26.627   6.265  48.627  1.00  0.00     0.034 A 
HETATM   20  C10 UNL     1      25.172   6.239  48.648  1.00  0.00     0.035 A 
HETATM   21  C11 UNL     1      24.690   5.068  49.015  1.00  0.00     0.049 A 
BRANCH  18  22
HETATM   22  O3  UNL     1      28.570   5.066  48.980  1.00  0.00    -0.365 OA
HETATM   23  H9  UNL     1      29.162   5.830  49.236  1.00  0.00     0.217 HD
ENDBRANCH  18  22
BRANCH  21  24
HETATM   24  O4  UNL     1      23.287   4.964  49.060  1.00  0.00    -0.365 OA
HETATM   25  H12 UNL     1      22.800   4.148  48.663  1.00  0.00     0.217 HD
ENDBRANCH  21  24
ENDBRANCH  15  16
ENDBRANCH   1  15
TORSDOF 8
ENDMDL
