MODEL 1
REMARK VINA RESULT:      -8.3      0.000      0.000
REMARK  5 active torsions:
REMARK  status: ('A' for Active; 'I' for Inactive)
REMARK    1  A    between atoms: C3_3  and  S1_4 
REMARK    2  A    between atoms: S1_4  and  N1_6 
REMARK    3  A    between atoms: N1_6  and  C4_7 
REMARK    4  A    between atoms: C4_7  and  C5_8 
REMARK    5  A    between atoms: C5_8  and  C6_9 
ROOT
HETATM    1  N1  UNL     1      25.388   2.917  53.167  1.00  0.00    -0.238 NA
HETATM    2  H4  UNL     1      25.693   3.902  53.151  1.00  0.00     0.137 HD
ENDROOT
BRANCH   1   3
HETATM    3  S1  UNL     1      26.331   1.987  52.041  1.00  0.00     0.125 S 
HETATM    4  O1  UNL     1      27.045   2.917  51.106  1.00  0.00    -0.236 OA
BRANCH   3   5
HETATM    5  C3  UNL     1      27.369   0.801  52.757  1.00  0.00     0.052 C 
HETATM    6  C2  UNL     1      28.470   1.032  53.449  1.00  0.00    -0.042 C 
HETATM    7  C1  UNL     1      28.763   2.486  53.572  1.00  0.00     0.049 C 
HETATM    8  C16 UNL     1      29.408   0.118  54.089  1.00  0.00     0.004 C 
HETATM    9  C15 UNL     1      29.494  -1.177  53.849  1.00  0.00    -0.022 C 
HETATM   10  C14 UNL     1      28.833  -2.185  52.992  1.00  0.00     0.054 C 
HETATM   11  C13 UNL     1      27.468  -1.749  52.604  1.00  0.00    -0.021 C 
HETATM   12  C12 UNL     1      26.868  -0.550  52.505  1.00  0.00     0.019 C 
ENDBRANCH   3   5
ENDBRANCH   1   3
BRANCH   1  13
HETATM   13  C4  UNL     1      23.995   2.844  52.757  1.00  0.00     0.106 C 
BRANCH  13  14
HETATM   14  C5  UNL     1      23.721   1.693  51.813  1.00  0.00     0.054 C 
BRANCH  14  15
HETATM   15  C6  UNL     1      22.849   0.734  52.550  1.00  0.00    -0.057 A 
HETATM   16  C7  UNL     1      23.361  -0.104  53.532  1.00  0.00     0.010 A 
HETATM   17  C8  UNL     1      22.641  -1.009  54.255  1.00  0.00     0.043 A 
HETATM   18  C9  UNL     1      21.292  -1.101  53.988  1.00  0.00     0.116 A 
HETATM   19  F1  UNL     1      20.567  -1.992  54.696  1.00  0.00    -0.206 F 
HETATM   20  C10 UNL     1      20.719  -0.285  53.012  1.00  0.00     0.043 A 
HETATM   21  C11 UNL     1      21.494   0.612  52.311  1.00  0.00     0.010 A 
ENDBRANCH  14  15
ENDBRANCH  13  14
ENDBRANCH   1  13
TORSDOF 5
ENDMDL
MODEL 2
REMARK VINA RESULT:      -8.1      2.348      6.089
REMARK  5 active torsions:
REMARK  status: ('A' for Active; 'I' for Inactive)
REMARK    1  A    between atoms: C3_3  and  S1_4 
REMARK    2  A    between atoms: S1_4  and  N1_6 
REMARK    3  A    between atoms: N1_6  and  C4_7 
REMARK    4  A    between atoms: C4_7  and  C5_8 
REMARK    5  A    between atoms: C5_8  and  C6_9 
ROOT
HETATM    1  N1  UNL     1      25.302   2.869  53.162  1.00  0.00    -0.238 NA
HETATM    2  H4  UNL     1      25.295   2.374  54.067  1.00  0.00     0.137 HD
ENDROOT
BRANCH   1   3
HETATM    3  S1  UNL     1      23.793   2.622  52.339  1.00  0.00     0.125 S 
HETATM    4  O1  UNL     1      24.039   2.555  50.861  1.00  0.00    -0.236 OA
BRANCH   3   5
HETATM    5  C3  UNL     1      22.838   1.307  52.936  1.00  0.00     0.052 C 
HETATM    6  C2  UNL     1      21.519   1.245  52.979  1.00  0.00    -0.042 C 
HETATM    7  C1  UNL     1      20.881   2.476  52.437  1.00  0.00     0.049 C 
HETATM    8  C16 UNL     1      20.624   0.199  53.456  1.00  0.00     0.004 C 
HETATM    9  C15 UNL     1      20.978  -0.812  54.228  1.00  0.00    -0.022 C 
HETATM   10  C14 UNL     1      22.201  -1.323  54.883  1.00  0.00     0.054 C 
HETATM   11  C13 UNL     1      23.423  -0.842  54.191  1.00  0.00    -0.021 C 
HETATM   12  C12 UNL     1      23.691   0.216  53.406  1.00  0.00     0.019 C 
ENDBRANCH   3   5
ENDBRANCH   1   3
BRANCH   1  13
HETATM   13  C4  UNL     1      26.364   2.325  52.331  1.00  0.00     0.106 C 
BRANCH  13  14
HETATM   14  C5  UNL     1      27.703   2.292  53.038  1.00  0.00     0.054 C 
BRANCH  14  15
HETATM   15  C6  UNL     1      28.099   0.858  53.138  1.00  0.00    -0.057 A 
HETATM   16  C7  UNL     1      29.352   0.482  53.606  1.00  0.00     0.010 A 
HETATM   17  C8  UNL     1      29.798  -0.801  53.731  1.00  0.00     0.043 A 
HETATM   18  C9  UNL     1      28.933  -1.809  53.360  1.00  0.00     0.116 A 
HETATM   19  F1  UNL     1      29.362  -3.083  53.479  1.00  0.00    -0.206 F 
HETATM   20  C10 UNL     1      27.661  -1.494  52.883  1.00  0.00     0.043 A 
HETATM   21  C11 UNL     1      27.262  -0.181  52.777  1.00  0.00     0.010 A 
ENDBRANCH  14  15
ENDBRANCH  13  14
ENDBRANCH   1  13
TORSDOF 5
ENDMDL
MODEL 3
REMARK VINA RESULT:      -7.6      3.109      5.363
REMARK  5 active torsions:
REMARK  status: ('A' for Active; 'I' for Inactive)
REMARK    1  A    between atoms: C3_3  and  S1_4 
REMARK    2  A    between atoms: S1_4  and  N1_6 
REMARK    3  A    between atoms: N1_6  and  C4_7 
REMARK    4  A    between atoms: C4_7  and  C5_8 
REMARK    5  A    between atoms: C5_8  and  C6_9 
ROOT
HETATM    1  N1  UNL     1      27.395   3.005  51.588  1.00  0.00    -0.238 NA
HETATM    2  H4  UNL     1      28.400   2.998  51.355  1.00  0.00     0.137 HD
ENDROOT
BRANCH   1   3
HETATM    3  S1  UNL     1      27.079   1.893  52.884  1.00  0.00     0.125 S 
HETATM    4  O1  UNL     1      27.648   2.441  54.159  1.00  0.00    -0.236 OA
BRANCH   3   5
HETATM    5  C3  UNL     1      25.430   1.386  53.031  1.00  0.00     0.052 C 
HETATM    6  C2  UNL     1      24.990   0.144  53.107  1.00  0.00    -0.042 C 
HETATM    7  C1  UNL     1      26.097  -0.849  53.053  1.00  0.00     0.049 C 
HETATM    8  C16 UNL     1      23.639  -0.388  53.232  1.00  0.00     0.004 C 
HETATM    9  C15 UNL     1      22.529   0.288  52.999  1.00  0.00    -0.022 C 
HETATM   10  C14 UNL     1      22.137   1.650  52.579  1.00  0.00     0.054 C 
HETATM   11  C13 UNL     1      23.204   2.636  52.887  1.00  0.00    -0.021 C 
HETATM   12  C12 UNL     1      24.532   2.541  53.070  1.00  0.00     0.019 C 
ENDBRANCH   3   5
ENDBRANCH   1   3
BRANCH   1  13
HETATM   13  C4  UNL     1      26.635   2.572  50.426  1.00  0.00     0.106 C 
BRANCH  13  14
HETATM   14  C5  UNL     1      26.332   3.705  49.468  1.00  0.00     0.054 C 
BRANCH  14  15
HETATM   15  C6  UNL     1      24.888   4.037  49.643  1.00  0.00    -0.057 A 
HETATM   16  C7  UNL     1      23.889   3.200  49.165  1.00  0.00     0.010 A 
HETATM   17  C8  UNL     1      22.548   3.423  49.280  1.00  0.00     0.043 A 
HETATM   18  C9  UNL     1      22.152   4.576  49.923  1.00  0.00     0.116 A 
HETATM   19  F1  UNL     1      20.828   4.809  50.043  1.00  0.00    -0.206 F 
HETATM   20  C10 UNL     1      23.111   5.456  50.425  1.00  0.00     0.043 A 
HETATM   21  C11 UNL     1      24.452   5.182  50.282  1.00  0.00     0.010 A 
ENDBRANCH  14  15
ENDBRANCH  13  14
ENDBRANCH   1  13
TORSDOF 5
ENDMDL
MODEL 4
REMARK VINA RESULT:      -7.5      4.047      6.575
REMARK  5 active torsions:
REMARK  status: ('A' for Active; 'I' for Inactive)
REMARK    1  A    between atoms: C3_3  and  S1_4 
REMARK    2  A    between atoms: S1_4  and  N1_6 
REMARK    3  A    between atoms: N1_6  and  C4_7 
REMARK    4  A    between atoms: C4_7  and  C5_8 
REMARK    5  A    between atoms: C5_8  and  C6_9 
ROOT
HETATM    1  N1  UNL     1      24.454   3.590  52.951  1.00  0.00    -0.238 NA
HETATM    2  H4  UNL     1      23.508   3.586  53.365  1.00  0.00     0.137 HD
ENDROOT
BRANCH   1   3
HETATM    3  S1  UNL     1      24.344   3.468  51.221  1.00  0.00     0.125 S 
HETATM    4  O1  UNL     1      22.907   3.303  50.826  1.00  0.00    -0.236 OA
BRANCH   3   5
HETATM    5  C3  UNL     1      25.158   4.719  50.344  1.00  0.00     0.052 C 
HETATM    6  C2  UNL     1      26.174   4.567  49.514  1.00  0.00    -0.042 C 
HETATM    7  C1  UNL     1      26.588   3.143  49.386  1.00  0.00     0.049 C 
HETATM    8  C16 UNL     1      26.926   5.541  48.733  1.00  0.00     0.004 C 
HETATM    9  C15 UNL     1      26.917   6.846  48.929  1.00  0.00    -0.022 C 
HETATM   10  C14 UNL     1      26.281   7.818  49.844  1.00  0.00     0.054 C 
HETATM   11  C13 UNL     1      25.028   7.271  50.424  1.00  0.00    -0.021 C 
HETATM   12  C12 UNL     1      24.566   6.025  50.630  1.00  0.00     0.019 C 
ENDBRANCH   3   5
ENDBRANCH   1   3
BRANCH   1  13
HETATM   13  C4  UNL     1      25.191   2.436  53.439  1.00  0.00     0.106 C 
BRANCH  13  14
HETATM   14  C5  UNL     1      25.519   1.443  52.343  1.00  0.00     0.054 C 
BRANCH  14  15
HETATM   15  C6  UNL     1      26.779   0.758  52.751  1.00  0.00    -0.057 A 
HETATM   16  C7  UNL     1      27.877   1.473  53.212  1.00  0.00     0.010 A 
HETATM   17  C8  UNL     1      29.065   0.931  53.606  1.00  0.00     0.043 A 
HETATM   18  C9  UNL     1      29.187  -0.440  53.539  1.00  0.00     0.116 A 
HETATM   19  F1  UNL     1      30.358  -0.989  53.926  1.00  0.00    -0.206 F 
HETATM   20  C10 UNL     1      28.118  -1.212  53.085  1.00  0.00     0.043 A 
HETATM   21  C11 UNL     1      26.940  -0.614  52.700  1.00  0.00     0.010 A 
ENDBRANCH  14  15
ENDBRANCH  13  14
ENDBRANCH   1  13
TORSDOF 5
ENDMDL
MODEL 5
REMARK VINA RESULT:      -7.5      2.841      6.260
REMARK  5 active torsions:
REMARK  status: ('A' for Active; 'I' for Inactive)
REMARK    1  A    between atoms: C3_3  and  S1_4 
REMARK    2  A    between atoms: S1_4  and  N1_6 
REMARK    3  A    between atoms: N1_6  and  C4_7 
REMARK    4  A    between atoms: C4_7  and  C5_8 
REMARK    5  A    between atoms: C5_8  and  C6_9 
ROOT
HETATM    1  N1  UNL     1      25.857   3.606  51.185  1.00  0.00    -0.238 NA
HETATM    2  H4  UNL     1      26.374   4.390  51.612  1.00  0.00     0.137 HD
ENDROOT
BRANCH   1   3
HETATM    3  S1  UNL     1      24.295   3.449  51.928  1.00  0.00     0.125 S 
HETATM    4  O1  UNL     1      23.803   4.805  52.338  1.00  0.00    -0.236 OA
BRANCH   3   5
HETATM    5  C3  UNL     1      23.135   2.544  51.015  1.00  0.00     0.052 C 
HETATM    6  C2  UNL     1      22.534   1.430  51.387  1.00  0.00    -0.042 C 
HETATM    7  C1  UNL     1      22.961   0.986  52.742  1.00  0.00     0.049 C 
HETATM    8  C16 UNL     1      21.553   0.596  50.704  1.00  0.00     0.004 C 
HETATM    9  C15 UNL     1      21.277   0.646  49.414  1.00  0.00    -0.022 C 
HETATM   10  C14 UNL     1      21.713   1.405  48.223  1.00  0.00     0.054 C 
HETATM   11  C13 UNL     1      22.300   2.715  48.604  1.00  0.00    -0.021 C 
HETATM   12  C12 UNL     1      22.875   3.184  49.725  1.00  0.00     0.019 C 
ENDBRANCH   3   5
ENDBRANCH   1   3
BRANCH   1  13
HETATM   13  C4  UNL     1      26.592   2.372  51.414  1.00  0.00     0.106 C 
BRANCH  13  14
HETATM   14  C5  UNL     1      26.718   2.030  52.884  1.00  0.00     0.054 C 
BRANCH  14  15
HETATM   15  C6  UNL     1      27.281   0.650  52.954  1.00  0.00    -0.057 A 
HETATM   16  C7  UNL     1      28.573   0.416  53.406  1.00  0.00     0.010 A 
HETATM   17  C8  UNL     1      29.167  -0.808  53.504  1.00  0.00     0.043 A 
HETATM   18  C9  UNL     1      28.424  -1.903  53.121  1.00  0.00     0.116 A 
HETATM   19  F1  UNL     1      29.000  -3.120  53.213  1.00  0.00    -0.206 F 
HETATM   20  C10 UNL     1      27.119  -1.731  52.659  1.00  0.00     0.043 A 
HETATM   21  C11 UNL     1      26.568  -0.473  52.580  1.00  0.00     0.010 A 
ENDBRANCH  14  15
ENDBRANCH  13  14
ENDBRANCH   1  13
TORSDOF 5
ENDMDL
MODEL 6
REMARK VINA RESULT:      -7.3      2.461      5.119
REMARK  5 active torsions:
REMARK  status: ('A' for Active; 'I' for Inactive)
REMARK    1  A    between atoms: C3_3  and  S1_4 
REMARK    2  A    between atoms: S1_4  and  N1_6 
REMARK    3  A    between atoms: N1_6  and  C4_7 
REMARK    4  A    between atoms: C4_7  and  C5_8 
REMARK    5  A    between atoms: C5_8  and  C6_9 
ROOT
HETATM    1  N1  UNL     1      26.727   3.327  50.815  1.00  0.00    -0.238 NA
HETATM    2  H4  UNL     1      27.568   3.884  51.032  1.00  0.00     0.137 HD
ENDROOT
BRANCH   1   3
HETATM    3  S1  UNL     1      25.389   4.382  50.475  1.00  0.00     0.125 S 
HETATM    4  O1  UNL     1      25.593   5.025  49.136  1.00  0.00    -0.236 OA
BRANCH   3   5
HETATM    5  C3  UNL     1      23.824   3.665  50.661  1.00  0.00     0.052 C 
HETATM    6  C2  UNL     1      23.011   3.802  51.693  1.00  0.00    -0.042 C 
HETATM    7  C1  UNL     1      23.587   4.679  52.749  1.00  0.00     0.049 C 
HETATM    8  C16 UNL     1      21.688   3.250  51.950  1.00  0.00     0.004 C 
HETATM    9  C15 UNL     1      21.144   2.239  51.297  1.00  0.00    -0.022 C 
HETATM   10  C14 UNL     1      21.501   1.320  50.196  1.00  0.00     0.054 C 
HETATM   11  C13 UNL     1      22.538   1.912  49.315  1.00  0.00    -0.021 C 
HETATM   12  C12 UNL     1      23.479   2.856  49.492  1.00  0.00     0.019 C 
ENDBRANCH   3   5
ENDBRANCH   1   3
BRANCH   1  13
HETATM   13  C4  UNL     1      26.381   2.517  51.972  1.00  0.00     0.106 C 
BRANCH  13  14
HETATM   14  C5  UNL     1      26.368   1.034  51.667  1.00  0.00     0.054 C 
BRANCH  14  15
HETATM   15  C6  UNL     1      25.481   0.398  52.683  1.00  0.00    -0.057 A 
HETATM   16  C7  UNL     1      24.097   0.443  52.567  1.00  0.00     0.010 A 
HETATM   17  C8  UNL     1      23.211  -0.110  53.445  1.00  0.00     0.043 A 
HETATM   18  C9  UNL     1      23.733  -0.767  54.539  1.00  0.00     0.116 A 
HETATM   19  F1  UNL     1      22.867  -1.319  55.415  1.00  0.00    -0.206 F 
HETATM   20  C10 UNL     1      25.115  -0.847  54.709  1.00  0.00     0.043 A 
HETATM   21  C11 UNL     1      25.964  -0.271  53.791  1.00  0.00     0.010 A 
ENDBRANCH  14  15
ENDBRANCH  13  14
ENDBRANCH   1  13
TORSDOF 5
ENDMDL
MODEL 7
REMARK VINA RESULT:      -7.3      4.428      6.332
REMARK  5 active torsions:
REMARK  status: ('A' for Active; 'I' for Inactive)
REMARK    1  A    between atoms: C3_3  and  S1_4 
REMARK    2  A    between atoms: S1_4  and  N1_6 
REMARK    3  A    between atoms: N1_6  and  C4_7 
REMARK    4  A    between atoms: C4_7  and  C5_8 
REMARK    5  A    between atoms: C5_8  and  C6_9 
ROOT
HETATM    1  N1  UNL     1      24.029   4.566  51.646  1.00  0.00    -0.238 NA
HETATM    2  H4  UNL     1      23.176   5.047  51.973  1.00  0.00     0.137 HD
ENDROOT
BRANCH   1   3
HETATM    3  S1  UNL     1      24.064   4.540  49.909  1.00  0.00     0.125 S 
HETATM    4  O1  UNL     1      22.841   5.225  49.377  1.00  0.00    -0.236 OA
BRANCH   3   5
HETATM    5  C3  UNL     1      25.535   5.110  49.196  1.00  0.00     0.052 C 
HETATM    6  C2  UNL     1      26.682   4.458  49.125  1.00  0.00    -0.042 C 
HETATM    7  C1  UNL     1      26.601   3.108  49.746  1.00  0.00     0.049 C 
HETATM    8  C16 UNL     1      27.967   4.840  48.553  1.00  0.00     0.004 C 
HETATM    9  C15 UNL     1      28.323   6.071  48.235  1.00  0.00    -0.022 C 
HETATM   10  C14 UNL     1      27.744   7.431  48.275  1.00  0.00     0.054 C 
HETATM   11  C13 UNL     1      26.261   7.384  48.279  1.00  0.00    -0.021 C 
HETATM   12  C12 UNL     1      25.361   6.455  48.648  1.00  0.00     0.019 C 
ENDBRANCH   3   5
ENDBRANCH   1   3
BRANCH   1  13
HETATM   13  C4  UNL     1      24.009   3.191  52.118  1.00  0.00     0.106 C 
BRANCH  13  14
HETATM   14  C5  UNL     1      24.682   3.024  53.464  1.00  0.00     0.054 C 
BRANCH  14  15
HETATM   15  C6  UNL     1      25.723   1.970  53.293  1.00  0.00    -0.057 A 
HETATM   16  C7  UNL     1      25.437   0.763  52.667  1.00  0.00     0.010 A 
HETATM   17  C8  UNL     1      26.323  -0.255  52.468  1.00  0.00     0.043 A 
HETATM   18  C9  UNL     1      27.610  -0.070  52.926  1.00  0.00     0.116 A 
HETATM   19  F1  UNL     1      28.497  -1.069  52.734  1.00  0.00    -0.206 F 
HETATM   20  C10 UNL     1      27.958   1.121  53.562  1.00  0.00     0.043 A 
HETATM   21  C11 UNL     1      27.023   2.116  53.737  1.00  0.00     0.010 A 
ENDBRANCH  14  15
ENDBRANCH  13  14
ENDBRANCH   1  13
TORSDOF 5
ENDMDL
MODEL 8
REMARK VINA RESULT:      -7.2      4.924      6.455
REMARK  5 active torsions:
REMARK  status: ('A' for Active; 'I' for Inactive)
REMARK    1  A    between atoms: C3_3  and  S1_4 
REMARK    2  A    between atoms: S1_4  and  N1_6 
REMARK    3  A    between atoms: N1_6  and  C4_7 
REMARK    4  A    between atoms: C4_7  and  C5_8 
REMARK    5  A    between atoms: C5_8  and  C6_9 
ROOT
HETATM    1  N1  UNL     1      26.245   2.221  50.818  1.00  0.00    -0.238 NA
HETATM    2  H4  UNL     1      25.601   1.649  50.251  1.00  0.00     0.137 HD
ENDROOT
BRANCH   1   3
HETATM    3  S1  UNL     1      26.135   1.757  52.489  1.00  0.00     0.125 S 
HETATM    4  O1  UNL     1      24.730   1.330  52.793  1.00  0.00    -0.236 OA
BRANCH   3   5
HETATM    5  C3  UNL     1      27.328   0.618  53.015  1.00  0.00     0.052 C 
HETATM    6  C2  UNL     1      28.511   0.896  53.531  1.00  0.00    -0.042 C 
HETATM    7  C1  UNL     1      28.750   2.362  53.631  1.00  0.00     0.049 C 
HETATM    8  C16 UNL     1      29.580   0.025  54.002  1.00  0.00     0.004 C 
HETATM    9  C15 UNL     1      29.689  -1.262  53.730  1.00  0.00    -0.022 C 
HETATM   10  C14 UNL     1      28.950  -2.294  52.971  1.00  0.00     0.054 C 
HETATM   11  C13 UNL     1      27.522  -1.923  52.807  1.00  0.00    -0.021 C 
HETATM   12  C12 UNL     1      26.859  -0.754  52.822  1.00  0.00     0.019 C 
ENDBRANCH   3   5
ENDBRANCH   1   3
BRANCH   1  13
HETATM   13  C4  UNL     1      25.858   3.619  50.712  1.00  0.00     0.106 C 
BRANCH  13  14
HETATM   14  C5  UNL     1      25.648   4.061  49.279  1.00  0.00     0.054 C 
BRANCH  14  15
HETATM   15  C6  UNL     1      26.394   5.341  49.113  1.00  0.00    -0.057 A 
HETATM   16  C7  UNL     1      25.910   6.535  49.633  1.00  0.00     0.010 A 
HETATM   17  C8  UNL     1      26.523   7.749  49.530  1.00  0.00     0.043 A 
HETATM   18  C9  UNL     1      27.723   7.796  48.852  1.00  0.00     0.116 A 
HETATM   19  F1  UNL     1      28.340   8.991  48.743  1.00  0.00    -0.206 F 
HETATM   20  C10 UNL     1      28.259   6.629  48.308  1.00  0.00     0.043 A 
HETATM   21  C11 UNL     1      27.598   5.429  48.442  1.00  0.00     0.010 A 
ENDBRANCH  14  15
ENDBRANCH  13  14
ENDBRANCH   1  13
TORSDOF 5
ENDMDL
MODEL 9
REMARK VINA RESULT:      -7.2      2.880      3.933
REMARK  5 active torsions:
REMARK  status: ('A' for Active; 'I' for Inactive)
REMARK    1  A    between atoms: C3_3  and  S1_4 
REMARK    2  A    between atoms: S1_4  and  N1_6 
REMARK    3  A    between atoms: N1_6  and  C4_7 
REMARK    4  A    between atoms: C4_7  and  C5_8 
REMARK    5  A    between atoms: C5_8  and  C6_9 
ROOT
HETATM    1  N1  UNL     1      21.261   3.269  51.355  1.00  0.00    -0.238 NA
HETATM    2  H4  UNL     1      20.463   3.691  50.855  1.00  0.00     0.137 HD
ENDROOT
BRANCH   1   3
HETATM    3  S1  UNL     1      22.665   4.279  51.189  1.00  0.00     0.125 S 
HETATM    4  O1  UNL     1      22.469   5.534  51.986  1.00  0.00    -0.236 OA
BRANCH   3   5
HETATM    5  C3  UNL     1      24.175   3.493  51.505  1.00  0.00     0.052 C 
HETATM    6  C2  UNL     1      25.123   3.224  50.627  1.00  0.00    -0.042 C 
HETATM    7  C1  UNL     1      24.765   3.680  49.256  1.00  0.00     0.049 C 
HETATM    8  C16 UNL     1      26.418   2.574  50.783  1.00  0.00     0.004 C 
HETATM    9  C15 UNL     1      26.786   1.849  51.824  1.00  0.00    -0.022 C 
HETATM   10  C14 UNL     1      26.213   1.399  53.110  1.00  0.00     0.054 C 
HETATM   11  C13 UNL     1      25.123   2.302  53.559  1.00  0.00    -0.021 C 
HETATM   12  C12 UNL     1      24.296   3.149  52.922  1.00  0.00     0.019 C 
ENDBRANCH   3   5
ENDBRANCH   1   3
BRANCH   1  13
HETATM   13  C4  UNL     1      21.562   1.976  50.761  1.00  0.00     0.106 C 
BRANCH  13  14
HETATM   14  C5  UNL     1      20.660   0.872  51.271  1.00  0.00     0.054 C 
BRANCH  14  15
HETATM   15  C6  UNL     1      21.340   0.278  52.458  1.00  0.00    -0.057 A 
HETATM   16  C7  UNL     1      20.726   0.245  53.703  1.00  0.00     0.010 A 
HETATM   17  C8  UNL     1      21.271  -0.277  54.840  1.00  0.00     0.043 A 
HETATM   18  C9  UNL     1      22.536  -0.815  54.745  1.00  0.00     0.116 A 
HETATM   19  F1  UNL     1      23.087  -1.335  55.862  1.00  0.00    -0.206 F 
HETATM   20  C10 UNL     1      23.203  -0.811  53.520  1.00  0.00     0.043 A 
HETATM   21  C11 UNL     1      22.606  -0.271  52.403  1.00  0.00     0.010 A 
ENDBRANCH  14  15
ENDBRANCH  13  14
ENDBRANCH   1  13
TORSDOF 5
ENDMDL
