MODEL 1
REMARK VINA RESULT:      -8.7      0.000      0.000
REMARK  7 active torsions:
REMARK  status: ('A' for Active; 'I' for Inactive)
REMARK    1  A    between atoms: N1_2  and  C3_4 
REMARK    2  A    between atoms: C6_7  and  N2_8 
REMARK    3  A    between atoms: N2_8  and  C7_9 
REMARK    4  A    between atoms: C11_15  and  N4_16 
REMARK    5  A    between atoms: N4_16  and  C12_17 
REMARK    6  A    between atoms: C12_17  and  C13_18 
REMARK    7  A    between atoms: C13_18  and  C14_19 
ROOT
HETATM    1  C7  UNL     1      25.090   0.789  53.774  1.00  0.00     0.200 C 
HETATM    2  C8  UNL     1      25.694  -0.347  54.541  1.00  0.00     0.246 C 
HETATM    3  O1  UNL     1      25.684  -0.710  55.770  1.00  0.00    -0.271 OA
HETATM    4  N3  UNL     1      26.474  -1.259  53.733  1.00  0.00    -0.336 N 
HETATM    5  C9  UNL     1      27.208  -0.741  52.598  1.00  0.00     0.089 C 
HETATM    6  C10 UNL     1      27.084   0.581  52.410  1.00  0.00     0.017 C 
HETATM    7  C11 UNL     1      26.292   1.545  53.223  1.00  0.00     0.133 C 
HETATM    8  H11 UNL     1      26.591  -2.290  53.858  1.00  0.00     0.168 HD
ENDROOT
BRANCH   1   9
HETATM    9  N2  UNL     1      24.294   0.266  52.713  1.00  0.00    -0.375 N 
HETATM   10  H9  UNL     1      24.795  -0.024  51.820  1.00  0.00     0.160 HD
BRANCH   9  11
HETATM   11  C6  UNL     1      22.900   0.092  52.721  1.00  0.00     0.028 A 
HETATM   12  C5  UNL     1      22.205  -0.550  53.725  1.00  0.00     0.031 A 
HETATM   13  C4  UNL     1      20.839  -0.739  53.753  1.00  0.00     0.031 A 
HETATM   14  C3  UNL     1      20.088  -0.249  52.692  1.00  0.00     0.029 A 
HETATM   15  C21 UNL     1      20.733   0.392  51.677  1.00  0.00     0.031 A 
HETATM   16  C20 UNL     1      22.098   0.554  51.698  1.00  0.00     0.031 A 
BRANCH  14  17
HETATM   17  N1  UNL     1      18.669  -0.405  52.641  1.00  0.00    -0.390 N 
HETATM   18  C1  UNL     1      17.885   0.460  51.768  1.00  0.00     0.149 C 
HETATM   19  C2  UNL     1      17.973  -1.395  53.427  1.00  0.00     0.149 C 
ENDBRANCH  14  17
ENDBRANCH   9  11
ENDBRANCH   1   9
BRANCH   7  20
HETATM   20  N4  UNL     1      25.889   2.626  52.368  1.00  0.00    -0.411 N 
HETATM   21  H15 UNL     1      25.787   3.527  52.832  1.00  0.00     0.153 HD
BRANCH  20  22
HETATM   22  C12 UNL     1      26.433   2.614  51.055  1.00  0.00     0.119 C 
BRANCH  22  23
HETATM   23  C13 UNL     1      25.510   3.205  50.013  1.00  0.00     0.058 C 
BRANCH  23  24
HETATM   24  C14 UNL     1      26.073   4.423  49.370  1.00  0.00    -0.055 A 
HETATM   25  C15 UNL     1      25.296   5.549  49.116  1.00  0.00     0.007 A 
HETATM   26  C16 UNL     1      25.762   6.701  48.525  1.00  0.00     0.002 A 
HETATM   27  C17 UNL     1      27.113   6.727  48.158  1.00  0.00     0.024 A 
HETATM   28  C18 UNL     1      27.953   5.643  48.377  1.00  0.00     0.034 A 
HETATM   29 CL1  UNL     1      29.618   5.741  47.900  1.00  0.00    -0.084 Cl
HETATM   30  C19 UNL     1      27.389   4.538  48.976  1.00  0.00     0.031 A 
ENDBRANCH  23  24
ENDBRANCH  22  23
ENDBRANCH  20  22
ENDBRANCH   7  20
TORSDOF 7
ENDMDL
MODEL 2
REMARK VINA RESULT:      -8.5      1.020      1.372
REMARK  7 active torsions:
REMARK  status: ('A' for Active; 'I' for Inactive)
REMARK    1  A    between atoms: N1_2  and  C3_4 
REMARK    2  A    between atoms: C6_7  and  N2_8 
REMARK    3  A    between atoms: N2_8  and  C7_9 
REMARK    4  A    between atoms: C11_15  and  N4_16 
REMARK    5  A    between atoms: N4_16  and  C12_17 
REMARK    6  A    between atoms: C12_17  and  C13_18 
REMARK    7  A    between atoms: C13_18  and  C14_19 
ROOT
HETATM    1  C7  UNL     1      24.996   0.802  53.719  1.00  0.00     0.200 C 
HETATM    2  C8  UNL     1      25.599  -0.353  54.456  1.00  0.00     0.246 C 
HETATM    3  O1  UNL     1      25.592  -0.746  55.676  1.00  0.00    -0.271 OA
HETATM    4  N3  UNL     1      26.371  -1.249  53.623  1.00  0.00    -0.336 N 
HETATM    5  C9  UNL     1      27.102  -0.707  52.498  1.00  0.00     0.089 C 
HETATM    6  C10 UNL     1      26.983   0.619  52.342  1.00  0.00     0.017 C 
HETATM    7  C11 UNL     1      26.198   1.566  53.181  1.00  0.00     0.133 C 
HETATM    8  H11 UNL     1      26.485  -2.284  53.723  1.00  0.00     0.168 HD
ENDROOT
BRANCH   1   9
HETATM    9  N2  UNL     1      24.193   0.309  52.650  1.00  0.00    -0.375 N 
HETATM   10  H9  UNL     1      24.689   0.040  51.747  1.00  0.00     0.160 HD
BRANCH   9  11
HETATM   11  C6  UNL     1      22.799   0.137  52.661  1.00  0.00     0.028 A 
HETATM   12  C5  UNL     1      22.101  -0.470  53.684  1.00  0.00     0.031 A 
HETATM   13  C4  UNL     1      20.735  -0.656  53.716  1.00  0.00     0.031 A 
HETATM   14  C3  UNL     1      19.986  -0.200  52.638  1.00  0.00     0.029 A 
HETATM   15  C21 UNL     1      20.634   0.407  51.603  1.00  0.00     0.031 A 
HETATM   16  C20 UNL     1      22.000   0.566  51.622  1.00  0.00     0.031 A 
BRANCH  14  17
HETATM   17  N1  UNL     1      18.567  -0.354  52.589  1.00  0.00    -0.390 N 
HETATM   18  C1  UNL     1      17.785   0.495  51.701  1.00  0.00     0.149 C 
HETATM   19  C2  UNL     1      17.870  -1.329  53.393  1.00  0.00     0.149 C 
ENDBRANCH  14  17
ENDBRANCH   9  11
ENDBRANCH   1   9
BRANCH   7  20
HETATM   20  N4  UNL     1      25.797   2.669  52.354  1.00  0.00    -0.411 N 
HETATM   21  H15 UNL     1      25.620   3.540  52.852  1.00  0.00     0.153 HD
BRANCH  20  22
HETATM   22  C12 UNL     1      26.423   2.750  51.080  1.00  0.00     0.119 C 
BRANCH  22  23
HETATM   23  C13 UNL     1      25.529   3.319  50.002  1.00  0.00     0.058 C 
BRANCH  23  24
HETATM   24  C14 UNL     1      26.119   4.509  49.333  1.00  0.00    -0.055 A 
HETATM   25  C15 UNL     1      27.459   4.557  48.960  1.00  0.00     0.007 A 
HETATM   26  C16 UNL     1      28.058   5.630  48.341  1.00  0.00     0.002 A 
HETATM   27  C17 UNL     1      27.252   6.743  48.074  1.00  0.00     0.024 A 
HETATM   28  C18 UNL     1      25.906   6.773  48.416  1.00  0.00     0.034 A 
HETATM   29 CL1  UNL     1      24.963   8.184  48.056  1.00  0.00    -0.084 Cl
HETATM   30  C19 UNL     1      25.403   5.649  49.032  1.00  0.00     0.031 A 
ENDBRANCH  23  24
ENDBRANCH  22  23
ENDBRANCH  20  22
ENDBRANCH   7  20
TORSDOF 7
ENDMDL
MODEL 3
REMARK VINA RESULT:      -8.3      4.014      8.324
REMARK  7 active torsions:
REMARK  status: ('A' for Active; 'I' for Inactive)
REMARK    1  A    between atoms: N1_2  and  C3_4 
REMARK    2  A    between atoms: C6_7  and  N2_8 
REMARK    3  A    between atoms: N2_8  and  C7_9 
REMARK    4  A    between atoms: C11_15  and  N4_16 
REMARK    5  A    between atoms: N4_16  and  C12_17 
REMARK    6  A    between atoms: C12_17  and  C13_18 
REMARK    7  A    between atoms: C13_18  and  C14_19 
ROOT
HETATM    1  C7  UNL     1      23.638   5.320  51.457  1.00  0.00     0.200 C 
HETATM    2  C8  UNL     1      22.255   5.801  51.145  1.00  0.00     0.246 C 
HETATM    3  O1  UNL     1      21.652   6.929  51.231  1.00  0.00    -0.271 OA
HETATM    4  N3  UNL     1      21.376   4.777  50.625  1.00  0.00    -0.336 N 
HETATM    5  C9  UNL     1      21.531   3.415  51.089  1.00  0.00     0.089 C 
HETATM    6  C10 UNL     1      22.512   3.241  51.987  1.00  0.00     0.017 C 
HETATM    7  C11 UNL     1      23.431   4.273  52.542  1.00  0.00     0.133 C 
HETATM    8  H11 UNL     1      20.603   4.885  49.929  1.00  0.00     0.168 HD
ENDROOT
BRANCH   1   9
HETATM    9  N2  UNL     1      24.204   4.732  50.288  1.00  0.00    -0.375 N 
HETATM   10  H9  UNL     1      23.675   3.924  49.841  1.00  0.00     0.160 HD
BRANCH   9  11
HETATM   11  C6  UNL     1      25.402   5.108  49.657  1.00  0.00     0.028 A 
HETATM   12  C5  UNL     1      26.439   4.241  49.383  1.00  0.00     0.031 A 
HETATM   13  C4  UNL     1      27.625   4.587  48.771  1.00  0.00     0.031 A 
HETATM   14  C3  UNL     1      27.806   5.911  48.393  1.00  0.00     0.029 A 
HETATM   15  C21 UNL     1      26.807   6.804  48.645  1.00  0.00     0.031 A 
HETATM   16  C20 UNL     1      25.643   6.406  49.259  1.00  0.00     0.031 A 
BRANCH  14  17
HETATM   17  N1  UNL     1      29.005   6.354  47.756  1.00  0.00    -0.390 N 
HETATM   18  C1  UNL     1      30.240   5.606  47.957  1.00  0.00     0.149 C 
HETATM   19  C2  UNL     1      29.044   7.524  46.912  1.00  0.00     0.149 C 
ENDBRANCH  14  17
ENDBRANCH   9  11
ENDBRANCH   1   9
BRANCH   7  20
HETATM   20  N4  UNL     1      24.664   3.628  52.896  1.00  0.00    -0.411 N 
HETATM   21  H15 UNL     1      25.182   4.074  53.652  1.00  0.00     0.153 HD
BRANCH  20  22
HETATM   22  C12 UNL     1      24.659   2.207  52.845  1.00  0.00     0.119 C 
BRANCH  22  23
HETATM   23  C13 UNL     1      25.618   1.636  51.824  1.00  0.00     0.058 C 
BRANCH  23  24
HETATM   24  C14 UNL     1      26.807   0.996  52.446  1.00  0.00    -0.055 A 
HETATM   25  C15 UNL     1      27.797   1.740  53.081  1.00  0.00     0.007 A 
HETATM   26  C16 UNL     1      28.918   1.203  53.673  1.00  0.00     0.002 A 
HETATM   27  C17 UNL     1      29.059  -0.189  53.624  1.00  0.00     0.024 A 
HETATM   28  C18 UNL     1      28.114  -1.001  53.008  1.00  0.00     0.034 A 
HETATM   29 CL1  UNL     1      28.348  -2.720  52.985  1.00  0.00    -0.084 Cl
HETATM   30  C19 UNL     1      27.029  -0.365  52.447  1.00  0.00     0.031 A 
ENDBRANCH  23  24
ENDBRANCH  22  23
ENDBRANCH  20  22
ENDBRANCH   7  20
TORSDOF 7
ENDMDL
MODEL 4
REMARK VINA RESULT:      -8.3      2.295      2.908
REMARK  7 active torsions:
REMARK  status: ('A' for Active; 'I' for Inactive)
REMARK    1  A    between atoms: N1_2  and  C3_4 
REMARK    2  A    between atoms: C6_7  and  N2_8 
REMARK    3  A    between atoms: N2_8  and  C7_9 
REMARK    4  A    between atoms: C11_15  and  N4_16 
REMARK    5  A    between atoms: N4_16  and  C12_17 
REMARK    6  A    between atoms: C12_17  and  C13_18 
REMARK    7  A    between atoms: C13_18  and  C14_19 
ROOT
HETATM    1  C7  UNL     1      25.193   0.897  53.692  1.00  0.00     0.200 C 
HETATM    2  C8  UNL     1      25.724  -0.287  54.438  1.00  0.00     0.246 C 
HETATM    3  O1  UNL     1      25.724  -0.651  55.668  1.00  0.00    -0.271 OA
HETATM    4  N3  UNL     1      26.393  -1.262  53.605  1.00  0.00    -0.336 N 
HETATM    5  C9  UNL     1      27.129  -0.807  52.445  1.00  0.00     0.089 C 
HETATM    6  C10 UNL     1      27.113   0.521  52.260  1.00  0.00     0.017 C 
HETATM    7  C11 UNL     1      26.436   1.548  53.099  1.00  0.00     0.133 C 
HETATM    8  H11 UNL     1      26.425  -2.300  53.728  1.00  0.00     0.168 HD
ENDROOT
BRANCH   1   9
HETATM    9  N2  UNL     1      24.319   0.447  52.660  1.00  0.00    -0.375 N 
HETATM   10  H9  UNL     1      24.677  -0.317  52.012  1.00  0.00     0.160 HD
BRANCH   9  11
HETATM   11  C6  UNL     1      23.018   0.912  52.404  1.00  0.00     0.028 A 
HETATM   12  C5  UNL     1      22.647   2.240  52.449  1.00  0.00     0.031 A 
HETATM   13  C4  UNL     1      21.377   2.721  52.208  1.00  0.00     0.031 A 
HETATM   14  C3  UNL     1      20.380   1.807  51.892  1.00  0.00     0.029 A 
HETATM   15  C21 UNL     1      20.700   0.483  51.836  1.00  0.00     0.031 A 
HETATM   16  C20 UNL     1      21.984   0.057  52.086  1.00  0.00     0.031 A 
BRANCH  14  17
HETATM   17  N1  UNL     1      19.037   2.221  51.631  1.00  0.00    -0.390 N 
HETATM   18  C1  UNL     1      18.742   3.640  51.481  1.00  0.00     0.149 C 
HETATM   19  C2  UNL     1      17.951   1.279  51.506  1.00  0.00     0.149 C 
ENDBRANCH  14  17
ENDBRANCH   9  11
ENDBRANCH   1   9
BRANCH   7  20
HETATM   20  N4  UNL     1      26.099   2.661  52.257  1.00  0.00    -0.411 N 
HETATM   21  H15 UNL     1      26.178   3.576  52.699  1.00  0.00     0.153 HD
BRANCH  20  22
HETATM   22  C12 UNL     1      26.485   2.548  50.894  1.00  0.00     0.119 C 
BRANCH  22  23
HETATM   23  C13 UNL     1      26.291   3.822  50.102  1.00  0.00     0.058 C 
BRANCH  23  24
HETATM   24  C14 UNL     1      24.949   3.906  49.466  1.00  0.00    -0.055 A 
HETATM   25  C15 UNL     1      24.434   5.107  48.987  1.00  0.00     0.007 A 
HETATM   26  C16 UNL     1      23.201   5.244  48.392  1.00  0.00     0.002 A 
HETATM   27  C17 UNL     1      22.422   4.088  48.266  1.00  0.00     0.024 A 
HETATM   28  C18 UNL     1      22.866   2.852  48.720  1.00  0.00     0.034 A 
HETATM   29 CL1  UNL     1      21.851   1.457  48.532  1.00  0.00    -0.084 Cl
HETATM   30  C19 UNL     1      24.114   2.822  49.301  1.00  0.00     0.031 A 
ENDBRANCH  23  24
ENDBRANCH  22  23
ENDBRANCH  20  22
ENDBRANCH   7  20
TORSDOF 7
ENDMDL
MODEL 5
REMARK VINA RESULT:      -8.3      3.741      7.684
REMARK  7 active torsions:
REMARK  status: ('A' for Active; 'I' for Inactive)
REMARK    1  A    between atoms: N1_2  and  C3_4 
REMARK    2  A    between atoms: C6_7  and  N2_8 
REMARK    3  A    between atoms: N2_8  and  C7_9 
REMARK    4  A    between atoms: C11_15  and  N4_16 
REMARK    5  A    between atoms: N4_16  and  C12_17 
REMARK    6  A    between atoms: C12_17  and  C13_18 
REMARK    7  A    between atoms: C13_18  and  C14_19 
ROOT
HETATM    1  C7  UNL     1      23.509   4.578  51.896  1.00  0.00     0.200 C 
HETATM    2  C8  UNL     1      23.735   5.876  51.185  1.00  0.00     0.246 C 
HETATM    3  O1  UNL     1      24.128   7.043  51.543  1.00  0.00    -0.271 OA
HETATM    4  N3  UNL     1      23.453   5.832  49.767  1.00  0.00    -0.336 N 
HETATM    5  C9  UNL     1      22.392   4.973  49.288  1.00  0.00     0.089 C 
HETATM    6  C10 UNL     1      21.757   4.284  50.246  1.00  0.00     0.017 C 
HETATM    7  C11 UNL     1      22.023   4.308  51.711  1.00  0.00     0.133 C 
HETATM    8  H11 UNL     1      23.929   6.360  49.000  1.00  0.00     0.168 HD
ENDROOT
BRANCH   1   9
HETATM    9  N2  UNL     1      24.288   3.560  51.270  1.00  0.00    -0.375 N 
HETATM   10  H9  UNL     1      24.203   3.457  50.214  1.00  0.00     0.160 HD
BRANCH   9  11
HETATM   11  C6  UNL     1      25.165   2.667  51.907  1.00  0.00     0.028 A 
HETATM   12  C5  UNL     1      25.367   2.619  53.271  1.00  0.00     0.031 A 
HETATM   13  C4  UNL     1      26.226   1.757  53.919  1.00  0.00     0.031 A 
HETATM   14  C3  UNL     1      26.954   0.857  53.152  1.00  0.00     0.029 A 
HETATM   15  C21 UNL     1      26.787   0.868  51.798  1.00  0.00     0.031 A 
HETATM   16  C20 UNL     1      25.916   1.750  51.202  1.00  0.00     0.031 A 
BRANCH  14  17
HETATM   17  N1  UNL     1      27.867  -0.069  53.743  1.00  0.00    -0.390 N 
HETATM   18  C1  UNL     1      28.084  -1.363  53.110  1.00  0.00     0.149 C 
HETATM   19  C2  UNL     1      28.592   0.231  54.954  1.00  0.00     0.149 C 
ENDBRANCH  14  17
ENDBRANCH   9  11
ENDBRANCH   1   9
BRANCH   7  20
HETATM   20  N4  UNL     1      21.645   3.034  52.255  1.00  0.00    -0.411 N 
HETATM   21  H15 UNL     1      21.239   3.067  53.189  1.00  0.00     0.153 HD
BRANCH  20  22
HETATM   22  C12 UNL     1      21.104   2.100  51.330  1.00  0.00     0.119 C 
BRANCH  22  23
HETATM   23  C13 UNL     1      21.914   0.828  51.211  1.00  0.00     0.058 C 
BRANCH  23  24
HETATM   24  C14 UNL     1      21.957   0.052  52.479  1.00  0.00    -0.055 A 
HETATM   25  C15 UNL     1      20.812  -0.504  53.043  1.00  0.00     0.007 A 
HETATM   26  C16 UNL     1      20.792  -1.229  54.212  1.00  0.00     0.002 A 
HETATM   27  C17 UNL     1      22.014  -1.412  54.869  1.00  0.00     0.024 A 
HETATM   28  C18 UNL     1      23.201  -0.888  54.371  1.00  0.00     0.034 A 
HETATM   29 CL1  UNL     1      24.682  -1.152  55.235  1.00  0.00    -0.084 Cl
HETATM   30  C19 UNL     1      23.113  -0.178  53.194  1.00  0.00     0.031 A 
ENDBRANCH  23  24
ENDBRANCH  22  23
ENDBRANCH  20  22
ENDBRANCH   7  20
TORSDOF 7
ENDMDL
MODEL 6
REMARK VINA RESULT:      -8.1      2.043      2.609
REMARK  7 active torsions:
REMARK  status: ('A' for Active; 'I' for Inactive)
REMARK    1  A    between atoms: N1_2  and  C3_4 
REMARK    2  A    between atoms: C6_7  and  N2_8 
REMARK    3  A    between atoms: N2_8  and  C7_9 
REMARK    4  A    between atoms: C11_15  and  N4_16 
REMARK    5  A    between atoms: N4_16  and  C12_17 
REMARK    6  A    between atoms: C12_17  and  C13_18 
REMARK    7  A    between atoms: C13_18  and  C14_19 
ROOT
HETATM    1  C7  UNL     1      25.142   0.822  53.726  1.00  0.00     0.200 C 
HETATM    2  C8  UNL     1      25.688  -0.346  54.486  1.00  0.00     0.246 C 
HETATM    3  O1  UNL     1      25.645  -0.725  55.710  1.00  0.00    -0.271 OA
HETATM    4  N3  UNL     1      26.442  -1.279  53.677  1.00  0.00    -0.336 N 
HETATM    5  C9  UNL     1      27.213  -0.776  52.560  1.00  0.00     0.089 C 
HETATM    6  C10 UNL     1      27.144   0.552  52.388  1.00  0.00     0.017 C 
HETATM    7  C11 UNL     1      26.380   1.536  53.203  1.00  0.00     0.133 C 
HETATM    8  H11 UNL     1      26.517  -2.316  53.790  1.00  0.00     0.168 HD
ENDROOT
BRANCH   1   9
HETATM    9  N2  UNL     1      24.340   0.346  52.648  1.00  0.00    -0.375 N 
HETATM   10  H9  UNL     1      24.839   0.078  51.746  1.00  0.00     0.160 HD
BRANCH   9  11
HETATM   11  C6  UNL     1      22.944   0.191  52.647  1.00  0.00     0.028 A 
HETATM   12  C5  UNL     1      22.230  -0.406  53.666  1.00  0.00     0.031 A 
HETATM   13  C4  UNL     1      20.862  -0.575  53.687  1.00  0.00     0.031 A 
HETATM   14  C3  UNL     1      20.128  -0.113  52.602  1.00  0.00     0.029 A 
HETATM   15  C21 UNL     1      20.791   0.484  51.571  1.00  0.00     0.031 A 
HETATM   16  C20 UNL     1      22.159   0.628  51.601  1.00  0.00     0.031 A 
BRANCH  14  17
HETATM   17  N1  UNL     1      18.707  -0.250  52.542  1.00  0.00    -0.390 N 
HETATM   18  C1  UNL     1      17.935   0.660  51.706  1.00  0.00     0.149 C 
HETATM   19  C2  UNL     1      17.999  -1.265  53.284  1.00  0.00     0.149 C 
ENDBRANCH  14  17
ENDBRANCH   9  11
ENDBRANCH   1   9
BRANCH   7  20
HETATM   20  N4  UNL     1      26.034   2.643  52.356  1.00  0.00    -0.411 N 
HETATM   21  H15 UNL     1      26.040   3.554  52.814  1.00  0.00     0.153 HD
BRANCH  20  22
HETATM   22  C12 UNL     1      26.503   2.572  51.017  1.00  0.00     0.119 C 
BRANCH  22  23
HETATM   23  C13 UNL     1      26.191   3.806  50.200  1.00  0.00     0.058 C 
BRANCH  23  24
HETATM   24  C14 UNL     1      24.733   4.002  49.987  1.00  0.00    -0.055 A 
HETATM   25  C15 UNL     1      23.964   3.095  49.265  1.00  0.00     0.007 A 
HETATM   26  C16 UNL     1      22.613   3.224  49.036  1.00  0.00     0.002 A 
HETATM   27  C17 UNL     1      21.982   4.353  49.573  1.00  0.00     0.024 A 
HETATM   28  C18 UNL     1      22.680   5.305  50.306  1.00  0.00     0.034 A 
HETATM   29 CL1  UNL     1      21.837   6.680  50.945  1.00  0.00    -0.084 Cl
HETATM   30  C19 UNL     1      24.028   5.081  50.478  1.00  0.00     0.031 A 
ENDBRANCH  23  24
ENDBRANCH  22  23
ENDBRANCH  20  22
ENDBRANCH   7  20
TORSDOF 7
ENDMDL
MODEL 7
REMARK VINA RESULT:      -8.0      2.298      5.406
REMARK  7 active torsions:
REMARK  status: ('A' for Active; 'I' for Inactive)
REMARK    1  A    between atoms: N1_2  and  C3_4 
REMARK    2  A    between atoms: C6_7  and  N2_8 
REMARK    3  A    between atoms: N2_8  and  C7_9 
REMARK    4  A    between atoms: C11_15  and  N4_16 
REMARK    5  A    between atoms: N4_16  and  C12_17 
REMARK    6  A    between atoms: C12_17  and  C13_18 
REMARK    7  A    between atoms: C13_18  and  C14_19 
ROOT
HETATM    1  C7  UNL     1      22.033   1.414  51.726  1.00  0.00     0.200 C 
HETATM    2  C8  UNL     1      20.641   1.593  52.247  1.00  0.00     0.246 C 
HETATM    3  O1  UNL     1      19.658   0.804  52.481  1.00  0.00    -0.271 OA
HETATM    4  N3  UNL     1      20.300   2.962  52.570  1.00  0.00    -0.336 N 
HETATM    5  C9  UNL     1      20.872   4.032  51.781  1.00  0.00     0.089 C 
HETATM    6  C10 UNL     1      21.687   3.626  50.797  1.00  0.00     0.017 C 
HETATM    7  C11 UNL     1      22.055   2.228  50.440  1.00  0.00     0.133 C 
HETATM    8  H11 UNL     1      19.667   3.306  53.327  1.00  0.00     0.168 HD
ENDROOT
BRANCH   1   9
HETATM    9  N2  UNL     1      22.958   1.942  52.673  1.00  0.00    -0.375 N 
HETATM   10  H9  UNL     1      22.660   2.802  53.225  1.00  0.00     0.160 HD
BRANCH   9  11
HETATM   11  C6  UNL     1      24.240   1.442  52.960  1.00  0.00     0.028 A 
HETATM   12  C5  UNL     1      24.569   0.102  52.950  1.00  0.00     0.031 A 
HETATM   13  C4  UNL     1      25.815  -0.414  53.233  1.00  0.00     0.031 A 
HETATM   14  C3  UNL     1      26.834   0.473  53.555  1.00  0.00     0.029 A 
HETATM   15  C21 UNL     1      26.555   1.808  53.578  1.00  0.00     0.031 A 
HETATM   16  C20 UNL     1      25.293   2.269  53.287  1.00  0.00     0.031 A 
BRANCH  14  17
HETATM   17  N1  UNL     1      28.154   0.023  53.864  1.00  0.00    -0.390 N 
HETATM   18  C1  UNL     1      28.969   0.783  54.803  1.00  0.00     0.149 C 
HETATM   19  C2  UNL     1      28.718  -1.169  53.278  1.00  0.00     0.149 C 
ENDBRANCH  14  17
ENDBRANCH   9  11
ENDBRANCH   1   9
BRANCH   7  20
HETATM   20  N4  UNL     1      23.364   2.248  49.850  1.00  0.00    -0.411 N 
HETATM   21  H15 UNL     1      23.484   1.630  49.049  1.00  0.00     0.153 HD
BRANCH  20  22
HETATM   22  C12 UNL     1      24.010   3.513  49.814  1.00  0.00     0.119 C 
BRANCH  22  23
HETATM   23  C13 UNL     1      25.517   3.426  49.908  1.00  0.00     0.058 C 
BRANCH  23  24
HETATM   24  C14 UNL     1      26.201   4.578  49.263  1.00  0.00    -0.055 A 
HETATM   25  C15 UNL     1      25.529   5.755  48.950  1.00  0.00     0.007 A 
HETATM   26  C16 UNL     1      26.109   6.851  48.354  1.00  0.00     0.002 A 
HETATM   27  C17 UNL     1      27.472   6.760  48.045  1.00  0.00     0.024 A 
HETATM   28  C18 UNL     1      28.213   5.619  48.325  1.00  0.00     0.034 A 
HETATM   29 CL1  UNL     1      29.899   5.573  47.918  1.00  0.00    -0.084 Cl
HETATM   30  C19 UNL     1      27.538   4.578  48.923  1.00  0.00     0.031 A 
ENDBRANCH  23  24
ENDBRANCH  22  23
ENDBRANCH  20  22
ENDBRANCH   7  20
TORSDOF 7
ENDMDL
MODEL 8
REMARK VINA RESULT:      -8.0      3.242      6.210
REMARK  7 active torsions:
REMARK  status: ('A' for Active; 'I' for Inactive)
REMARK    1  A    between atoms: N1_2  and  C3_4 
REMARK    2  A    between atoms: C6_7  and  N2_8 
REMARK    3  A    between atoms: N2_8  and  C7_9 
REMARK    4  A    between atoms: C11_15  and  N4_16 
REMARK    5  A    between atoms: N4_16  and  C12_17 
REMARK    6  A    between atoms: C12_17  and  C13_18 
REMARK    7  A    between atoms: C13_18  and  C14_19 
ROOT
HETATM    1  C7  UNL     1      24.918  -0.012  53.078  1.00  0.00     0.200 C 
HETATM    2  C8  UNL     1      26.322  -0.133  52.570  1.00  0.00     0.246 C 
HETATM    3  O1  UNL     1      26.858  -0.607  51.507  1.00  0.00    -0.271 OA
HETATM    4  N3  UNL     1      27.324   0.401  53.467  1.00  0.00    -0.336 N 
HETATM    5  C9  UNL     1      27.109   0.310  54.895  1.00  0.00     0.089 C 
HETATM    6  C10 UNL     1      25.961  -0.285  55.249  1.00  0.00     0.017 C 
HETATM    7  C11 UNL     1      24.912  -0.845  54.352  1.00  0.00     0.133 C 
HETATM    8  H11 UNL     1      28.227   0.865  53.219  1.00  0.00     0.168 HD
ENDROOT
BRANCH   1   9
HETATM    9  N2  UNL     1      24.641   1.356  53.367  1.00  0.00    -0.375 N 
HETATM   10  H9  UNL     1      24.743   1.674  54.378  1.00  0.00     0.160 HD
BRANCH   9  11
HETATM   11  C6  UNL     1      24.241   2.341  52.450  1.00  0.00     0.028 A 
HETATM   12  C5  UNL     1      24.308   2.196  51.079  1.00  0.00     0.031 A 
HETATM   13  C4  UNL     1      23.928   3.150  50.158  1.00  0.00     0.031 A 
HETATM   14  C3  UNL     1      23.435   4.359  50.632  1.00  0.00     0.029 A 
HETATM   15  C21 UNL     1      23.351   4.547  51.980  1.00  0.00     0.031 A 
HETATM   16  C20 UNL     1      23.745   3.562  52.855  1.00  0.00     0.031 A 
BRANCH  14  17
HETATM   17  N1  UNL     1      23.021   5.401  49.747  1.00  0.00    -0.390 N 
HETATM   18  C1  UNL     1      21.751   6.076  49.980  1.00  0.00     0.149 C 
HETATM   19  C2  UNL     1      23.820   5.817  48.619  1.00  0.00     0.149 C 
ENDBRANCH  14  17
ENDBRANCH   9  11
ENDBRANCH   1   9
BRANCH   7  20
HETATM   20  N4  UNL     1      23.651  -0.760  55.033  1.00  0.00    -0.411 N 
HETATM   21  H15 UNL     1      23.568   0.012  55.692  1.00  0.00     0.153 HD
BRANCH  20  22
HETATM   22  C12 UNL     1      22.506  -1.100  54.263  1.00  0.00     0.119 C 
BRANCH  22  23
HETATM   23  C13 UNL     1      21.397  -0.075  54.343  1.00  0.00     0.058 C 
BRANCH  23  24
HETATM   24  C14 UNL     1      21.098   0.554  53.028  1.00  0.00    -0.055 A 
HETATM   25  C15 UNL     1      21.432  -0.060  51.825  1.00  0.00     0.007 A 
HETATM   26  C16 UNL     1      21.181   0.474  50.581  1.00  0.00     0.002 A 
HETATM   27  C17 UNL     1      20.546   1.720  50.540  1.00  0.00     0.024 A 
HETATM   28  C18 UNL     1      20.181   2.397  51.697  1.00  0.00     0.034 A 
HETATM   29 CL1  UNL     1      19.395   3.939  51.575  1.00  0.00    -0.084 Cl
HETATM   30  C19 UNL     1      20.477   1.777  52.891  1.00  0.00     0.031 A 
ENDBRANCH  23  24
ENDBRANCH  22  23
ENDBRANCH  20  22
ENDBRANCH   7  20
TORSDOF 7
ENDMDL
MODEL 9
REMARK VINA RESULT:      -7.9      2.783      3.492
REMARK  7 active torsions:
REMARK  status: ('A' for Active; 'I' for Inactive)
REMARK    1  A    between atoms: N1_2  and  C3_4 
REMARK    2  A    between atoms: C6_7  and  N2_8 
REMARK    3  A    between atoms: N2_8  and  C7_9 
REMARK    4  A    between atoms: C11_15  and  N4_16 
REMARK    5  A    between atoms: N4_16  and  C12_17 
REMARK    6  A    between atoms: C12_17  and  C13_18 
REMARK    7  A    between atoms: C13_18  and  C14_19 
ROOT
HETATM    1  C7  UNL     1      24.734   0.685  53.778  1.00  0.00     0.200 C 
HETATM    2  C8  UNL     1      25.491  -0.435  54.422  1.00  0.00     0.246 C 
HETATM    3  O1  UNL     1      25.559  -0.909  55.612  1.00  0.00    -0.271 OA
HETATM    4  N3  UNL     1      26.350  -1.167  53.518  1.00  0.00    -0.336 N 
HETATM    5  C9  UNL     1      26.984  -0.462  52.425  1.00  0.00     0.089 C 
HETATM    6  C10 UNL     1      26.698   0.847  52.366  1.00  0.00     0.017 C 
HETATM    7  C11 UNL     1      25.821   1.628  53.280  1.00  0.00     0.133 C 
HETATM    8  H11 UNL     1      26.593  -2.184  53.543  1.00  0.00     0.168 HD
ENDROOT
BRANCH   1   9
HETATM    9  N2  UNL     1      23.975   0.169  52.686  1.00  0.00    -0.375 N 
HETATM   10  H9  UNL     1      24.512  -0.169  51.831  1.00  0.00     0.160 HD
BRANCH   9  11
HETATM   11  C6  UNL     1      22.576   0.060  52.618  1.00  0.00     0.028 A 
HETATM   12  C5  UNL     1      21.827   0.386  51.506  1.00  0.00     0.031 A 
HETATM   13  C4  UNL     1      20.455   0.294  51.415  1.00  0.00     0.031 A 
HETATM   14  C3  UNL     1      19.754  -0.164  52.524  1.00  0.00     0.029 A 
HETATM   15  C21 UNL     1      20.453  -0.498  53.646  1.00  0.00     0.031 A 
HETATM   16  C20 UNL     1      21.823  -0.386  53.683  1.00  0.00     0.031 A 
BRANCH  14  17
HETATM   17  N1  UNL     1      18.331  -0.288  52.515  1.00  0.00    -0.390 N 
HETATM   18  C1  UNL     1      17.698  -1.325  53.321  1.00  0.00     0.149 C 
HETATM   19  C2  UNL     1      17.486   0.583  51.734  1.00  0.00     0.149 C 
ENDBRANCH  14  17
ENDBRANCH   9  11
ENDBRANCH   1   9
BRANCH   7  20
HETATM   20  N4  UNL     1      25.268   2.727  52.538  1.00  0.00    -0.411 N 
HETATM   21  H15 UNL     1      25.263   2.604  51.527  1.00  0.00     0.153 HD
BRANCH  20  22
HETATM   22  C12 UNL     1      24.154   3.380  53.132  1.00  0.00     0.119 C 
BRANCH  22  23
HETATM   23  C13 UNL     1      23.642   4.554  52.328  1.00  0.00     0.058 C 
BRANCH  23  24
HETATM   24  C14 UNL     1      22.569   4.171  51.372  1.00  0.00    -0.055 A 
HETATM   25  C15 UNL     1      21.220   4.261  51.702  1.00  0.00     0.007 A 
HETATM   26  C16 UNL     1      20.186   3.922  50.860  1.00  0.00     0.002 A 
HETATM   27  C17 UNL     1      20.530   3.455  49.586  1.00  0.00     0.024 A 
HETATM   28  C18 UNL     1      21.853   3.336  49.181  1.00  0.00     0.034 A 
HETATM   29 CL1  UNL     1      22.211   2.751  47.586  1.00  0.00    -0.084 Cl
HETATM   30  C19 UNL     1      22.813   3.702  50.098  1.00  0.00     0.031 A 
ENDBRANCH  23  24
ENDBRANCH  22  23
ENDBRANCH  20  22
ENDBRANCH   7  20
TORSDOF 7
ENDMDL
