MODEL 1
REMARK VINA RESULT:      -7.1      0.000      0.000
REMARK  2 active torsions:
REMARK  status: ('A' for Active; 'I' for Inactive)
REMARK    1  A    between atoms: C11_16  and  C12_17 
REMARK    2  A    between atoms: C12_17  and  C13_18 
ROOT
HETATM    1  C1  UNL     1      23.418   4.947  51.517  1.00  0.00     0.053 C 
HETATM    2  C2  UNL     1      23.910   3.567  51.693  1.00  0.00    -0.025 C 
HETATM    3  S1  UNL     1      24.527   3.132  53.092  1.00  0.00    -0.150 SA
HETATM    4  C3  UNL     1      25.074   1.481  53.181  1.00  0.00     0.091 A 
HETATM    5  N1  UNL     1      26.304   1.830  53.016  1.00  0.00    -0.279 NA
HETATM    6  C4  UNL     1      27.420   0.938  52.975  1.00  0.00     0.177 A 
HETATM    7  C5  UNL     1      27.041  -0.482  53.146  1.00  0.00    -0.004 A 
HETATM    8  C6  UNL     1      25.784  -0.846  53.315  1.00  0.00     0.013 A 
HETATM    9  C7  UNL     1      24.697   0.110  53.346  1.00  0.00     0.017 A 
HETATM   10  C8  UNL     1      23.459  -0.318  53.518  1.00  0.00     0.155 C 
HETATM   11  N2  UNL     1      22.274   0.455  53.575  1.00  0.00    -0.160 NA
HETATM   12  N3  UNL     1      21.712   1.055  52.643  1.00  0.00    -0.135 NA
HETATM   13  C9  UNL     1      22.172   1.071  51.324  1.00  0.00     0.147 C 
HETATM   14  N4  UNL     1      23.447   1.313  51.172  1.00  0.00    -0.258 NA
HETATM   15  C10 UNL     1      23.829   2.592  50.570  1.00  0.00     0.177 C 
HETATM   16  C11 UNL     1      22.829   2.953  49.545  1.00  0.00    -0.035 C 
HETATM   17  C14 UNL     1      21.932   2.069  49.150  1.00  0.00    -0.010 C 
HETATM   18  C15 UNL     1      21.594   0.885  49.980  1.00  0.00     0.109 C 
HETATM   19  H4  UNL     1      23.716   3.538  54.126  1.00  0.00     0.102 HD
ENDROOT
BRANCH  16  20
HETATM   20  C12 UNL     1      22.751   4.252  48.914  1.00  0.00    -0.000 C 
BRANCH  20  21
HETATM   21  C13 UNL     1      22.338   4.422  47.674  1.00  0.00     0.207 C 
HETATM   22 BR1  UNL     1      21.816   4.086  45.852  1.00  0.00    -0.193 Br
ENDBRANCH  20  21
ENDBRANCH  16  20
TORSDOF 2
ENDMDL
MODEL 2
REMARK VINA RESULT:      -6.7      3.195      5.965
REMARK  2 active torsions:
REMARK  status: ('A' for Active; 'I' for Inactive)
REMARK    1  A    between atoms: C11_16  and  C12_17 
REMARK    2  A    between atoms: C12_17  and  C13_18 
ROOT
HETATM    1  C1  UNL     1      24.318  -0.572  54.278  1.00  0.00     0.053 C 
HETATM    2  C2  UNL     1      23.732   0.203  53.167  1.00  0.00    -0.025 C 
HETATM    3  S1  UNL     1      22.249   0.759  53.300  1.00  0.00    -0.150 SA
HETATM    4  C3  UNL     1      21.667   1.658  51.928  1.00  0.00     0.091 A 
HETATM    5  N1  UNL     1      20.996   0.649  51.492  1.00  0.00    -0.279 NA
HETATM    6  C4  UNL     1      20.196   0.634  50.306  1.00  0.00     0.177 A 
HETATM    7  C5  UNL     1      20.196   1.926  49.585  1.00  0.00    -0.004 A 
HETATM    8  C6  UNL     1      20.880   2.963  50.027  1.00  0.00     0.013 A 
HETATM    9  C7  UNL     1      21.673   2.912  51.237  1.00  0.00     0.017 A 
HETATM   10  C8  UNL     1      22.339   3.985  51.626  1.00  0.00     0.155 C 
HETATM   11  N2  UNL     1      23.161   4.130  52.769  1.00  0.00    -0.160 NA
HETATM   12  N3  UNL     1      24.279   3.625  52.970  1.00  0.00    -0.135 NA
HETATM   13  C9  UNL     1      24.943   2.793  52.065  1.00  0.00     0.147 C 
HETATM   14  N4  UNL     1      24.222   1.839  51.539  1.00  0.00    -0.258 NA
HETATM   15  C10 UNL     1      24.526   0.462  51.932  1.00  0.00     0.177 C 
HETATM   16  C11 UNL     1      25.983   0.333  52.129  1.00  0.00    -0.035 C 
HETATM   17  C14 UNL     1      26.795   1.297  51.736  1.00  0.00    -0.010 C 
HETATM   18  C15 UNL     1      26.303   2.678  51.507  1.00  0.00     0.109 C 
HETATM   19  H4  UNL     1      22.068   1.368  54.520  1.00  0.00     0.102 HD
ENDROOT
BRANCH  16  20
HETATM   20  C12 UNL     1      26.618  -0.812  52.745  1.00  0.00    -0.000 C 
BRANCH  20  21
HETATM   21  C13 UNL     1      27.817  -0.758  53.291  1.00  0.00     0.207 C 
HETATM   22 BR1  UNL     1      29.717  -0.900  53.561  1.00  0.00    -0.193 Br
ENDBRANCH  20  21
ENDBRANCH  16  20
TORSDOF 2
ENDMDL
MODEL 3
REMARK VINA RESULT:      -6.5      2.373      4.040
REMARK  2 active torsions:
REMARK  status: ('A' for Active; 'I' for Inactive)
REMARK    1  A    between atoms: C11_16  and  C12_17 
REMARK    2  A    between atoms: C12_17  and  C13_18 
ROOT
HETATM    1  C1  UNL     1      20.900   2.886  49.467  1.00  0.00     0.053 C 
HETATM    2  C2  UNL     1      21.282   2.249  50.742  1.00  0.00    -0.025 C 
HETATM    3  S1  UNL     1      21.502   0.675  50.793  1.00  0.00    -0.150 SA
HETATM    4  C3  UNL     1      21.951   0.038  52.349  1.00  0.00     0.091 A 
HETATM    5  N1  UNL     1      20.750  -0.362  52.586  1.00  0.00    -0.279 NA
HETATM    6  C4  UNL     1      20.317  -1.032  53.772  1.00  0.00     0.177 A 
HETATM    7  C5  UNL     1      21.404  -1.245  54.754  1.00  0.00    -0.004 A 
HETATM    8  C6  UNL     1      22.636  -0.839  54.517  1.00  0.00     0.013 A 
HETATM    9  C7  UNL     1      23.010  -0.163  53.292  1.00  0.00     0.017 A 
HETATM   10  C8  UNL     1      24.262   0.221  53.117  1.00  0.00     0.155 C 
HETATM   11  N2  UNL     1      24.815   0.890  51.998  1.00  0.00    -0.160 NA
HETATM   12  N3  UNL     1      24.628   2.067  51.647  1.00  0.00    -0.135 NA
HETATM   13  C9  UNL     1      23.805   2.971  52.324  1.00  0.00     0.147 C 
HETATM   14  N4  UNL     1      22.626   2.519  52.662  1.00  0.00    -0.258 NA
HETATM   15  C10 UNL     1      21.462   3.074  51.970  1.00  0.00     0.177 C 
HETATM   16  C11 UNL     1      21.710   4.502  51.690  1.00  0.00    -0.035 C 
HETATM   17  C14 UNL     1      22.734   5.122  52.248  1.00  0.00    -0.010 C 
HETATM   18  C15 UNL     1      23.893   4.368  52.788  1.00  0.00     0.109 C 
HETATM   19  H4  UNL     1      22.285   0.262  49.741  1.00  0.00     0.102 HD
ENDROOT
BRANCH  16  20
HETATM   20  C12 UNL     1      20.886   5.310  50.817  1.00  0.00    -0.000 C 
BRANCH  20  21
HETATM   21  C13 UNL     1      21.251   6.503  50.391  1.00  0.00     0.207 C 
HETATM   22 BR1  UNL     1      22.315   7.989  49.787  1.00  0.00    -0.193 Br
ENDBRANCH  20  21
ENDBRANCH  16  20
TORSDOF 2
ENDMDL
MODEL 4
REMARK VINA RESULT:      -6.4      3.136      5.768
REMARK  2 active torsions:
REMARK  status: ('A' for Active; 'I' for Inactive)
REMARK    1  A    between atoms: C11_16  and  C12_17 
REMARK    2  A    between atoms: C12_17  and  C13_18 
ROOT
HETATM    1  C1  UNL     1      26.563   2.688  50.615  1.00  0.00     0.053 C 
HETATM    2  C2  UNL     1      25.263   3.361  50.800  1.00  0.00    -0.025 C 
HETATM    3  S1  UNL     1      24.732   4.353  49.677  1.00  0.00    -0.150 SA
HETATM    4  C3  UNL     1      23.188   5.087  50.005  1.00  0.00     0.091 A 
HETATM    5  N1  UNL     1      23.738   6.188  50.382  1.00  0.00    -0.279 NA
HETATM    6  C4  UNL     1      23.040   7.352  50.832  1.00  0.00     0.177 A 
HETATM    7  C5  UNL     1      21.569   7.190  50.830  1.00  0.00    -0.004 A 
HETATM    8  C6  UNL     1      21.000   6.065  50.444  1.00  0.00     0.013 A 
HETATM    9  C7  UNL     1      21.766   4.919  49.999  1.00  0.00     0.017 A 
HETATM   10  C8  UNL     1      21.135   3.819  49.626  1.00  0.00     0.155 C 
HETATM   11  N2  UNL     1      21.704   2.607  49.166  1.00  0.00    -0.160 NA
HETATM   12  N3  UNL     1      22.338   1.766  49.826  1.00  0.00    -0.135 NA
HETATM   13  C9  UNL     1      22.611   1.877  51.192  1.00  0.00     0.147 C 
HETATM   14  N4  UNL     1      23.062   3.038  51.586  1.00  0.00    -0.258 NA
HETATM   15  C10 UNL     1      24.456   3.111  52.027  1.00  0.00     0.177 C 
HETATM   16  C11 UNL     1      24.804   1.853  52.717  1.00  0.00    -0.035 C 
HETATM   17  C14 UNL     1      23.860   0.991  53.045  1.00  0.00    -0.010 C 
HETATM   18  C15 UNL     1      22.533   1.007  52.379  1.00  0.00     0.109 C 
HETATM   19  H4  UNL     1      24.860   3.786  48.430  1.00  0.00     0.102 HD
ENDROOT
BRANCH  16  20
HETATM   20  C12 UNL     1      26.153   1.474  53.076  1.00  0.00    -0.000 C 
BRANCH  20  21
HETATM   21  C13 UNL     1      26.551   0.219  53.141  1.00  0.00     0.207 C 
HETATM   22 BR1  UNL     1      26.872  -1.629  52.707  1.00  0.00    -0.193 Br
ENDBRANCH  20  21
ENDBRANCH  16  20
TORSDOF 2
ENDMDL
MODEL 5
REMARK VINA RESULT:      -6.4      3.763      6.561
REMARK  2 active torsions:
REMARK  status: ('A' for Active; 'I' for Inactive)
REMARK    1  A    between atoms: C11_16  and  C12_17 
REMARK    2  A    between atoms: C12_17  and  C13_18 
ROOT
HETATM    1  C1  UNL     1      24.357   3.141  53.292  1.00  0.00     0.053 C 
HETATM    2  C2  UNL     1      23.693   3.756  52.126  1.00  0.00    -0.025 C 
HETATM    3  S1  UNL     1      22.458   4.729  52.356  1.00  0.00    -0.150 SA
HETATM    4  C3  UNL     1      21.757   5.394  50.907  1.00  0.00     0.091 A 
HETATM    5  N1  UNL     1      20.788   4.545  50.929  1.00  0.00    -0.279 NA
HETATM    6  C4  UNL     1      19.728   4.472  49.973  1.00  0.00     0.177 A 
HETATM    7  C5  UNL     1      19.830   5.494  48.907  1.00  0.00    -0.004 A 
HETATM    8  C6  UNL     1      20.819   6.365  48.879  1.00  0.00     0.013 A 
HETATM    9  C7  UNL     1      21.865   6.386  49.880  1.00  0.00     0.017 A 
HETATM   10  C8  UNL     1      22.831   7.284  49.795  1.00  0.00     0.155 C 
HETATM   11  N2  UNL     1      23.931   7.460  50.668  1.00  0.00    -0.160 NA
HETATM   12  N3  UNL     1      24.920   6.721  50.804  1.00  0.00    -0.135 NA
HETATM   13  C9  UNL     1      25.126   5.539  50.087  1.00  0.00     0.147 C 
HETATM   14  N4  UNL     1      24.099   4.734  50.018  1.00  0.00    -0.258 NA
HETATM   15  C10 UNL     1      24.179   3.467  50.747  1.00  0.00     0.177 C 
HETATM   16  C11 UNL     1      25.570   2.978  50.702  1.00  0.00    -0.035 C 
HETATM   17  C14 UNL     1      26.448   3.541  49.892  1.00  0.00    -0.010 C 
HETATM   18  C15 UNL     1      26.235   4.906  49.350  1.00  0.00     0.109 C 
HETATM   19  H4  UNL     1      22.738   5.643  53.345  1.00  0.00     0.102 HD
ENDROOT
BRANCH  16  20
HETATM   20  C12 UNL     1      26.070   1.885  51.507  1.00  0.00    -0.000 C 
BRANCH  20  21
HETATM   21  C13 UNL     1      27.213   1.942  52.162  1.00  0.00     0.207 C 
HETATM   22 BR1  UNL     1      28.534   2.276  53.523  1.00  0.00    -0.193 Br
ENDBRANCH  20  21
ENDBRANCH  16  20
TORSDOF 2
ENDMDL
MODEL 6
REMARK VINA RESULT:      -6.2      9.027     10.331
REMARK  2 active torsions:
REMARK  status: ('A' for Active; 'I' for Inactive)
REMARK    1  A    between atoms: C11_16  and  C12_17 
REMARK    2  A    between atoms: C12_17  and  C13_18 
ROOT
HETATM    1  C1  UNL     1      31.411   9.490  48.532  1.00  0.00     0.053 C 
HETATM    2  C2  UNL     1      31.551   8.314  47.652  1.00  0.00    -0.025 C 
HETATM    3  S1  UNL     1      32.998   7.720  47.369  1.00  0.00    -0.150 SA
HETATM    4  C3  UNL     1      33.039   6.334  46.316  1.00  0.00     0.091 A 
HETATM    5  N1  UNL     1      33.396   7.050  45.307  1.00  0.00    -0.279 NA
HETATM    6  C4  UNL     1      33.641   6.560  43.987  1.00  0.00     0.177 A 
HETATM    7  C5  UNL     1      33.447   5.098  43.860  1.00  0.00    -0.004 A 
HETATM    8  C6  UNL     1      33.082   4.359  44.889  1.00  0.00     0.013 A 
HETATM    9  C7  UNL     1      32.848   4.919  46.204  1.00  0.00     0.017 A 
HETATM   10  C8  UNL     1      32.482   4.125  47.194  1.00  0.00     0.155 C 
HETATM   11  N2  UNL     1      32.209   4.481  48.537  1.00  0.00    -0.160 NA
HETATM   12  N3  UNL     1      31.235   5.119  48.971  1.00  0.00    -0.135 NA
HETATM   13  C9  UNL     1      30.199   5.615  48.175  1.00  0.00     0.147 C 
HETATM   14  N4  UNL     1      30.569   6.243  47.091  1.00  0.00    -0.258 NA
HETATM   15  C10 UNL     1      30.347   7.689  47.035  1.00  0.00     0.177 C 
HETATM   16  C11 UNL     1      29.090   8.007  47.742  1.00  0.00    -0.035 C 
HETATM   17  C14 UNL     1      28.264   7.039  48.097  1.00  0.00    -0.010 C 
HETATM   18  C15 UNL     1      28.725   5.634  48.216  1.00  0.00     0.109 C 
HETATM   19  H4  UNL     1      33.705   7.588  48.541  1.00  0.00     0.102 HD
ENDROOT
BRANCH  16  20
HETATM   20  C12 UNL     1      28.675   9.347  48.091  1.00  0.00    -0.000 C 
BRANCH  20  21
HETATM   21  C13 UNL     1      27.520   9.611  48.669  1.00  0.00     0.207 C 
HETATM   22 BR1  UNL     1      25.648   9.598  49.119  1.00  0.00    -0.193 Br
ENDBRANCH  20  21
ENDBRANCH  16  20
TORSDOF 2
ENDMDL
MODEL 7
REMARK VINA RESULT:      -6.2      3.831      6.950
REMARK  2 active torsions:
REMARK  status: ('A' for Active; 'I' for Inactive)
REMARK    1  A    between atoms: C11_16  and  C12_17 
REMARK    2  A    between atoms: C12_17  and  C13_18 
ROOT
HETATM    1  C1  UNL     1      23.590   4.133  52.574  1.00  0.00     0.053 C 
HETATM    2  C2  UNL     1      23.495   4.477  51.142  1.00  0.00    -0.025 C 
HETATM    3  S1  UNL     1      22.598   5.710  50.695  1.00  0.00    -0.150 SA
HETATM    4  C3  UNL     1      22.562   6.019  48.982  1.00  0.00     0.091 A 
HETATM    5  N1  UNL     1      21.417   5.445  48.853  1.00  0.00    -0.279 NA
HETATM    6  C4  UNL     1      20.694   5.301  47.628  1.00  0.00     0.177 A 
HETATM    7  C5  UNL     1      21.392   5.891  46.464  1.00  0.00    -0.004 A 
HETATM    8  C6  UNL     1      22.565   6.481  46.589  1.00  0.00     0.013 A 
HETATM    9  C7  UNL     1      23.246   6.593  47.862  1.00  0.00     0.017 A 
HETATM   10  C8  UNL     1      24.421   7.195  47.921  1.00  0.00     0.155 C 
HETATM   11  N2  UNL     1      25.234   7.400  49.061  1.00  0.00    -0.160 NA
HETATM   12  N3  UNL     1      25.876   6.549  49.700  1.00  0.00    -0.135 NA
HETATM   13  C9  UNL     1      25.906   5.187  49.391  1.00  0.00     0.147 C 
HETATM   14  N4  UNL     1      24.746   4.636  49.149  1.00  0.00    -0.258 NA
HETATM   15  C10 UNL     1      24.233   3.675  50.127  1.00  0.00     0.177 C 
HETATM   16  C11 UNL     1      25.368   2.914  50.687  1.00  0.00    -0.035 C 
HETATM   17  C14 UNL     1      26.563   2.997  50.132  1.00  0.00    -0.010 C 
HETATM   18  C15 UNL     1      26.932   4.136  49.255  1.00  0.00     0.109 C 
HETATM   19  H4  UNL     1      22.854   6.807  51.484  1.00  0.00     0.102 HD
ENDROOT
BRANCH  16  20
HETATM   20  C12 UNL     1      25.270   2.049  51.842  1.00  0.00    -0.000 C 
BRANCH  20  21
HETATM   21  C13 UNL     1      25.964   0.935  51.964  1.00  0.00     0.207 C 
HETATM   22 BR1  UNL     1      26.739  -0.675  52.681  1.00  0.00    -0.193 Br
ENDBRANCH  20  21
ENDBRANCH  16  20
TORSDOF 2
ENDMDL
MODEL 8
REMARK VINA RESULT:      -6.2      9.527     11.173
REMARK  2 active torsions:
REMARK  status: ('A' for Active; 'I' for Inactive)
REMARK    1  A    between atoms: C11_16  and  C12_17 
REMARK    2  A    between atoms: C12_17  and  C13_18 
ROOT
HETATM    1  C1  UNL     1      30.944   7.986  44.844  1.00  0.00     0.053 C 
HETATM    2  C2  UNL     1      31.692   7.145  45.798  1.00  0.00    -0.025 C 
HETATM    3  S1  UNL     1      33.098   6.540  45.369  1.00  0.00    -0.150 SA
HETATM    4  C3  UNL     1      33.886   5.564  46.577  1.00  0.00     0.091 A 
HETATM    5  N1  UNL     1      33.510   4.471  46.008  1.00  0.00    -0.279 NA
HETATM    6  C4  UNL     1      33.807   3.151  46.469  1.00  0.00     0.177 A 
HETATM    7  C5  UNL     1      34.620   3.133  47.706  1.00  0.00    -0.004 A 
HETATM    8  C6  UNL     1      35.009   4.248  48.293  1.00  0.00     0.013 A 
HETATM    9  C7  UNL     1      34.672   5.558  47.774  1.00  0.00     0.017 A 
HETATM   10  C8  UNL     1      35.090   6.638  48.409  1.00  0.00     0.155 C 
HETATM   11  N2  UNL     1      34.864   7.991  48.061  1.00  0.00    -0.160 NA
HETATM   12  N3  UNL     1      33.798   8.625  48.126  1.00  0.00    -0.135 NA
HETATM   13  C9  UNL     1      32.587   8.088  48.572  1.00  0.00     0.147 C 
HETATM   14  N4  UNL     1      32.267   6.923  48.075  1.00  0.00    -0.258 NA
HETATM   15  C10 UNL     1      31.133   6.866  47.151  1.00  0.00     0.177 C 
HETATM   16  C11 UNL     1      30.117   7.846  47.583  1.00  0.00    -0.035 C 
HETATM   17  C14 UNL     1      30.215   8.430  48.764  1.00  0.00    -0.010 C 
HETATM   18  C15 UNL     1      31.507   8.488  49.493  1.00  0.00     0.109 C 
HETATM   19  H4  UNL     1      33.885   7.508  44.791  1.00  0.00     0.102 HD
ENDROOT
BRANCH  16  20
HETATM   20  C12 UNL     1      28.976   8.233  46.784  1.00  0.00    -0.000 C 
BRANCH  20  21
HETATM   21  C13 UNL     1      27.734   7.952  47.125  1.00  0.00     0.207 C 
HETATM   22 BR1  UNL     1      26.201   7.232  48.040  1.00  0.00    -0.193 Br
ENDBRANCH  20  21
ENDBRANCH  16  20
TORSDOF 2
ENDMDL
MODEL 9
REMARK VINA RESULT:      -6.1      4.514      6.599
REMARK  2 active torsions:
REMARK  status: ('A' for Active; 'I' for Inactive)
REMARK    1  A    between atoms: C11_16  and  C12_17 
REMARK    2  A    between atoms: C12_17  and  C13_18 
ROOT
HETATM    1  C1  UNL     1      16.822   1.222  51.195  1.00  0.00     0.053 C 
HETATM    2  C2  UNL     1      18.239   1.418  50.834  1.00  0.00    -0.025 C 
HETATM    3  S1  UNL     1      18.658   2.697  49.987  1.00  0.00    -0.150 SA
HETATM    4  C3  UNL     1      20.356   2.822  49.623  1.00  0.00     0.091 A 
HETATM    5  N1  UNL     1      20.181   2.380  48.426  1.00  0.00    -0.279 NA
HETATM    6  C4  UNL     1      21.210   2.194  47.452  1.00  0.00     0.177 A 
HETATM    7  C5  UNL     1      22.556   2.567  47.943  1.00  0.00    -0.004 A 
HETATM    8  C6  UNL     1      22.742   3.020  49.168  1.00  0.00     0.013 A 
HETATM    9  C7  UNL     1      21.653   3.185  50.109  1.00  0.00     0.017 A 
HETATM   10  C8  UNL     1      21.905   3.642  51.322  1.00  0.00     0.155 C 
HETATM   11  N2  UNL     1      20.984   3.869  52.373  1.00  0.00    -0.160 NA
HETATM   12  N3  UNL     1      20.378   3.020  53.049  1.00  0.00    -0.135 NA
HETATM   13  C9  UNL     1      20.508   1.638  52.881  1.00  0.00     0.147 C 
HETATM   14  N4  UNL     1      20.443   1.210  51.649  1.00  0.00    -0.258 NA
HETATM   15  C10 UNL     1      19.267   0.428  51.263  1.00  0.00     0.177 C 
HETATM   16  C11 UNL     1      18.847  -0.400  52.410  1.00  0.00    -0.035 C 
HETATM   17  C14 UNL     1      19.632  -0.522  53.465  1.00  0.00    -0.010 C 
HETATM   18  C15 UNL     1      20.705   0.463  53.749  1.00  0.00     0.109 C 
HETATM   19  H4  UNL     1      18.084   3.832  50.508  1.00  0.00     0.102 HD
ENDROOT
BRANCH  16  20
HETATM   20  C12 UNL     1      17.593  -1.117  52.474  1.00  0.00    -0.000 C 
BRANCH  20  21
HETATM   21  C13 UNL     1      17.435  -2.225  53.171  1.00  0.00     0.207 C 
HETATM   22 BR1  UNL     1      17.038  -4.043  53.661  1.00  0.00    -0.193 Br
ENDBRANCH  20  21
ENDBRANCH  16  20
TORSDOF 2
ENDMDL
