MODEL 1
REMARK VINA RESULT:      -8.5      0.000      0.000
REMARK  4 active torsions:
REMARK  status: ('A' for Active; 'I' for Inactive)
REMARK    1  A    between atoms: O1_1  and  C1_2 
REMARK    2  A    between atoms: C6_8  and  C7_9 
REMARK    3  A    between atoms: N2_11  and  C8_12 
REMARK    4  A    between atoms: C10_16  and  C11_17 
ROOT
HETATM    1  C7  UNL     1      25.660   0.940  52.657  1.00  0.00     0.070 C 
HETATM    2  N1  UNL     1      25.287   2.135  52.453  1.00  0.00    -0.173 NA
HETATM    3  N2  UNL     1      23.949   2.264  52.096  1.00  0.00    -0.237 N 
HETATM    4  C10 UNL     1      23.510   0.967  51.695  1.00  0.00     0.151 C 
HETATM    5  C17 UNL     1      24.478   0.064  52.433  1.00  0.00     0.094 C 
ENDROOT
BRANCH   1   6
HETATM    6  C6  UNL     1      26.991   0.480  53.042  1.00  0.00     0.024 A 
HETATM    7  C1  UNL     1      27.847   1.357  53.691  1.00  0.00     0.081 A 
HETATM    8  C2  UNL     1      29.101   0.940  54.059  1.00  0.00     0.079 A 
HETATM    9  C3  UNL     1      29.555  -0.342  53.805  1.00  0.00     0.119 A 
HETATM   10  F1  UNL     1      30.782  -0.818  54.143  1.00  0.00    -0.206 F 
HETATM   11  C4  UNL     1      28.684  -1.194  53.160  1.00  0.00     0.043 A 
HETATM   12  C5  UNL     1      27.413  -0.790  52.780  1.00  0.00     0.019 A 
BRANCH   7  13
HETATM   13  O1  UNL     1      27.421   2.658  53.962  1.00  0.00    -0.360 OA
HETATM   14  H1  UNL     1      28.010   3.243  54.526  1.00  0.00     0.217 HD
ENDBRANCH   7  13
ENDBRANCH   1   6
BRANCH   3  15
HETATM   15  C8  UNL     1      23.253   3.502  52.156  1.00  0.00     0.183 A 
HETATM   16  N3  UNL     1      22.801   4.473  52.778  1.00  0.00    -0.255 NA
HETATM   17  C9  UNL     1      22.192   5.265  51.810  1.00  0.00     0.234 A 
HETATM   18  S1  UNL     1      22.694   4.057  50.598  1.00  0.00    -0.069 SA
ENDBRANCH   3  15
BRANCH   4  19
HETATM   19  C11 UNL     1      22.155   0.585  52.090  1.00  0.00    -0.033 A 
HETATM   20  C12 UNL     1      21.126   0.538  51.139  1.00  0.00     0.011 A 
HETATM   21  C13 UNL     1      19.832   0.187  51.446  1.00  0.00     0.024 A 
HETATM   22  C14 UNL     1      19.479  -0.143  52.736  1.00  0.00     0.034 A 
HETATM   23 CL1  UNL     1      17.856  -0.589  53.145  1.00  0.00    -0.084 Cl
HETATM   24  C15 UNL     1      20.452  -0.111  53.700  1.00  0.00     0.024 A 
HETATM   25  C16 UNL     1      21.739   0.246  53.353  1.00  0.00     0.011 A 
ENDBRANCH   4  19
TORSDOF 4
ENDMDL
MODEL 2
REMARK VINA RESULT:      -8.4      4.277      7.111
REMARK  4 active torsions:
REMARK  status: ('A' for Active; 'I' for Inactive)
REMARK    1  A    between atoms: O1_1  and  C1_2 
REMARK    2  A    between atoms: C6_8  and  C7_9 
REMARK    3  A    between atoms: N2_11  and  C8_12 
REMARK    4  A    between atoms: C10_16  and  C11_17 
ROOT
HETATM    1  C7  UNL     1      22.880   1.131  52.122  1.00  0.00     0.070 C 
HETATM    2  N1  UNL     1      23.451   2.015  51.415  1.00  0.00    -0.173 NA
HETATM    3  N2  UNL     1      24.790   2.223  51.729  1.00  0.00    -0.237 N 
HETATM    4  C10 UNL     1      24.999   1.642  53.016  1.00  0.00     0.151 C 
HETATM    5  C17 UNL     1      23.893   0.607  53.077  1.00  0.00     0.094 C 
ENDROOT
BRANCH   1   6
HETATM    6  C6  UNL     1      21.492   0.688  52.036  1.00  0.00     0.024 A 
HETATM    7  C1  UNL     1      20.850   0.710  50.806  1.00  0.00     0.081 A 
HETATM    8  C2  UNL     1      19.545   0.297  50.709  1.00  0.00     0.079 A 
HETATM    9  C3  UNL     1      18.831  -0.148  51.808  1.00  0.00     0.119 A 
HETATM   10  F1  UNL     1      17.539  -0.571  51.780  1.00  0.00    -0.206 F 
HETATM   11  C4  UNL     1      19.491  -0.161  53.017  1.00  0.00     0.043 A 
HETATM   12  C5  UNL     1      20.810   0.254  53.134  1.00  0.00     0.019 A 
BRANCH   7  13
HETATM   13  O1  UNL     1      21.543   1.154  49.679  1.00  0.00    -0.360 OA
HETATM   14  H1  UNL     1      22.153   1.945  49.779  1.00  0.00     0.217 HD
ENDBRANCH   7  13
ENDBRANCH   1   6
BRANCH   3  15
HETATM   15  C8  UNL     1      25.688   2.900  50.860  1.00  0.00     0.183 A 
HETATM   16  N3  UNL     1      26.830   3.170  50.463  1.00  0.00    -0.255 NA
HETATM   17  C9  UNL     1      26.641   4.059  49.410  1.00  0.00     0.234 A 
HETATM   18  S1  UNL     1      24.884   3.911  49.685  1.00  0.00    -0.069 SA
ENDBRANCH   3  15
BRANCH   4  19
HETATM   19  C11 UNL     1      26.269   0.950  53.221  1.00  0.00    -0.033 A 
HETATM   20  C12 UNL     1      26.439  -0.368  52.774  1.00  0.00     0.011 A 
HETATM   21  C13 UNL     1      27.609  -1.074  52.936  1.00  0.00     0.024 A 
HETATM   22  C14 UNL     1      28.695  -0.503  53.563  1.00  0.00     0.034 A 
HETATM   23 CL1  UNL     1      30.177  -1.374  53.778  1.00  0.00    -0.084 Cl
HETATM   24  C15 UNL     1      28.575   0.783  54.018  1.00  0.00     0.024 A 
HETATM   25  C16 UNL     1      27.385   1.460  53.836  1.00  0.00     0.011 A 
ENDBRANCH   4  19
TORSDOF 4
ENDMDL
MODEL 3
REMARK VINA RESULT:      -8.3      2.602      3.524
REMARK  4 active torsions:
REMARK  status: ('A' for Active; 'I' for Inactive)
REMARK    1  A    between atoms: O1_1  and  C1_2 
REMARK    2  A    between atoms: C6_8  and  C7_9 
REMARK    3  A    between atoms: N2_11  and  C8_12 
REMARK    4  A    between atoms: C10_16  and  C11_17 
ROOT
HETATM    1  C7  UNL     1      25.407   0.730  53.052  1.00  0.00     0.070 C 
HETATM    2  N1  UNL     1      24.365   0.207  53.550  1.00  0.00    -0.173 NA
HETATM    3  N2  UNL     1      23.178   0.828  53.176  1.00  0.00    -0.237 N 
HETATM    4  C10 UNL     1      23.536   2.105  52.650  1.00  0.00     0.151 C 
HETATM    5  C17 UNL     1      24.967   1.872  52.205  1.00  0.00     0.094 C 
ENDROOT
BRANCH   1   6
HETATM    6  C6  UNL     1      26.791   0.312  53.252  1.00  0.00     0.024 A 
HETATM    7  C1  UNL     1      27.701   1.218  53.779  1.00  0.00     0.081 A 
HETATM    8  C2  UNL     1      29.005   0.840  53.973  1.00  0.00     0.079 A 
HETATM    9  C3  UNL     1      29.459  -0.429  53.659  1.00  0.00     0.119 A 
HETATM   10  F1  UNL     1      30.735  -0.866  53.827  1.00  0.00    -0.206 F 
HETATM   11  C4  UNL     1      28.535  -1.309  53.138  1.00  0.00     0.043 A 
HETATM   12  C5  UNL     1      27.212  -0.945  52.934  1.00  0.00     0.019 A 
BRANCH   7  13
HETATM   13  O1  UNL     1      27.275   2.506  54.106  1.00  0.00    -0.360 OA
HETATM   14  H1  UNL     1      27.035   3.130  53.357  1.00  0.00     0.217 HD
ENDBRANCH   7  13
ENDBRANCH   1   6
BRANCH   3  15
HETATM   15  C8  UNL     1      21.905   0.214  53.335  1.00  0.00     0.183 A 
HETATM   16  N3  UNL     1      20.721   0.052  53.009  1.00  0.00    -0.255 NA
HETATM   17  C9  UNL     1      20.233  -0.900  53.898  1.00  0.00     0.234 A 
HETATM   18  S1  UNL     1      21.855  -0.946  54.639  1.00  0.00    -0.069 SA
ENDBRANCH   3  15
BRANCH   4  19
HETATM   19  C11 UNL     1      22.779   2.569  51.489  1.00  0.00    -0.033 A 
HETATM   20  C12 UNL     1      23.019   2.022  50.221  1.00  0.00     0.011 A 
HETATM   21  C13 UNL     1      22.340   2.416  49.090  1.00  0.00     0.024 A 
HETATM   22  C14 UNL     1      21.370   3.391  49.155  1.00  0.00     0.034 A 
HETATM   23 CL1  UNL     1      20.504   3.900  47.743  1.00  0.00    -0.084 Cl
HETATM   24  C15 UNL     1      21.101   3.954  50.373  1.00  0.00     0.024 A 
HETATM   25  C16 UNL     1      21.802   3.533  51.485  1.00  0.00     0.011 A 
ENDBRANCH   4  19
TORSDOF 4
ENDMDL
MODEL 4
REMARK VINA RESULT:      -8.2      4.800      6.590
REMARK  4 active torsions:
REMARK  status: ('A' for Active; 'I' for Inactive)
REMARK    1  A    between atoms: O1_1  and  C1_2 
REMARK    2  A    between atoms: C6_8  and  C7_9 
REMARK    3  A    between atoms: N2_11  and  C8_12 
REMARK    4  A    between atoms: C10_16  and  C11_17 
ROOT
HETATM    1  C7  UNL     1      23.474   2.054  51.679  1.00  0.00     0.070 C 
HETATM    2  N1  UNL     1      22.721   2.283  50.684  1.00  0.00    -0.173 NA
HETATM    3  N2  UNL     1      23.136   3.341  49.883  1.00  0.00    -0.237 N 
HETATM    4  C10 UNL     1      24.076   4.088  50.654  1.00  0.00     0.151 C 
HETATM    5  C17 UNL     1      24.583   3.045  51.631  1.00  0.00     0.094 C 
ENDROOT
BRANCH   1   6
HETATM    6  C6  UNL     1      23.309   1.021  52.697  1.00  0.00     0.024 A 
HETATM    7  C1  UNL     1      22.046   0.784  53.221  1.00  0.00     0.081 A 
HETATM    8  C2  UNL     1      21.875  -0.184  54.178  1.00  0.00     0.079 A 
HETATM    9  C3  UNL     1      22.928  -0.947  54.650  1.00  0.00     0.119 A 
HETATM   10  F1  UNL     1      22.826  -1.919  55.594  1.00  0.00    -0.206 F 
HETATM   11  C4  UNL     1      24.172  -0.692  54.112  1.00  0.00     0.043 A 
HETATM   12  C5  UNL     1      24.364   0.283  53.145  1.00  0.00     0.019 A 
BRANCH   7  13
HETATM   13  O1  UNL     1      20.963   1.537  52.766  1.00  0.00    -0.360 OA
HETATM   14  H1  UNL     1      20.643   1.388  51.826  1.00  0.00     0.217 HD
ENDBRANCH   7  13
ENDBRANCH   1   6
BRANCH   3  15
HETATM   15  C8  UNL     1      22.649   3.545  48.564  1.00  0.00     0.183 A 
HETATM   16  N3  UNL     1      22.315   4.278  47.622  1.00  0.00    -0.255 NA
HETATM   17  C9  UNL     1      21.920   3.406  46.614  1.00  0.00     0.234 A 
HETATM   18  S1  UNL     1      22.309   2.058  47.715  1.00  0.00    -0.069 SA
ENDBRANCH   3  15
BRANCH   4  19
HETATM   19  C11 UNL     1      25.231   4.624  49.936  1.00  0.00    -0.033 A 
HETATM   20  C12 UNL     1      25.270   5.975  49.564  1.00  0.00     0.011 A 
HETATM   21  C13 UNL     1      26.327   6.540  48.887  1.00  0.00     0.024 A 
HETATM   22  C14 UNL     1      27.423   5.783  48.536  1.00  0.00     0.034 A 
HETATM   23 CL1  UNL     1      28.764   6.475  47.684  1.00  0.00    -0.084 Cl
HETATM   24  C15 UNL     1      27.429   4.458  48.879  1.00  0.00     0.024 A 
HETATM   25  C16 UNL     1      26.351   3.927  49.557  1.00  0.00     0.011 A 
ENDBRANCH   4  19
TORSDOF 4
ENDMDL
MODEL 5
REMARK VINA RESULT:      -8.0      4.497      6.913
REMARK  4 active torsions:
REMARK  status: ('A' for Active; 'I' for Inactive)
REMARK    1  A    between atoms: O1_1  and  C1_2 
REMARK    2  A    between atoms: C6_8  and  C7_9 
REMARK    3  A    between atoms: N2_11  and  C8_12 
REMARK    4  A    between atoms: C10_16  and  C11_17 
ROOT
HETATM    1  C7  UNL     1      23.820   0.877  52.357  1.00  0.00     0.070 C 
HETATM    2  N1  UNL     1      24.980   0.800  52.865  1.00  0.00    -0.173 NA
HETATM    3  N2  UNL     1      25.953   1.521  52.180  1.00  0.00    -0.237 N 
HETATM    4  C10 UNL     1      25.412   1.811  50.892  1.00  0.00     0.151 C 
HETATM    5  C17 UNL     1      23.920   1.751  51.157  1.00  0.00     0.094 C 
ENDROOT
BRANCH   1   6
HETATM    6  C6  UNL     1      22.599   0.240  52.839  1.00  0.00     0.024 A 
HETATM    7  C1  UNL     1      22.671  -0.639  53.909  1.00  0.00     0.081 A 
HETATM    8  C2  UNL     1      21.532  -1.246  54.373  1.00  0.00     0.079 A 
HETATM    9  C3  UNL     1      20.291  -1.013  53.807  1.00  0.00     0.119 A 
HETATM   10  F1  UNL     1      19.126  -1.580  54.218  1.00  0.00    -0.206 F 
HETATM   11  C4  UNL     1      20.246  -0.135  52.745  1.00  0.00     0.043 A 
HETATM   12  C5  UNL     1      21.388   0.487  52.262  1.00  0.00     0.019 A 
BRANCH   7  13
HETATM   13  O1  UNL     1      23.908  -0.896  54.503  1.00  0.00    -0.360 OA
HETATM   14  H1  UNL     1      24.675  -1.154  53.908  1.00  0.00     0.217 HD
ENDBRANCH   7  13
ENDBRANCH   1   6
BRANCH   3  15
HETATM   15  C8  UNL     1      27.213   1.847  52.751  1.00  0.00     0.183 A 
HETATM   16  N3  UNL     1      28.265   2.502  52.779  1.00  0.00    -0.255 NA
HETATM   17  C9  UNL     1      28.961   2.014  53.880  1.00  0.00     0.234 A 
HETATM   18  S1  UNL     1      27.597   0.901  54.168  1.00  0.00    -0.069 SA
ENDBRANCH   3  15
BRANCH   4  19
HETATM   19  C11 UNL     1      25.713   3.130  50.339  1.00  0.00    -0.033 A 
HETATM   20  C12 UNL     1      24.924   4.238  50.677  1.00  0.00     0.011 A 
HETATM   21  C13 UNL     1      25.156   5.504  50.191  1.00  0.00     0.024 A 
HETATM   22  C14 UNL     1      26.200   5.746  49.326  1.00  0.00     0.034 A 
HETATM   23 CL1  UNL     1      26.509   7.333  48.703  1.00  0.00    -0.084 Cl
HETATM   24  C15 UNL     1      26.998   4.693  48.967  1.00  0.00     0.024 A 
HETATM   25  C16 UNL     1      26.735   3.437  49.476  1.00  0.00     0.011 A 
ENDBRANCH   4  19
TORSDOF 4
ENDMDL
MODEL 6
REMARK VINA RESULT:      -7.8      4.455      7.280
REMARK  4 active torsions:
REMARK  status: ('A' for Active; 'I' for Inactive)
REMARK    1  A    between atoms: O1_1  and  C1_2 
REMARK    2  A    between atoms: C6_8  and  C7_9 
REMARK    3  A    between atoms: N2_11  and  C8_12 
REMARK    4  A    between atoms: C10_16  and  C11_17 
ROOT
HETATM    1  C7  UNL     1      23.445   3.239  51.751  1.00  0.00     0.070 C 
HETATM    2  N1  UNL     1      22.789   2.349  52.371  1.00  0.00    -0.173 NA
HETATM    3  N2  UNL     1      23.495   1.172  52.599  1.00  0.00    -0.237 N 
HETATM    4  C10 UNL     1      24.618   1.196  51.720  1.00  0.00     0.151 C 
HETATM    5  C17 UNL     1      24.798   2.683  51.479  1.00  0.00     0.094 C 
ENDROOT
BRANCH   1   6
HETATM    6  C6  UNL     1      22.987   4.570  51.365  1.00  0.00     0.024 A 
HETATM    7  C1  UNL     1      21.686   4.732  50.913  1.00  0.00     0.081 A 
HETATM    8  C2  UNL     1      21.240   5.977  50.546  1.00  0.00     0.079 A 
HETATM    9  C3  UNL     1      22.050   7.097  50.610  1.00  0.00     0.119 A 
HETATM   10  F1  UNL     1      21.671   8.355  50.263  1.00  0.00    -0.206 F 
HETATM   11  C4  UNL     1      23.338   6.909  51.064  1.00  0.00     0.043 A 
HETATM   12  C5  UNL     1      23.806   5.658  51.438  1.00  0.00     0.019 A 
BRANCH   7  13
HETATM   13  O1  UNL     1      20.843   3.622  50.836  1.00  0.00    -0.360 OA
HETATM   14  H1  UNL     1      20.125   3.620  50.135  1.00  0.00     0.217 HD
ENDBRANCH   7  13
ENDBRANCH   1   6
BRANCH   3  15
HETATM   15  C8  UNL     1      23.082   0.200  53.550  1.00  0.00     0.183 A 
HETATM   16  N3  UNL     1      23.314  -0.738  54.326  1.00  0.00    -0.255 NA
HETATM   17  C9  UNL     1      22.080  -1.054  54.883  1.00  0.00     0.234 A 
HETATM   18  S1  UNL     1      21.372   0.255  53.899  1.00  0.00    -0.069 SA
ENDBRANCH   3  15
BRANCH   4  19
HETATM   19  C11 UNL     1      25.876   0.676  52.252  1.00  0.00    -0.033 A 
HETATM   20  C12 UNL     1      26.828   1.546  52.800  1.00  0.00     0.011 A 
HETATM   21  C13 UNL     1      28.030   1.119  53.317  1.00  0.00     0.024 A 
HETATM   22  C14 UNL     1      28.360  -0.218  53.319  1.00  0.00     0.034 A 
HETATM   23 CL1  UNL     1      29.868  -0.776  53.965  1.00  0.00    -0.084 Cl
HETATM   24  C15 UNL     1      27.460  -1.106  52.793  1.00  0.00     0.024 A 
HETATM   25  C16 UNL     1      26.265  -0.640  52.284  1.00  0.00     0.011 A 
ENDBRANCH   4  19
TORSDOF 4
ENDMDL
MODEL 7
REMARK VINA RESULT:      -7.8      2.360      2.774
REMARK  4 active torsions:
REMARK  status: ('A' for Active; 'I' for Inactive)
REMARK    1  A    between atoms: O1_1  and  C1_2 
REMARK    2  A    between atoms: C6_8  and  C7_9 
REMARK    3  A    between atoms: N2_11  and  C8_12 
REMARK    4  A    between atoms: C10_16  and  C11_17 
ROOT
HETATM    1  C7  UNL     1      26.150   1.870  51.754  1.00  0.00     0.070 C 
HETATM    2  N1  UNL     1      26.335   3.026  51.267  1.00  0.00    -0.173 NA
HETATM    3  N2  UNL     1      25.203   3.592  50.690  1.00  0.00    -0.237 N 
HETATM    4  C10 UNL     1      24.276   2.526  50.486  1.00  0.00     0.151 C 
HETATM    5  C17 UNL     1      24.723   1.517  51.525  1.00  0.00     0.094 C 
ENDROOT
BRANCH   1   6
HETATM    6  C6  UNL     1      27.133   1.022  52.421  1.00  0.00     0.024 A 
HETATM    7  C1  UNL     1      28.219   1.613  53.051  1.00  0.00     0.081 A 
HETATM    8  C2  UNL     1      29.152   0.830  53.682  1.00  0.00     0.079 A 
HETATM    9  C3  UNL     1      29.052  -0.550  53.716  1.00  0.00     0.119 A 
HETATM   10  F1  UNL     1      29.939  -1.382  54.324  1.00  0.00    -0.206 F 
HETATM   11  C4  UNL     1      27.964  -1.112  53.084  1.00  0.00     0.043 A 
HETATM   12  C5  UNL     1      27.012  -0.336  52.440  1.00  0.00     0.019 A 
BRANCH   7  13
HETATM   13  O1  UNL     1      28.348   3.003  53.034  1.00  0.00    -0.360 OA
HETATM   14  H1  UNL     1      28.311   3.472  52.147  1.00  0.00     0.217 HD
ENDBRANCH   7  13
ENDBRANCH   1   6
BRANCH   3  15
HETATM   15  C8  UNL     1      25.098   4.980  50.400  1.00  0.00     0.183 A 
HETATM   16  N3  UNL     1      24.618   6.105  50.598  1.00  0.00    -0.255 NA
HETATM   17  C9  UNL     1      25.247   6.929  49.671  1.00  0.00     0.234 A 
HETATM   18  S1  UNL     1      26.152   5.498  49.109  1.00  0.00    -0.069 SA
ENDBRANCH   3  15
BRANCH   4  19
HETATM   19  C11 UNL     1      22.868   2.828  50.734  1.00  0.00    -0.033 A 
HETATM   20  C12 UNL     1      22.358   2.809  52.040  1.00  0.00     0.011 A 
HETATM   21  C13 UNL     1      21.044   3.084  52.340  1.00  0.00     0.024 A 
HETATM   22  C14 UNL     1      20.145   3.397  51.344  1.00  0.00     0.034 A 
HETATM   23 CL1  UNL     1      18.486   3.746  51.700  1.00  0.00    -0.084 Cl
HETATM   24  C15 UNL     1      20.598   3.427  50.052  1.00  0.00     0.024 A 
HETATM   25  C16 UNL     1      21.924   3.146  49.790  1.00  0.00     0.011 A 
ENDBRANCH   4  19
TORSDOF 4
ENDMDL
MODEL 8
REMARK VINA RESULT:      -7.6      4.040      5.451
REMARK  4 active torsions:
REMARK  status: ('A' for Active; 'I' for Inactive)
REMARK    1  A    between atoms: O1_1  and  C1_2 
REMARK    2  A    between atoms: C6_8  and  C7_9 
REMARK    3  A    between atoms: N2_11  and  C8_12 
REMARK    4  A    between atoms: C10_16  and  C11_17 
ROOT
HETATM    1  C7  UNL     1      24.103   4.625  50.322  1.00  0.00     0.070 C 
HETATM    2  N1  UNL     1      22.843   4.760  50.352  1.00  0.00    -0.173 NA
HETATM    3  N2  UNL     1      22.155   3.624  50.767  1.00  0.00    -0.237 N 
HETATM    4  C10 UNL     1      23.071   2.534  50.660  1.00  0.00     0.151 C 
HETATM    5  C17 UNL     1      24.410   3.237  50.763  1.00  0.00     0.094 C 
ENDROOT
BRANCH   1   6
HETATM    6  C6  UNL     1      25.093   5.625  49.933  1.00  0.00     0.024 A 
HETATM    7  C1  UNL     1      25.114   6.846  50.593  1.00  0.00     0.081 A 
HETATM    8  C2  UNL     1      26.038   7.797  50.239  1.00  0.00     0.079 A 
HETATM    9  C3  UNL     1      26.965   7.584  49.234  1.00  0.00     0.119 A 
HETATM   10  F1  UNL     1      27.904   8.482  48.836  1.00  0.00    -0.206 F 
HETATM   11  C4  UNL     1      26.922   6.364  48.595  1.00  0.00     0.043 A 
HETATM   12  C5  UNL     1      25.995   5.391  48.939  1.00  0.00     0.019 A 
BRANCH   7  13
HETATM   13  O1  UNL     1      24.192   7.091  51.611  1.00  0.00    -0.360 OA
HETATM   14  H1  UNL     1      24.088   6.401  52.332  1.00  0.00     0.217 HD
ENDBRANCH   7  13
ENDBRANCH   1   6
BRANCH   3  15
HETATM   15  C8  UNL     1      20.800   3.658  51.194  1.00  0.00     0.183 A 
HETATM   16  N3  UNL     1      19.931   3.811  52.063  1.00  0.00    -0.255 NA
HETATM   17  C9  UNL     1      18.724   3.612  51.401  1.00  0.00     0.234 A 
HETATM   18  S1  UNL     1      19.662   3.333  49.909  1.00  0.00    -0.069 SA
ENDBRANCH   3  15
BRANCH   4  19
HETATM   19  C11 UNL     1      23.014   1.527  51.718  1.00  0.00    -0.033 A 
HETATM   20  C12 UNL     1      21.946   0.621  51.777  1.00  0.00     0.011 A 
HETATM   21  C13 UNL     1      21.835  -0.350  52.746  1.00  0.00     0.024 A 
HETATM   22  C14 UNL     1      22.792  -0.478  53.727  1.00  0.00     0.034 A 
HETATM   23 CL1  UNL     1      22.671  -1.693  54.956  1.00  0.00    -0.084 Cl
HETATM   24  C15 UNL     1      23.854   0.386  53.710  1.00  0.00     0.024 A 
HETATM   25  C16 UNL     1      23.932   1.347  52.722  1.00  0.00     0.011 A 
ENDBRANCH   4  19
TORSDOF 4
ENDMDL
MODEL 9
REMARK VINA RESULT:      -7.4      4.658      7.606
REMARK  4 active torsions:
REMARK  status: ('A' for Active; 'I' for Inactive)
REMARK    1  A    between atoms: O1_1  and  C1_2 
REMARK    2  A    between atoms: C6_8  and  C7_9 
REMARK    3  A    between atoms: N2_11  and  C8_12 
REMARK    4  A    between atoms: C10_16  and  C11_17 
ROOT
HETATM    1  C7  UNL     1      21.098   0.540  52.005  1.00  0.00     0.070 C 
HETATM    2  N1  UNL     1      22.155   0.141  52.581  1.00  0.00    -0.173 NA
HETATM    3  N2  UNL     1      23.297   0.860  52.245  1.00  0.00    -0.237 N 
HETATM    4  C10 UNL     1      22.985   1.582  51.054  1.00  0.00     0.151 C 
HETATM    5  C17 UNL     1      21.475   1.688  51.136  1.00  0.00     0.094 C 
ENDROOT
BRANCH   1   6
HETATM    6  C6  UNL     1      19.751  -0.003  52.148  1.00  0.00     0.024 A 
HETATM    7  C1  UNL     1      19.413  -0.673  53.315  1.00  0.00     0.081 A 
HETATM    8  C2  UNL     1      18.151  -1.190  53.465  1.00  0.00     0.079 A 
HETATM    9  C3  UNL     1      17.185  -1.068  52.482  1.00  0.00     0.119 A 
HETATM   10  F1  UNL     1      15.919  -1.555  52.568  1.00  0.00    -0.206 F 
HETATM   11  C4  UNL     1      17.546  -0.398  51.333  1.00  0.00     0.043 A 
HETATM   12  C5  UNL     1      18.817   0.131  51.164  1.00  0.00     0.019 A 
BRANCH   7  13
HETATM   13  O1  UNL     1      20.366  -0.813  54.326  1.00  0.00    -0.360 OA
HETATM   14  H1  UNL     1      20.168  -1.446  55.080  1.00  0.00     0.217 HD
ENDBRANCH   7  13
ENDBRANCH   1   6
BRANCH   3  15
HETATM   15  C8  UNL     1      24.493   0.809  53.012  1.00  0.00     0.183 A 
HETATM   16  N3  UNL     1      25.581   1.278  53.374  1.00  0.00    -0.255 NA
HETATM   17  C9  UNL     1      26.083   0.355  54.284  1.00  0.00     0.234 A 
HETATM   18  S1  UNL     1      24.607  -0.612  54.020  1.00  0.00    -0.069 SA
ENDBRANCH   3  15
BRANCH   4  19
HETATM   19  C11 UNL     1      23.522   2.938  50.952  1.00  0.00    -0.033 A 
HETATM   20  C12 UNL     1      24.525   3.234  50.018  1.00  0.00     0.011 A 
HETATM   21  C13 UNL     1      25.071   4.489  49.873  1.00  0.00     0.024 A 
HETATM   22  C14 UNL     1      24.647   5.537  50.659  1.00  0.00     0.034 A 
HETATM   23 CL1  UNL     1      25.321   7.124  50.492  1.00  0.00    -0.084 Cl
HETATM   24  C15 UNL     1      23.668   5.294  51.585  1.00  0.00     0.024 A 
HETATM   25  C16 UNL     1      23.144   4.023  51.702  1.00  0.00     0.011 A 
ENDBRANCH   4  19
TORSDOF 4
ENDMDL
