MODEL 1
REMARK VINA RESULT:      -7.5      0.000      0.000
REMARK  4 active torsions:
REMARK  status: ('A' for Active; 'I' for Inactive)
REMARK    1  A    between atoms: C2_2  and  C3_3 
REMARK    2  A    between atoms: C3_3  and  N1_4 
REMARK       I    between atoms: N1_4  and  C4_5 
REMARK    3  A    between atoms: C9_13  and  N4_14 
REMARK    4  A    between atoms: N4_14  and  C10_15 
ROOT
HETATM    1  C3  UNL     1      23.233   0.968  52.240  1.00  0.00     0.023 C 
HETATM    2  C6  UNL     1      24.292   1.626  51.865  1.00  0.00     0.030 A 
HETATM    3  C7  UNL     1      24.335   2.896  51.134  1.00  0.00     0.194 A 
HETATM    4  N2  UNL     1      25.652   3.330  50.857  1.00  0.00    -0.278 NA
HETATM    5  C8  UNL     1      26.790   2.842  51.035  1.00  0.00     0.229 A 
HETATM    6  N3  UNL     1      26.778   1.577  51.660  1.00  0.00    -0.224 NA
HETATM    7  C9  UNL     1      25.640   1.075  52.001  1.00  0.00     0.139 A 
ENDROOT
BRANCH   7   8
HETATM    8  N4  UNL     1      25.914  -0.267  52.424  1.00  0.00    -0.342 N 
HETATM    9  H13 UNL     1      25.045  -0.912  52.422  1.00  0.00     0.167 HD
BRANCH   8  10
HETATM   10  C10 UNL     1      27.182  -0.786  52.813  1.00  0.00     0.036 A 
HETATM   11  C11 UNL     1      27.200  -2.078  52.550  1.00  0.00     0.030 A 
HETATM   12  C12 UNL     1      28.521  -2.597  52.958  1.00  0.00     0.042 A 
HETATM   13  C13 UNL     1      29.275  -1.610  53.460  1.00  0.00     0.118 A 
HETATM   14  F1  UNL     1      30.523  -1.442  53.984  1.00  0.00    -0.209 F 
HETATM   15  C14 UNL     1      28.472  -0.350  53.413  1.00  0.00     0.194 A 
HETATM   16 CL1  UNL     1      28.232   0.311  55.046  1.00  0.00    -0.111 Cl
ENDBRANCH   8  10
ENDBRANCH   7   8
BRANCH   1  17
HETATM   17  C2  UNL     1      21.819   1.286  52.015  1.00  0.00     0.053 C 
HETATM   18  C1  UNL     1      20.939   0.282  51.397  1.00  0.00     0.011 C 
ENDBRANCH   1  17
BRANCH   1  19
HETATM   19  N1  UNL     1      22.950   0.013  53.249  1.00  0.00    -0.330 N 
HETATM   20  C4  UNL     1      23.316  -0.792  54.336  1.00  0.00     0.217 C 
HETATM   21  C5  UNL     1      22.674  -1.791  55.200  1.00  0.00     0.117 C 
HETATM   22  O1  UNL     1      24.477  -0.737  54.788  1.00  0.00    -0.274 OA
HETATM   23  H6  UNL     1      21.967  -0.438  53.306  1.00  0.00     0.168 HD
ENDBRANCH   1  19
TORSDOF 4
ENDMDL
MODEL 2
REMARK VINA RESULT:      -7.3      2.359      4.347
REMARK  4 active torsions:
REMARK  status: ('A' for Active; 'I' for Inactive)
REMARK    1  A    between atoms: C2_2  and  C3_3 
REMARK    2  A    between atoms: C3_3  and  N1_4 
REMARK       I    between atoms: N1_4  and  C4_5 
REMARK    3  A    between atoms: C9_13  and  N4_14 
REMARK    4  A    between atoms: N4_14  and  C10_15 
ROOT
HETATM    1  C3  UNL     1      23.419   2.279  50.700  1.00  0.00     0.023 C 
HETATM    2  C6  UNL     1      23.097   1.327  51.529  1.00  0.00     0.030 A 
HETATM    3  C7  UNL     1      21.831   0.590  51.585  1.00  0.00     0.194 A 
HETATM    4  N2  UNL     1      21.796  -0.367  52.626  1.00  0.00    -0.278 NA
HETATM    5  C8  UNL     1      22.573  -0.681  53.554  1.00  0.00     0.229 A 
HETATM    6  N3  UNL     1      23.766   0.072  53.578  1.00  0.00    -0.224 NA
HETATM    7  C9  UNL     1      23.947   0.960  52.662  1.00  0.00     0.139 A 
ENDROOT
BRANCH   7   8
HETATM    8  N4  UNL     1      25.123   1.684  53.043  1.00  0.00    -0.342 N 
HETATM    9  H13 UNL     1      24.963   2.748  53.161  1.00  0.00     0.167 HD
BRANCH   8  10
HETATM   10  C10 UNL     1      26.415   1.131  53.279  1.00  0.00     0.036 A 
HETATM   11  C11 UNL     1      27.311   2.085  53.124  1.00  0.00     0.030 A 
HETATM   12  C12 UNL     1      28.641   1.494  53.373  1.00  0.00     0.042 A 
HETATM   13  C13 UNL     1      28.523   0.194  53.675  1.00  0.00     0.118 A 
HETATM   14  F1  UNL     1      29.329  -0.859  53.992  1.00  0.00    -0.209 F 
HETATM   15  C14 UNL     1      27.070  -0.156  53.637  1.00  0.00     0.194 A 
HETATM   16 CL1  UNL     1      26.750  -1.404  52.411  1.00  0.00    -0.111 Cl
ENDBRANCH   8  10
ENDBRANCH   7   8
BRANCH   1  17
HETATM   17  C2  UNL     1      22.615   2.890  49.637  1.00  0.00     0.053 C 
HETATM   18  C1  UNL     1      22.612   2.291  48.294  1.00  0.00     0.011 C 
ENDBRANCH   1  17
BRANCH   1  19
HETATM   19  N1  UNL     1      24.638   2.812  50.208  1.00  0.00    -0.330 N 
HETATM   20  C4  UNL     1      25.538   3.864  49.996  1.00  0.00     0.217 C 
HETATM   21  C5  UNL     1      26.839   4.051  49.343  1.00  0.00     0.117 C 
HETATM   22  O1  UNL     1      25.278   5.002  50.433  1.00  0.00    -0.274 OA
HETATM   23  H6  UNL     1      25.321   2.177  49.657  1.00  0.00     0.168 HD
ENDBRANCH   1  19
TORSDOF 4
ENDMDL
MODEL 3
REMARK VINA RESULT:      -7.3      2.487      4.647
REMARK  4 active torsions:
REMARK  status: ('A' for Active; 'I' for Inactive)
REMARK    1  A    between atoms: C2_2  and  C3_3 
REMARK    2  A    between atoms: C3_3  and  N1_4 
REMARK       I    between atoms: N1_4  and  C4_5 
REMARK    3  A    between atoms: C9_13  and  N4_14 
REMARK    4  A    between atoms: N4_14  and  C10_15 
ROOT
HETATM    1  C3  UNL     1      24.228   4.152  51.482  1.00  0.00     0.023 C 
HETATM    2  C6  UNL     1      23.632   3.052  51.843  1.00  0.00     0.030 A 
HETATM    3  C7  UNL     1      22.279   2.914  52.389  1.00  0.00     0.194 A 
HETATM    4  N2  UNL     1      21.945   1.576  52.704  1.00  0.00    -0.278 NA
HETATM    5  C8  UNL     1      22.566   0.491  52.687  1.00  0.00     0.229 A 
HETATM    6  N3  UNL     1      23.902   0.605  52.247  1.00  0.00    -0.224 NA
HETATM    7  C9  UNL     1      24.331   1.768  51.892  1.00  0.00     0.139 A 
ENDROOT
BRANCH   7   8
HETATM    8  N4  UNL     1      25.742   1.619  51.684  1.00  0.00    -0.342 N 
HETATM    9  H13 UNL     1      26.052   1.781  50.660  1.00  0.00     0.167 HD
BRANCH   8  10
HETATM   10  C10 UNL     1      26.712   1.306  52.679  1.00  0.00     0.036 A 
HETATM   11  C11 UNL     1      27.610   2.271  52.701  1.00  0.00     0.030 A 
HETATM   12  C12 UNL     1      28.606   1.929  53.737  1.00  0.00     0.042 A 
HETATM   13  C13 UNL     1      28.291   0.765  54.320  1.00  0.00     0.118 A 
HETATM   14  F1  UNL     1      28.778  -0.055  55.295  1.00  0.00    -0.209 F 
HETATM   15  C14 UNL     1      27.037   0.257  53.684  1.00  0.00     0.194 A 
HETATM   16 CL1  UNL     1      27.314  -1.317  52.904  1.00  0.00    -0.111 Cl
ENDBRANCH   8  10
ENDBRANCH   7   8
BRANCH   1  17
HETATM   17  C2  UNL     1      23.739   5.533  51.549  1.00  0.00     0.053 C 
HETATM   18  C1  UNL     1      23.132   6.146  50.357  1.00  0.00     0.011 C 
ENDBRANCH   1  17
BRANCH   1  19
HETATM   19  N1  UNL     1      25.289   4.475  50.598  1.00  0.00    -0.330 N 
HETATM   20  C4  UNL     1      26.281   4.134  49.669  1.00  0.00     0.217 C 
HETATM   21  C5  UNL     1      27.326   4.828  48.907  1.00  0.00     0.117 C 
HETATM   22  O1  UNL     1      26.414   2.948  49.310  1.00  0.00    -0.274 OA
HETATM   23  H6  UNL     1      25.639   5.498  50.526  1.00  0.00     0.168 HD
ENDBRANCH   1  19
TORSDOF 4
ENDMDL
MODEL 4
REMARK VINA RESULT:      -7.3      3.240      6.271
REMARK  4 active torsions:
REMARK  status: ('A' for Active; 'I' for Inactive)
REMARK    1  A    between atoms: C2_2  and  C3_3 
REMARK    2  A    between atoms: C3_3  and  N1_4 
REMARK       I    between atoms: N1_4  and  C4_5 
REMARK    3  A    between atoms: C9_13  and  N4_14 
REMARK    4  A    between atoms: N4_14  and  C10_15 
ROOT
HETATM    1  C3  UNL     1      25.298  -0.133  52.867  1.00  0.00     0.023 C 
HETATM    2  C6  UNL     1      24.236  -0.340  53.592  1.00  0.00     0.030 A 
HETATM    3  C7  UNL     1      24.146  -1.117  54.832  1.00  0.00     0.194 A 
HETATM    4  N2  UNL     1      22.834  -1.166  55.358  1.00  0.00    -0.278 NA
HETATM    5  C8  UNL     1      21.719  -0.755  54.969  1.00  0.00     0.229 A 
HETATM    6  N3  UNL     1      21.760  -0.076  53.732  1.00  0.00    -0.224 NA
HETATM    7  C9  UNL     1      22.903   0.073  53.155  1.00  0.00     0.139 A 
ENDROOT
BRANCH   7   8
HETATM    8  N4  UNL     1      22.620   0.611  51.858  1.00  0.00    -0.342 N 
HETATM    9  H13 UNL     1      22.340  -0.136  51.126  1.00  0.00     0.167 HD
BRANCH   8  10
HETATM   10  C10 UNL     1      22.665   1.986  51.487  1.00  0.00     0.036 A 
HETATM   11  C11 UNL     1      22.773   2.059  50.175  1.00  0.00     0.030 A 
HETATM   12  C12 UNL     1      22.817   3.489  49.810  1.00  0.00     0.042 A 
HETATM   13  C13 UNL     1      22.734   4.253  50.908  1.00  0.00     0.118 A 
HETATM   14  F1  UNL     1      22.721   5.577  51.234  1.00  0.00    -0.209 F 
HETATM   15  C14 UNL     1      22.632   3.345  52.091  1.00  0.00     0.194 A 
HETATM   16 CL1  UNL     1      24.001   3.590  53.199  1.00  0.00    -0.111 Cl
ENDBRANCH   8  10
ENDBRANCH   7   8
BRANCH   1  17
HETATM   17  C2  UNL     1      26.663  -0.634  53.063  1.00  0.00     0.053 C 
HETATM   18  C1  UNL     1      27.031  -1.960  52.541  1.00  0.00     0.011 C 
ENDBRANCH   1  17
BRANCH   1  19
HETATM   19  N1  UNL     1      25.699   0.855  51.932  1.00  0.00    -0.330 N 
HETATM   20  C4  UNL     1      26.525   1.904  51.511  1.00  0.00     0.217 C 
HETATM   21  C5  UNL     1      26.617   2.804  50.354  1.00  0.00     0.117 C 
HETATM   22  O1  UNL     1      27.479   2.270  52.226  1.00  0.00    -0.274 OA
HETATM   23  H6  UNL     1      25.129   1.000  51.023  1.00  0.00     0.168 HD
ENDBRANCH   1  19
TORSDOF 4
ENDMDL
MODEL 5
REMARK VINA RESULT:      -7.2      3.193      5.366
REMARK  4 active torsions:
REMARK  status: ('A' for Active; 'I' for Inactive)
REMARK    1  A    between atoms: C2_2  and  C3_3 
REMARK    2  A    between atoms: C3_3  and  N1_4 
REMARK       I    between atoms: N1_4  and  C4_5 
REMARK    3  A    between atoms: C9_13  and  N4_14 
REMARK    4  A    between atoms: N4_14  and  C10_15 
ROOT
HETATM    1  C3  UNL     1      25.119   3.452  50.511  1.00  0.00     0.023 C 
HETATM    2  C6  UNL     1      24.065   2.840  50.052  1.00  0.00     0.030 A 
HETATM    3  C7  UNL     1      23.377   3.087  48.781  1.00  0.00     0.194 A 
HETATM    4  N2  UNL     1      22.243   2.263  48.599  1.00  0.00    -0.278 NA
HETATM    5  C8  UNL     1      21.651   1.417  49.305  1.00  0.00     0.229 A 
HETATM    6  N3  UNL     1      22.241   1.219  50.572  1.00  0.00    -0.224 NA
HETATM    7  C9  UNL     1      23.308   1.884  50.860  1.00  0.00     0.139 A 
ENDROOT
BRANCH   7   8
HETATM    8  N4  UNL     1      23.564   1.633  52.247  1.00  0.00    -0.342 N 
HETATM    9  H13 UNL     1      24.270   2.322  52.693  1.00  0.00     0.167 HD
BRANCH   8  10
HETATM   10  C10 UNL     1      22.977   0.606  53.041  1.00  0.00     0.036 A 
HETATM   11  C11 UNL     1      21.814   1.039  53.486  1.00  0.00     0.030 A 
HETATM   12  C12 UNL     1      21.221  -0.038  54.305  1.00  0.00     0.042 A 
HETATM   13  C13 UNL     1      22.037  -1.101  54.338  1.00  0.00     0.118 A 
HETATM   14  F1  UNL     1      22.069  -2.347  54.890  1.00  0.00    -0.209 F 
HETATM   15  C14 UNL     1      23.248  -0.775  53.525  1.00  0.00     0.194 A 
HETATM   16 CL1  UNL     1      24.718  -0.830  54.525  1.00  0.00    -0.111 Cl
ENDBRANCH   8  10
ENDBRANCH   7   8
BRANCH   1  17
HETATM   17  C2  UNL     1      25.879   4.557  49.915  1.00  0.00     0.053 C 
HETATM   18  C1  UNL     1      27.065   4.263  49.096  1.00  0.00     0.011 C 
ENDBRANCH   1  17
BRANCH   1  19
HETATM   19  N1  UNL     1      26.141   3.131  51.439  1.00  0.00    -0.330 N 
HETATM   20  C4  UNL     1      26.898   2.222  52.190  1.00  0.00     0.217 C 
HETATM   21  C5  UNL     1      27.979   2.282  53.182  1.00  0.00     0.117 C 
HETATM   22  O1  UNL     1      26.693   0.998  52.074  1.00  0.00    -0.274 OA
HETATM   23  H6  UNL     1      26.697   3.924  51.925  1.00  0.00     0.168 HD
ENDBRANCH   1  19
TORSDOF 4
ENDMDL
MODEL 6
REMARK VINA RESULT:      -7.1      1.824      2.242
REMARK  4 active torsions:
REMARK  status: ('A' for Active; 'I' for Inactive)
REMARK    1  A    between atoms: C2_2  and  C3_3 
REMARK    2  A    between atoms: C3_3  and  N1_4 
REMARK       I    between atoms: N1_4  and  C4_5 
REMARK    3  A    between atoms: C9_13  and  N4_14 
REMARK    4  A    between atoms: N4_14  and  C10_15 
ROOT
HETATM    1  C3  UNL     1      22.438   1.319  51.047  1.00  0.00     0.023 C 
HETATM    2  C6  UNL     1      23.236   2.247  50.601  1.00  0.00     0.030 A 
HETATM    3  C7  UNL     1      23.238   2.847  49.263  1.00  0.00     0.194 A 
HETATM    4  N2  UNL     1      24.256   3.814  49.094  1.00  0.00    -0.278 NA
HETATM    5  C8  UNL     1      25.199   4.226  49.804  1.00  0.00     0.229 A 
HETATM    6  N3  UNL     1      25.276   3.604  51.069  1.00  0.00    -0.224 NA
HETATM    7  C9  UNL     1      24.385   2.723  51.371  1.00  0.00     0.139 A 
ENDROOT
BRANCH   7   8
HETATM    8  N4  UNL     1      24.816   2.135  52.605  1.00  0.00    -0.342 N 
HETATM    9  H13 UNL     1      24.212   2.415  53.458  1.00  0.00     0.167 HD
BRANCH   8  10
HETATM   10  C10 UNL     1      25.915   1.244  52.775  1.00  0.00     0.036 A 
HETATM   11  C11 UNL     1      25.453   0.099  53.238  1.00  0.00     0.030 A 
HETATM   12  C12 UNL     1      26.604  -0.810  53.408  1.00  0.00     0.042 A 
HETATM   13  C13 UNL     1      27.739  -0.198  53.044  1.00  0.00     0.118 A 
HETATM   14  F1  UNL     1      29.072  -0.476  52.968  1.00  0.00    -0.209 F 
HETATM   15  C14 UNL     1      27.392   1.189  52.605  1.00  0.00     0.194 A 
HETATM   16 CL1  UNL     1      28.203   2.399  53.625  1.00  0.00    -0.111 Cl
ENDBRANCH   8  10
ENDBRANCH   7   8
BRANCH   1  17
HETATM   17  C2  UNL     1      21.366   0.606  50.346  1.00  0.00     0.053 C 
HETATM   18  C1  UNL     1      20.008   1.171  50.330  1.00  0.00     0.011 C 
ENDBRANCH   1  17
BRANCH   1  19
HETATM   19  N1  UNL     1      21.994   0.909  52.330  1.00  0.00    -0.330 N 
HETATM   20  C4  UNL     1      21.818  -0.049  53.337  1.00  0.00     0.217 C 
HETATM   21  C5  UNL     1      21.215  -0.107  54.674  1.00  0.00     0.117 C 
HETATM   22  O1  UNL     1      22.247  -1.208  53.173  1.00  0.00    -0.274 OA
HETATM   23  H6  UNL     1      21.468   1.609  52.968  1.00  0.00     0.168 HD
ENDBRANCH   1  19
TORSDOF 4
ENDMDL
MODEL 7
REMARK VINA RESULT:      -7.1      3.616      5.599
REMARK  4 active torsions:
REMARK  status: ('A' for Active; 'I' for Inactive)
REMARK    1  A    between atoms: C2_2  and  C3_3 
REMARK    2  A    between atoms: C3_3  and  N1_4 
REMARK       I    between atoms: N1_4  and  C4_5 
REMARK    3  A    between atoms: C9_13  and  N4_14 
REMARK    4  A    between atoms: N4_14  and  C10_15 
ROOT
HETATM    1  C3  UNL     1      22.652   0.075  53.499  1.00  0.00     0.023 C 
HETATM    2  C6  UNL     1      23.930   0.101  53.249  1.00  0.00     0.030 A 
HETATM    3  C7  UNL     1      25.005  -0.481  54.058  1.00  0.00     0.194 A 
HETATM    4  N2  UNL     1      26.291  -0.249  53.516  1.00  0.00    -0.278 NA
HETATM    5  C8  UNL     1      26.726   0.398  52.539  1.00  0.00     0.229 A 
HETATM    6  N3  UNL     1      25.719   1.042  51.787  1.00  0.00    -0.224 NA
HETATM    7  C9  UNL     1      24.492   0.887  52.151  1.00  0.00     0.139 A 
ENDROOT
BRANCH   7   8
HETATM    8  N4  UNL     1      23.727   1.791  51.344  1.00  0.00    -0.342 N 
HETATM    9  H13 UNL     1      23.119   1.301  50.595  1.00  0.00     0.167 HD
BRANCH   8  10
HETATM   10  C10 UNL     1      23.700   3.210  51.462  1.00  0.00     0.036 A 
HETATM   11  C11 UNL     1      22.639   3.548  52.169  1.00  0.00     0.030 A 
HETATM   12  C12 UNL     1      22.628   5.021  52.281  1.00  0.00     0.042 A 
HETATM   13  C13 UNL     1      23.682   5.544  51.640  1.00  0.00     0.118 A 
HETATM   14  F1  UNL     1      24.216   6.773  51.384  1.00  0.00    -0.209 F 
HETATM   15  C14 UNL     1      24.467   4.417  51.050  1.00  0.00     0.194 A 
HETATM   16 CL1  UNL     1      24.545   4.557  49.279  1.00  0.00    -0.111 Cl
ENDBRANCH   8  10
ENDBRANCH   7   8
BRANCH   1  17
HETATM   17  C2  UNL     1      21.947  -0.502  54.648  1.00  0.00     0.053 C 
HETATM   18  C1  UNL     1      21.266  -1.798  54.506  1.00  0.00     0.011 C 
ENDBRANCH   1  17
BRANCH   1  19
HETATM   19  N1  UNL     1      21.474   0.185  52.717  1.00  0.00    -0.330 N 
HETATM   20  C4  UNL     1      20.801   0.309  51.495  1.00  0.00     0.217 C 
HETATM   21  C5  UNL     1      19.411   0.437  51.040  1.00  0.00     0.117 C 
HETATM   22  O1  UNL     1      21.446   0.329  50.429  1.00  0.00    -0.274 OA
HETATM   23  H6  UNL     1      20.507   0.239  53.202  1.00  0.00     0.168 HD
ENDBRANCH   1  19
TORSDOF 4
ENDMDL
MODEL 8
REMARK VINA RESULT:      -7.1      2.332      4.229
REMARK  4 active torsions:
REMARK  status: ('A' for Active; 'I' for Inactive)
REMARK    1  A    between atoms: C2_2  and  C3_3 
REMARK    2  A    between atoms: C3_3  and  N1_4 
REMARK       I    between atoms: N1_4  and  C4_5 
REMARK    3  A    between atoms: C9_13  and  N4_14 
REMARK    4  A    between atoms: N4_14  and  C10_15 
ROOT
HETATM    1  C3  UNL     1      21.422   0.831  52.430  1.00  0.00     0.023 C 
HETATM    2  C6  UNL     1      21.914   0.050  53.349  1.00  0.00     0.030 A 
HETATM    3  C7  UNL     1      21.170  -0.712  54.357  1.00  0.00     0.194 A 
HETATM    4  N2  UNL     1      22.012  -1.443  55.228  1.00  0.00    -0.278 NA
HETATM    5  C8  UNL     1      23.250  -1.534  55.377  1.00  0.00     0.229 A 
HETATM    6  N3  UNL     1      23.994  -0.743  54.476  1.00  0.00    -0.224 NA
HETATM    7  C9  UNL     1      23.352  -0.048  53.600  1.00  0.00     0.139 A 
ENDROOT
BRANCH   7   8
HETATM    8  N4  UNL     1      24.330   0.785  52.966  1.00  0.00    -0.342 N 
HETATM    9  H13 UNL     1      23.905   1.575  52.361  1.00  0.00     0.167 HD
BRANCH   8  10
HETATM   10  C10 UNL     1      25.745   0.662  53.081  1.00  0.00     0.036 A 
HETATM   11  C11 UNL     1      26.291   1.811  52.737  1.00  0.00     0.030 A 
HETATM   12  C12 UNL     1      27.755   1.664  52.863  1.00  0.00     0.042 A 
HETATM   13  C13 UNL     1      28.065   0.430  53.281  1.00  0.00     0.118 A 
HETATM   14  F1  UNL     1      29.179  -0.299  53.578  1.00  0.00    -0.209 F 
HETATM   15  C14 UNL     1      26.789  -0.329  53.456  1.00  0.00     0.194 A 
HETATM   16 CL1  UNL     1      26.744  -1.749  52.385  1.00  0.00    -0.111 Cl
ENDBRANCH   8  10
ENDBRANCH   7   8
BRANCH   1  17
HETATM   17  C2  UNL     1      20.023   1.185  52.170  1.00  0.00     0.053 C 
HETATM   18  C1  UNL     1      19.291   0.504  51.091  1.00  0.00     0.011 C 
ENDBRANCH   1  17
BRANCH   1  19
HETATM   19  N1  UNL     1      21.870   1.305  51.171  1.00  0.00    -0.330 N 
HETATM   20  C4  UNL     1      22.661   2.134  50.365  1.00  0.00     0.217 C 
HETATM   21  C5  UNL     1      22.843   2.383  48.930  1.00  0.00     0.117 C 
HETATM   22  O1  UNL     1      23.470   2.923  50.890  1.00  0.00    -0.274 OA
HETATM   23  H6  UNL     1      21.426   0.921  50.261  1.00  0.00     0.168 HD
ENDBRANCH   1  19
TORSDOF 4
ENDMDL
MODEL 9
REMARK VINA RESULT:      -7.1      3.669      6.366
REMARK  4 active torsions:
REMARK  status: ('A' for Active; 'I' for Inactive)
REMARK    1  A    between atoms: C2_2  and  C3_3 
REMARK    2  A    between atoms: C3_3  and  N1_4 
REMARK       I    between atoms: N1_4  and  C4_5 
REMARK    3  A    between atoms: C9_13  and  N4_14 
REMARK    4  A    between atoms: N4_14  and  C10_15 
ROOT
HETATM    1  C3  UNL     1      25.464   0.139  53.229  1.00  0.00     0.023 C 
HETATM    2  C6  UNL     1      24.178   0.341  53.211  1.00  0.00     0.030 A 
HETATM    3  C7  UNL     1      23.120  -0.653  53.420  1.00  0.00     0.194 A 
HETATM    4  N2  UNL     1      21.820  -0.107  53.307  1.00  0.00    -0.278 NA
HETATM    5  C8  UNL     1      21.366   1.017  53.003  1.00  0.00     0.229 A 
HETATM    6  N3  UNL     1      22.360   1.975  52.711  1.00  0.00    -0.224 NA
HETATM    7  C9  UNL     1      23.596   1.621  52.808  1.00  0.00     0.139 A 
ENDROOT
BRANCH   7   8
HETATM    8  N4  UNL     1      24.360   2.712  52.277  1.00  0.00    -0.342 N 
HETATM    9  H13 UNL     1      25.248   2.944  52.850  1.00  0.00     0.167 HD
BRANCH   8  10
HETATM   10  C10 UNL     1      24.057   3.460  51.103  1.00  0.00     0.036 A 
HETATM   11  C11 UNL     1      23.890   4.722  51.446  1.00  0.00     0.030 A 
HETATM   12  C12 UNL     1      23.579   5.481  50.218  1.00  0.00     0.042 A 
HETATM   13  C13 UNL     1      23.563   4.663  49.157  1.00  0.00     0.118 A 
HETATM   14  F1  UNL     1      23.352   4.738  47.812  1.00  0.00    -0.209 F 
HETATM   15  C14 UNL     1      23.869   3.281  49.637  1.00  0.00     0.194 A 
HETATM   16 CL1  UNL     1      22.518   2.176  49.292  1.00  0.00    -0.111 Cl
ENDBRANCH   8  10
ENDBRANCH   7   8
BRANCH   1  17
HETATM   17  C2  UNL     1      26.201  -1.114  53.426  1.00  0.00     0.053 C 
HETATM   18  C1  UNL     1      26.815  -1.784  52.270  1.00  0.00     0.011 C 
ENDBRANCH   1  17
BRANCH   1  19
HETATM   19  N1  UNL     1      26.604   0.950  53.460  1.00  0.00    -0.330 N 
HETATM   20  C4  UNL     1      27.555   1.900  53.063  1.00  0.00     0.217 C 
HETATM   21  C5  UNL     1      28.743   2.540  53.642  1.00  0.00     0.117 C 
HETATM   22  O1  UNL     1      27.482   2.417  51.931  1.00  0.00    -0.274 OA
HETATM   23  H6  UNL     1      27.140   0.874  54.398  1.00  0.00     0.168 HD
ENDBRANCH   1  19
TORSDOF 4
ENDMDL
