MODEL 1
REMARK VINA RESULT:      -8.5      0.000      0.000
REMARK  1 active torsions:
REMARK  status: ('A' for Active; 'I' for Inactive)
REMARK    1  A    between atoms: N2_12  and  C8_13 
ROOT
HETATM    1  O1  UNL     1      24.382   3.959  51.780  1.00  0.00    -0.246 OA
HETATM    2  C1  UNL     1      23.368   3.228  51.794  1.00  0.00     0.334 C 
HETATM    3  N1  UNL     1      22.272   3.943  51.911  1.00  0.00    -0.306 N 
HETATM    4  C2  UNL     1      21.068   3.404  52.153  1.00  0.00     0.098 C 
HETATM    5  C3  UNL     1      19.773   2.996  51.969  1.00  0.00     0.041 C 
HETATM    6  C4  UNL     1      19.291   2.050  51.135  1.00  0.00     0.035 C 
HETATM    7 CL1  UNL     1      17.869   1.142  51.563  1.00  0.00    -0.084 Cl
HETATM    8  C5  UNL     1      20.108   2.034  50.061  1.00  0.00     0.034 C 
HETATM    9  C6  UNL     1      21.388   1.540  49.966  1.00  0.00    -0.017 C 
HETATM   10  C7  UNL     1      22.194   1.326  51.048  1.00  0.00     0.120 C 
HETATM   11 CL2  UNL     1      21.548  -0.185  51.589  1.00  0.00    -0.063 Cl
HETATM   12  N2  UNL     1      23.215   1.895  51.714  1.00  0.00    -0.253 N 
HETATM   13  C14 UNL     1      21.697   1.279  48.552  1.00  0.00     0.045 C 
HETATM   14  C15 UNL     1      22.666   2.259  47.930  1.00  0.00     0.032 C 
HETATM   15  C16 UNL     1      22.287   3.664  48.008  1.00  0.00    -0.023 C 
HETATM   16  C17 UNL     1      21.932   4.968  47.993  1.00  0.00     0.038 C 
HETATM   17  C18 UNL     1      21.744   5.879  49.161  1.00  0.00     0.114 C 
HETATM   18  F1  UNL     1      21.385   7.125  48.670  1.00  0.00    -0.206 F 
HETATM   19  C19 UNL     1      21.801   5.911  50.514  1.00  0.00     0.035 C 
HETATM   20  C20 UNL     1      22.008   5.371  51.876  1.00  0.00     0.163 C 
ENDROOT
BRANCH  12  21
HETATM   21  C8  UNL     1      24.140   1.039  52.343  1.00  0.00     0.045 A 
HETATM   22  C9  UNL     1      25.379   0.937  51.695  1.00  0.00     0.030 A 
HETATM   23  C10 UNL     1      26.416   0.157  52.146  1.00  0.00     0.002 A 
HETATM   24  C11 UNL     1      26.189  -0.550  53.306  1.00  0.00     0.000 A 
HETATM   25  C12 UNL     1      24.985  -0.476  53.974  1.00  0.00     0.002 A 
HETATM   26  C13 UNL     1      23.946   0.321  53.500  1.00  0.00     0.030 A 
ENDBRANCH  12  21
TORSDOF 1
ENDMDL
MODEL 2
REMARK VINA RESULT:      -8.4      2.535      3.540
REMARK  1 active torsions:
REMARK  status: ('A' for Active; 'I' for Inactive)
REMARK    1  A    between atoms: N2_12  and  C8_13 
ROOT
HETATM    1  O1  UNL     1      22.494   4.935  53.043  1.00  0.00    -0.246 OA
HETATM    2  C1  UNL     1      22.247   4.425  51.929  1.00  0.00     0.334 C 
HETATM    3  N1  UNL     1      21.813   5.331  51.081  1.00  0.00    -0.306 N 
HETATM    4  C2  UNL     1      21.287   5.025  49.887  1.00  0.00     0.098 C 
HETATM    5  C3  UNL     1      21.141   4.906  48.530  1.00  0.00     0.041 C 
HETATM    6  C4  UNL     1      21.861   4.166  47.660  1.00  0.00     0.035 C 
HETATM    7 CL1  UNL     1      21.114   3.524  46.224  1.00  0.00    -0.084 Cl
HETATM    8  C5  UNL     1      23.112   4.094  48.161  1.00  0.00     0.034 C 
HETATM    9  C6  UNL     1      23.563   3.364  49.235  1.00  0.00    -0.017 C 
HETATM   10  C7  UNL     1      22.743   2.884  50.217  1.00  0.00     0.120 C 
HETATM   11 CL2  UNL     1      22.119   1.487  49.408  1.00  0.00    -0.063 Cl
HETATM   12  N2  UNL     1      22.344   3.166  51.471  1.00  0.00    -0.253 N 
HETATM   13  C14 UNL     1      25.018   3.190  49.119  1.00  0.00     0.045 C 
HETATM   14  C15 UNL     1      25.828   4.012  50.096  1.00  0.00     0.032 C 
HETATM   15  C16 UNL     1      25.591   5.450  50.068  1.00  0.00    -0.023 C 
HETATM   16  C17 UNL     1      25.452   6.793  50.017  1.00  0.00     0.038 C 
HETATM   17  C18 UNL     1      24.237   7.601  50.330  1.00  0.00     0.114 C 
HETATM   18  F1  UNL     1      24.559   8.937  50.145  1.00  0.00    -0.206 F 
HETATM   19  C19 UNL     1      22.946   7.484  50.726  1.00  0.00     0.035 C 
HETATM   20  C20 UNL     1      21.713   6.779  51.139  1.00  0.00     0.163 C 
ENDROOT
BRANCH  12  21
HETATM   21  C8  UNL     1      22.020   2.082  52.310  1.00  0.00     0.045 A 
HETATM   22  C9  UNL     1      23.110   1.285  52.685  1.00  0.00     0.030 A 
HETATM   23  C10 UNL     1      23.008   0.183  53.499  1.00  0.00     0.002 A 
HETATM   24  C11 UNL     1      21.745  -0.125  53.956  1.00  0.00     0.000 A 
HETATM   25  C12 UNL     1      20.647   0.635  53.610  1.00  0.00     0.002 A 
HETATM   26  C13 UNL     1      20.772   1.748  52.783  1.00  0.00     0.030 A 
ENDBRANCH  12  21
TORSDOF 1
ENDMDL
MODEL 3
REMARK VINA RESULT:      -8.2      1.571      2.152
REMARK  1 active torsions:
REMARK  status: ('A' for Active; 'I' for Inactive)
REMARK    1  A    between atoms: N2_12  and  C8_13 
ROOT
HETATM    1  O1  UNL     1      23.294   3.594  52.414  1.00  0.00    -0.246 OA
HETATM    2  C1  UNL     1      22.179   3.187  52.021  1.00  0.00     0.334 C 
HETATM    3  N1  UNL     1      21.389   4.193  51.719  1.00  0.00    -0.306 N 
HETATM    4  C2  UNL     1      20.081   4.047  51.467  1.00  0.00     0.098 C 
HETATM    5  C3  UNL     1      18.890   4.008  50.789  1.00  0.00     0.041 C 
HETATM    6  C4  UNL     1      18.495   3.161  49.815  1.00  0.00     0.035 C 
HETATM    7 CL1  UNL     1      16.813   2.742  49.644  1.00  0.00    -0.084 Cl
HETATM    8  C5  UNL     1      19.608   2.806  49.140  1.00  0.00     0.034 C 
HETATM    9  C6  UNL     1      20.617   1.961  49.537  1.00  0.00    -0.017 C 
HETATM   10  C7  UNL     1      20.856   1.635  50.843  1.00  0.00     0.120 C 
HETATM   11 CL2  UNL     1      19.631   0.432  51.063  1.00  0.00    -0.063 Cl
HETATM   12  N2  UNL     1      21.674   1.952  51.863  1.00  0.00    -0.253 N 
HETATM   13  C14 UNL     1      21.338   1.483  48.348  1.00  0.00     0.045 C 
HETATM   14  C15 UNL     1      22.716   2.079  48.168  1.00  0.00     0.032 C 
HETATM   15  C16 UNL     1      22.778   3.535  48.120  1.00  0.00    -0.023 C 
HETATM   16  C17 UNL     1      22.864   4.877  47.995  1.00  0.00     0.038 C 
HETATM   17  C18 UNL     1      22.538   5.915  49.016  1.00  0.00     0.114 C 
HETATM   18  F1  UNL     1      22.782   7.157  48.449  1.00  0.00    -0.206 F 
HETATM   19  C19 UNL     1      22.091   6.065  50.287  1.00  0.00     0.035 C 
HETATM   20  C20 UNL     1      21.601   5.626  51.612  1.00  0.00     0.163 C 
ENDROOT
BRANCH  12  21
HETATM   21  C8  UNL     1      21.992   0.936  52.783  1.00  0.00     0.045 A 
HETATM   22  C9  UNL     1      21.072   0.782  53.829  1.00  0.00     0.030 A 
HETATM   23  C10 UNL     1      21.199  -0.152  54.829  1.00  0.00     0.002 A 
HETATM   24  C11 UNL     1      22.307  -0.969  54.765  1.00  0.00     0.000 A 
HETATM   25  C12 UNL     1      23.235  -0.850  53.752  1.00  0.00     0.002 A 
HETATM   26  C13 UNL     1      23.088   0.104  52.748  1.00  0.00     0.030 A 
ENDBRANCH  12  21
TORSDOF 1
ENDMDL
MODEL 4
REMARK VINA RESULT:      -7.8      2.807      4.362
REMARK  1 active torsions:
REMARK  status: ('A' for Active; 'I' for Inactive)
REMARK    1  A    between atoms: N2_12  and  C8_13 
ROOT
HETATM    1  O1  UNL     1      21.442   0.690  49.440  1.00  0.00    -0.246 OA
HETATM    2  C1  UNL     1      22.123   1.638  49.885  1.00  0.00     0.334 C 
HETATM    3  N1  UNL     1      22.783   2.240  48.921  1.00  0.00    -0.306 N 
HETATM    4  C2  UNL     1      23.739   3.152  49.145  1.00  0.00     0.098 C 
HETATM    5  C3  UNL     1      24.393   4.356  49.194  1.00  0.00     0.041 C 
HETATM    6  C4  UNL     1      24.104   5.449  49.932  1.00  0.00     0.035 C 
HETATM    7 CL1  UNL     1      25.377   6.509  50.469  1.00  0.00    -0.084 Cl
HETATM    8  C5  UNL     1      22.763   5.460  50.093  1.00  0.00     0.034 C 
HETATM    9  C6  UNL     1      21.991   4.652  50.892  1.00  0.00    -0.017 C 
HETATM   10  C7  UNL     1      22.411   3.443  51.372  1.00  0.00     0.120 C 
HETATM   11 CL2  UNL     1      23.384   3.986  52.696  1.00  0.00    -0.063 Cl
HETATM   12  N2  UNL     1      22.289   2.126  51.126  1.00  0.00    -0.253 N 
HETATM   13  C14 UNL     1      20.701   5.314  51.138  1.00  0.00     0.045 C 
HETATM   14  C15 UNL     1      19.530   4.699  50.405  1.00  0.00     0.032 C 
HETATM   15  C16 UNL     1      19.666   4.604  48.956  1.00  0.00    -0.023 C 
HETATM   16  C17 UNL     1      19.725   4.570  47.607  1.00  0.00     0.038 C 
HETATM   17  C18 UNL     1      20.677   3.803  46.751  1.00  0.00     0.114 C 
HETATM   18  F1  UNL     1      20.361   4.068  45.427  1.00  0.00    -0.206 F 
HETATM   19  C19 UNL     1      21.728   2.951  46.816  1.00  0.00     0.035 C 
HETATM   20  C20 UNL     1      22.759   2.117  47.473  1.00  0.00     0.163 C 
ENDROOT
BRANCH  12  21
HETATM   21  C8  UNL     1      22.343   1.251  52.228  1.00  0.00     0.045 A 
HETATM   22  C9  UNL     1      21.155   1.161  52.965  1.00  0.00     0.030 A 
HETATM   23  C10 UNL     1      21.000   0.363  54.073  1.00  0.00     0.002 A 
HETATM   24  C11 UNL     1      22.097  -0.379  54.450  1.00  0.00     0.000 A 
HETATM   25  C12 UNL     1      23.285  -0.319  53.751  1.00  0.00     0.002 A 
HETATM   26  C13 UNL     1      23.421   0.497  52.630  1.00  0.00     0.030 A 
ENDBRANCH  12  21
TORSDOF 1
ENDMDL
MODEL 5
REMARK VINA RESULT:      -7.8     11.772     13.358
REMARK  1 active torsions:
REMARK  status: ('A' for Active; 'I' for Inactive)
REMARK    1  A    between atoms: N2_12  and  C8_13 
ROOT
HETATM    1  O1  UNL     1      32.159   8.449  44.592  1.00  0.00    -0.246 OA
HETATM    2  C1  UNL     1      32.954   7.788  45.295  1.00  0.00     0.334 C 
HETATM    3  N1  UNL     1      33.412   8.507  46.295  1.00  0.00    -0.306 N 
HETATM    4  C2  UNL     1      34.425   8.112  47.078  1.00  0.00     0.098 C 
HETATM    5  C3  UNL     1      35.116   7.679  48.180  1.00  0.00     0.041 C 
HETATM    6  C4  UNL     1      35.032   6.496  48.825  1.00  0.00     0.035 C 
HETATM    7 CL1  UNL     1      36.426   5.829  49.625  1.00  0.00    -0.084 Cl
HETATM    8  C5  UNL     1      33.758   6.071  48.680  1.00  0.00     0.034 C 
HETATM    9  C6  UNL     1      33.148   5.563  47.559  1.00  0.00    -0.017 C 
HETATM   10  C7  UNL     1      33.618   5.759  46.291  1.00  0.00     0.120 C 
HETATM   11 CL2  UNL     1      34.872   4.566  46.266  1.00  0.00    -0.063 Cl
HETATM   12  N2  UNL     1      33.400   6.523  45.206  1.00  0.00    -0.253 N 
HETATM   13  C14 UNL     1      31.965   4.789  47.966  1.00  0.00     0.045 C 
HETATM   14  C15 UNL     1      30.643   5.455  47.657  1.00  0.00     0.032 C 
HETATM   15  C16 UNL     1      30.461   6.793  48.209  1.00  0.00    -0.023 C 
HETATM   16  C17 UNL     1      30.227   8.000  48.767  1.00  0.00     0.038 C 
HETATM   17  C18 UNL     1      30.944   9.283  48.508  1.00  0.00     0.114 C 
HETATM   18  F1  UNL     1      30.361  10.260  49.300  1.00  0.00    -0.206 F 
HETATM   19  C19 UNL     1      31.955   9.818  47.780  1.00  0.00     0.035 C 
HETATM   20  C20 UNL     1      33.072   9.822  46.811  1.00  0.00     0.163 C 
ENDROOT
BRANCH  12  21
HETATM   21  C8  UNL     1      33.659   5.954  43.944  1.00  0.00     0.045 A 
HETATM   22  C9  UNL     1      34.693   6.568  43.224  1.00  0.00     0.030 A 
HETATM   23  C10 UNL     1      35.101   6.163  41.976  1.00  0.00     0.002 A 
HETATM   24  C11 UNL     1      34.434   5.088  41.433  1.00  0.00     0.000 A 
HETATM   25  C12 UNL     1      33.411   4.455  42.110  1.00  0.00     0.002 A 
HETATM   26  C13 UNL     1      33.012   4.881  43.374  1.00  0.00     0.030 A 
ENDBRANCH  12  21
TORSDOF 1
ENDMDL
MODEL 6
REMARK VINA RESULT:      -7.6     11.246     12.959
REMARK  1 active torsions:
REMARK  status: ('A' for Active; 'I' for Inactive)
REMARK    1  A    between atoms: N2_12  and  C8_13 
ROOT
HETATM    1  O1  UNL     1      30.779   8.458  44.980  1.00  0.00    -0.246 OA
HETATM    2  C1  UNL     1      31.321   7.614  45.727  1.00  0.00     0.334 C 
HETATM    3  N1  UNL     1      32.082   6.794  45.038  1.00  0.00    -0.306 N 
HETATM    4  C2  UNL     1      32.615   5.679  45.557  1.00  0.00     0.098 C 
HETATM    5  C3  UNL     1      33.542   4.789  46.034  1.00  0.00     0.041 C 
HETATM    6  C4  UNL     1      34.314   4.877  47.138  1.00  0.00     0.035 C 
HETATM    7 CL1  UNL     1      34.795   3.438  47.992  1.00  0.00    -0.084 Cl
HETATM    8  C5  UNL     1      34.552   6.191  47.335  1.00  0.00     0.034 C 
HETATM    9  C6  UNL     1      33.691   7.157  47.797  1.00  0.00    -0.017 C 
HETATM   10  C7  UNL     1      32.331   7.028  47.773  1.00  0.00     0.120 C 
HETATM   11 CL2  UNL     1      32.115   6.031  49.171  1.00  0.00    -0.063 Cl
HETATM   12  N2  UNL     1      31.261   7.413  47.054  1.00  0.00    -0.253 N 
HETATM   13  C14 UNL     1      34.473   8.289  48.316  1.00  0.00     0.045 C 
HETATM   14  C15 UNL     1      34.445   9.524  47.445  1.00  0.00     0.032 C 
HETATM   15  C16 UNL     1      34.873   9.337  46.064  1.00  0.00    -0.023 C 
HETATM   16  C17 UNL     1      35.334   9.218  44.799  1.00  0.00     0.038 C 
HETATM   17  C18 UNL     1      34.758   8.408  43.686  1.00  0.00     0.114 C 
HETATM   18  F1  UNL     1      35.560   8.592  42.571  1.00  0.00    -0.206 F 
HETATM   19  C19 UNL     1      33.738   7.565  43.392  1.00  0.00     0.035 C 
HETATM   20  C20 UNL     1      32.518   6.770  43.652  1.00  0.00     0.163 C 
ENDROOT
BRANCH  12  21
HETATM   21  C8  UNL     1      30.047   7.602  47.742  1.00  0.00     0.045 A 
HETATM   22  C9  UNL     1      29.115   6.567  47.583  1.00  0.00     0.030 A 
HETATM   23  C10 UNL     1      27.873   6.558  48.171  1.00  0.00     0.002 A 
HETATM   24  C11 UNL     1      27.562   7.645  48.957  1.00  0.00     0.000 A 
HETATM   25  C12 UNL     1      28.451   8.684  49.139  1.00  0.00     0.002 A 
HETATM   26  C13 UNL     1      29.705   8.674  48.534  1.00  0.00     0.030 A 
ENDBRANCH  12  21
TORSDOF 1
ENDMDL
MODEL 7
REMARK VINA RESULT:      -7.6      3.483      6.378
REMARK  1 active torsions:
REMARK  status: ('A' for Active; 'I' for Inactive)
REMARK    1  A    between atoms: N2_12  and  C8_13 
ROOT
HETATM    1  O1  UNL     1      20.215   4.364  51.814  1.00  0.00    -0.246 OA
HETATM    2  C1  UNL     1      21.283   4.528  51.186  1.00  0.00     0.334 C 
HETATM    3  N1  UNL     1      22.282   3.919  51.786  1.00  0.00    -0.306 N 
HETATM    4  C2  UNL     1      23.563   4.099  51.439  1.00  0.00     0.098 C 
HETATM    5  C3  UNL     1      24.818   3.850  50.945  1.00  0.00     0.041 C 
HETATM    6  C4  UNL     1      25.197   3.619  49.670  1.00  0.00     0.035 C 
HETATM    7 CL1  UNL     1      26.779   4.098  49.123  1.00  0.00    -0.084 Cl
HETATM    8  C5  UNL     1      24.155   3.010  49.065  1.00  0.00     0.034 C 
HETATM    9  C6  UNL     1      22.959   3.556  48.665  1.00  0.00    -0.017 C 
HETATM   10  C7  UNL     1      22.465   4.730  49.158  1.00  0.00     0.120 C 
HETATM   11 CL2  UNL     1      23.398   5.847  48.222  1.00  0.00    -0.063 Cl
HETATM   12  N2  UNL     1      21.572   5.190  50.053  1.00  0.00    -0.253 N 
HETATM   13  C14 UNL     1      22.356   2.691  47.640  1.00  0.00     0.045 C 
HETATM   14  C15 UNL     1      21.156   1.902  48.112  1.00  0.00     0.032 C 
HETATM   15  C16 UNL     1      21.371   1.055  49.280  1.00  0.00    -0.023 C 
HETATM   16  C17 UNL     1      21.554   0.203  50.312  1.00  0.00     0.038 C 
HETATM   17  C18 UNL     1      21.903   0.536  51.724  1.00  0.00     0.114 C 
HETATM   18  F1  UNL     1      21.982  -0.654  52.432  1.00  0.00    -0.206 F 
HETATM   19  C19 UNL     1      22.166   1.583  52.544  1.00  0.00     0.035 C 
HETATM   20  C20 UNL     1      22.356   3.003  52.912  1.00  0.00     0.163 C 
ENDROOT
BRANCH  12  21
HETATM   21  C8  UNL     1      20.932   6.412  49.767  1.00  0.00     0.045 A 
HETATM   22  C9  UNL     1      19.919   6.332  48.802  1.00  0.00     0.030 A 
HETATM   23  C10 UNL     1      19.175   7.409  48.384  1.00  0.00     0.002 A 
HETATM   24  C11 UNL     1      19.469   8.620  48.970  1.00  0.00     0.000 A 
HETATM   25  C12 UNL     1      20.459   8.740  49.923  1.00  0.00     0.002 A 
HETATM   26  C13 UNL     1      21.202   7.636  50.334  1.00  0.00     0.030 A 
ENDBRANCH  12  21
TORSDOF 1
ENDMDL
MODEL 8
REMARK VINA RESULT:      -7.4      8.839     10.678
REMARK  1 active torsions:
REMARK  status: ('A' for Active; 'I' for Inactive)
REMARK    1  A    between atoms: N2_12  and  C8_13 
ROOT
HETATM    1  O1  UNL     1      28.822   5.861  48.206  1.00  0.00    -0.246 OA
HETATM    2  C1  UNL     1      28.837   7.091  48.429  1.00  0.00     0.334 C 
HETATM    3  N1  UNL     1      30.043   7.497  48.756  1.00  0.00    -0.306 N 
HETATM    4  C2  UNL     1      30.298   8.721  49.238  1.00  0.00     0.098 C 
HETATM    5  C3  UNL     1      30.760  10.009  49.321  1.00  0.00     0.041 C 
HETATM    6  C4  UNL     1      30.385  11.093  48.609  1.00  0.00     0.035 C 
HETATM    7 CL1  UNL     1      30.452  12.680  49.321  1.00  0.00    -0.084 Cl
HETATM    8  C5  UNL     1      30.010  10.641  47.393  1.00  0.00     0.034 C 
HETATM    9  C6  UNL     1      28.870   9.955  47.049  1.00  0.00    -0.017 C 
HETATM   10  C7  UNL     1      28.099   9.276  47.949  1.00  0.00     0.120 C 
HETATM   11 CL2  UNL     1      27.214  10.602  48.622  1.00  0.00    -0.063 Cl
HETATM   12  N2  UNL     1      27.873   8.026  48.393  1.00  0.00    -0.253 N 
HETATM   13  C14 UNL     1      28.639  10.104  45.604  1.00  0.00     0.045 C 
HETATM   14  C15 UNL     1      28.918   8.860  44.792  1.00  0.00     0.032 C 
HETATM   15  C16 UNL     1      30.255   8.296  44.931  1.00  0.00    -0.023 C 
HETATM   16  C17 UNL     1      31.507   7.791  44.977  1.00  0.00     0.038 C 
HETATM   17  C18 UNL     1      32.213   7.196  46.149  1.00  0.00     0.114 C 
HETATM   18  F1  UNL     1      33.475   6.806  45.729  1.00  0.00    -0.206 F 
HETATM   19  C19 UNL     1      32.051   6.909  47.464  1.00  0.00     0.035 C 
HETATM   20  C20 UNL     1      31.343   6.848  48.762  1.00  0.00     0.163 C 
ENDROOT
BRANCH  12  21
HETATM   21  C8  UNL     1      26.571   7.716  48.832  1.00  0.00     0.045 A 
HETATM   22  C9  UNL     1      25.660   7.429  47.807  1.00  0.00     0.030 A 
HETATM   23  C10 UNL     1      24.343   7.101  48.023  1.00  0.00     0.002 A 
HETATM   24  C11 UNL     1      23.931   7.061  49.337  1.00  0.00     0.000 A 
HETATM   25  C12 UNL     1      24.797   7.337  50.375  1.00  0.00     0.002 A 
HETATM   26  C13 UNL     1      26.129   7.667  50.133  1.00  0.00     0.030 A 
ENDBRANCH  12  21
TORSDOF 1
ENDMDL
MODEL 9
REMARK VINA RESULT:      -7.4      9.536     10.690
REMARK  1 active torsions:
REMARK  status: ('A' for Active; 'I' for Inactive)
REMARK    1  A    between atoms: N2_12  and  C8_13 
ROOT
HETATM    1  O1  UNL     1      32.564   9.760  47.481  1.00  0.00    -0.246 OA
HETATM    2  C1  UNL     1      31.533   9.154  47.845  1.00  0.00     0.334 C 
HETATM    3  N1  UNL     1      30.785   9.914  48.613  1.00  0.00    -0.306 N 
HETATM    4  C2  UNL     1      29.732   9.450  49.300  1.00  0.00     0.098 C 
HETATM    5  C3  UNL     1      28.437   9.234  49.694  1.00  0.00     0.041 C 
HETATM    6  C4  UNL     1      27.444   8.599  49.036  1.00  0.00     0.035 C 
HETATM    7 CL1  UNL     1      26.206   7.751  49.918  1.00  0.00    -0.084 Cl
HETATM    8  C5  UNL     1      27.672   8.793  47.719  1.00  0.00     0.034 C 
HETATM    9  C6  UNL     1      28.636   8.221  46.924  1.00  0.00    -0.017 C 
HETATM   10  C7  UNL     1      29.774   7.647  47.415  1.00  0.00     0.120 C 
HETATM   11 CL2  UNL     1      29.132   6.116  47.902  1.00  0.00    -0.063 Cl
HETATM   12  N2  UNL     1      31.080   7.913  47.597  1.00  0.00    -0.253 N 
HETATM   13  C14 UNL     1      28.218   8.321  45.517  1.00  0.00     0.045 C 
HETATM   14  C15 UNL     1      28.992   9.334  44.703  1.00  0.00     0.032 C 
HETATM   15  C16 UNL     1      28.997  10.696  45.221  1.00  0.00    -0.023 C 
HETATM   16  C17 UNL     1      28.960  11.983  45.630  1.00  0.00     0.038 C 
HETATM   17  C18 UNL     1      29.512  12.561  46.890  1.00  0.00     0.114 C 
HETATM   18  F1  UNL     1      29.247  13.922  46.883  1.00  0.00    -0.206 F 
HETATM   19  C19 UNL     1      30.172  12.222  48.024  1.00  0.00     0.035 C 
HETATM   20  C20 UNL     1      30.845  11.318  48.983  1.00  0.00     0.163 C 
ENDROOT
BRANCH  12  21
HETATM   21  C8  UNL     1      31.982   6.835  47.522  1.00  0.00     0.045 A 
HETATM   22  C9  UNL     1      32.176   6.321  46.232  1.00  0.00     0.030 A 
HETATM   23  C10 UNL     1      33.015   5.272  45.945  1.00  0.00     0.002 A 
HETATM   24  C11 UNL     1      33.689   4.718  47.011  1.00  0.00     0.000 A 
HETATM   25  C12 UNL     1      33.526   5.195  48.296  1.00  0.00     0.002 A 
HETATM   26  C13 UNL     1      32.670   6.260  48.566  1.00  0.00     0.030 A 
ENDBRANCH  12  21
TORSDOF 1
ENDMDL
